data_mof_unit_51896.cif
_audit_creation_date              2012-12-10T18:28:23-0500
_audit_creation_method            fapswitch 2.2
_symmetry_space_group_name_H-M    P1
_symmetry_Int_Tables_number       1
_space_group_crystal_system       triclinic
_cell_length_a                    23.302195
_cell_length_b                    20.134057
_cell_length_c                    14.994348
_cell_angle_alpha                 89.999871
_cell_angle_beta                  99.19749
_cell_angle_gamma                 90.000279
_cell_volume                      6944.41873804

loop_
_atom_site_label
_atom_site_type_symbol
_atom_type_description
_atom_site_fract_x
_atom_site_fract_y
_atom_site_fract_z
_atom_type_partial_charge
C1    C     C_R   0.574387 0.088818 0.552851 0.862464
C2    C     C_R   0.423570 0.913789 0.445535 0.865439
C3    C     C_R   0.425613 0.088818 0.447148 0.862463
C4    C     C_R   0.576429 0.913789 0.554465 0.865441
C5    C     C_R   0.074387 0.588818 0.552851 0.862462
C6    C     C_R   0.923570 0.413789 0.445535 0.865440
C7    C     C_R   0.925613 0.588818 0.447149 0.862461
C8    C     C_R   0.076429 0.413788 0.554465 0.865441
C9    C     C_R   0.268233 0.249306 0.686837 0.471365
C10   C     C_R   0.799166 0.828191 0.374186 0.474115
C11   C     C_R   0.731764 0.249309 0.313159 0.471367
C12   C     C_R   0.200833 0.828194 0.625813 0.474128
C13   C     C_R   0.768242 0.749320 0.686839 0.471361
C14   C     C_R   0.299173 0.328198 0.374201 0.474125
C15   C     C_R   0.231750 0.749329 0.313154 0.471355
C16   C     C_R   0.700824 0.328202 0.625795 0.474140
C17   C     C_R   0.628480 0.999181 0.203144 -0.352568
C18   C     C_R   0.371520 0.999189 0.796857 -0.352591
C19   C     C_R   0.128480 0.499195 0.203144 -0.352590
C20   C     C_R   0.871520 0.499196 0.796856 -0.352607
C21   C     C_R   0.607279 0.000955 0.284127 0.005196
C22   C     C_R   0.392721 0.000961 0.715873 0.005195
C23   C     C_R   0.107279 0.500961 0.284128 0.005201
C24   C     C_R   0.892721 0.500961 0.715873 0.005197
C25   C     C_R   0.509759 0.997464 0.208286 -0.065977
C26   C     C_R   0.490240 0.997461 0.791714 -0.065976
C27   C     C_R   0.009759 0.497467 0.208286 -0.065981
C28   C     C_R   0.990240 0.497467 0.791714 -0.065979
C29   C     C_R   0.528281 0.995567 0.123776 0.001425
C30   C     C_R   0.471719 0.995568 0.876225 0.001426
C31   C     C_R   0.028281 0.495581 0.123775 0.001428
C32   C     C_R   0.971719 0.495581 0.876225 0.001428
C33   C     C_R   0.589124 0.996271 0.122572 0.196186
C34   C     C_R   0.410876 0.996277 0.877428 0.196180
C35   C     C_R   0.089124 0.496290 0.122572 0.196174
C36   C     C_R   0.910877 0.496290 0.877428 0.196172
C37   C     C_R   0.488818 0.993926 0.041487 0.078969
C38   C     C_R   0.511182 0.993925 0.958513 0.078969
C39   C     C_R   0.988818 0.493945 0.041487 0.078970
C40   C     C_R   0.011182 0.493945 0.958513 0.078969
C41   C     C_R   0.572145 0.992947 0.960516 -0.234224
C42   C     C_R   0.427854 0.992952 0.039484 -0.234225
C43   C     C_R   0.072146 0.492974 0.960516 -0.234220
C44   C     C_R   0.927854 0.492974 0.039484 -0.234223
C45   C     C_R   0.610224 0.994260 0.041230 -0.220940
C46   C     C_R   0.389776 0.994267 0.958771 -0.220937
C47   C     C_R   0.110224 0.494287 0.041230 -0.220939
C48   C     C_R   0.889776 0.494287 0.958771 -0.220933
C49   C     C_R   0.625731 0.871899 0.591461 -0.057444
C50   C     C_R   0.390150 0.147808 0.421760 -0.058731
C51   C     C_R   0.374267 0.871901 0.408537 -0.057446
C52   C     C_R   0.609850 0.147809 0.578239 -0.058733
C53   C     C_R   0.125729 0.371897 0.591461 -0.057446
C54   C     C_R   0.890151 0.647809 0.421759 -0.058729
C55   C     C_R   0.874269 0.371899 0.408537 -0.057446
C56   C     C_R   0.109849 0.647809 0.578240 -0.058731
C57   C     C_R   0.679768 0.806372 0.711787 -0.175263
C58   C     C_R   0.363554 0.243785 0.326761 -0.168500
C59   C     C_R   0.320226 0.806380 0.288208 -0.175279
C60   C     C_R   0.636449 0.243784 0.673240 -0.168475
C61   C     C_R   0.179759 0.306358 0.711782 -0.175257
C62   C     C_R   0.863551 0.743780 0.326753 -0.168530
C63   C     C_R   0.820240 0.306360 0.288216 -0.175259
C64   C     C_R   0.136454 0.743778 0.673250 -0.168496
C65   C     C_R   0.631609 0.845334 0.678814 -0.220102
C66   C     C_R   0.393395 0.183726 0.342656 -0.211046
C67   C     C_R   0.368387 0.845339 0.321183 -0.220097
C68   C     C_R   0.606608 0.183725 0.657345 -0.211052
C69   C     C_R   0.131602 0.345325 0.678809 -0.220102
C70   C     C_R   0.893393 0.683723 0.342652 -0.211040
C71   C     C_R   0.868397 0.345325 0.321190 -0.220103
C72   C     C_R   0.106612 0.683720 0.657351 -0.211049
C73   C     C_R   0.669376 0.861952 0.539471 -0.232753
C74   C     C_R   0.357466 0.172427 0.484202 -0.224799
C75   C     C_R   0.330621 0.861956 0.460526 -0.232755
C76   C     C_R   0.642532 0.172430 0.515795 -0.224794
C77   C     C_R   0.169378 0.361954 0.539477 -0.232753
C78   C     C_R   0.857469 0.672431 0.484203 -0.224805
C79   C     C_R   0.830618 0.361959 0.460519 -0.232753
C80   C     C_R   0.142527 0.672435 0.515792 -0.224801
C81   C     C_R   0.718701 0.824563 0.571771 0.057705
C82   C     C_R   0.330804 0.234423 0.472967 0.057735
C83   C     C_R   0.281294 0.824570 0.428224 0.057709
C84   C     C_R   0.669193 0.234426 0.527029 0.057728
C85   C     C_R   0.218701 0.324561 0.571777 0.057706
C86   C     C_R   0.830805 0.734425 0.472963 0.057742
C87   C     C_R   0.781295 0.324566 0.428218 0.057707
C88   C     C_R   0.169191 0.734429 0.527034 0.057732
C89   C     C_R   0.722678 0.793733 0.657797 0.062739
C90   C     C_R   0.331391 0.269333 0.390952 0.061207
C91   C     C_R   0.277316 0.793741 0.342197 0.062748
C92   C     C_R   0.668608 0.269335 0.609045 0.061197
C93   C     C_R   0.222672 0.293723 0.657796 0.062737
C94   C     C_R   0.831388 0.769330 0.390943 0.061216
C95   C     C_R   0.777325 0.293727 0.342199 0.062735
C96   C     C_R   0.168612 0.769331 0.609056 0.061207
C97   C     C_R   0.761065 0.812126 0.516209 0.008467
C98   C     C_R   0.300191 0.259691 0.539414 0.005187
C99   C     C_R   0.238931 0.812132 0.483786 0.008460
C100  C     C_R   0.699805 0.259695 0.460581 0.005186
C101  C     C_R   0.261066 0.312125 0.516218 0.008460
C102  C     C_R   0.800193 0.759695 0.539409 0.005188
C103  C     C_R   0.738929 0.312131 0.483776 0.008454
C104  C     C_R   0.199801 0.759702 0.460585 0.005191
C105  C     C_R   0.307270 0.233781 0.628081 -0.327763
C106  C     C_R   0.764958 0.849590 0.437604 -0.327706
C107  C     C_R   0.692726 0.233785 0.371914 -0.327761
C108  C     C_R   0.235038 0.849595 0.562391 -0.327703
C109  C     C_R   0.807277 0.733792 0.628080 -0.327767
C110  C     C_R   0.264965 0.349595 0.437620 -0.327698
C111  C     C_R   0.192716 0.733801 0.371913 -0.327768
C112  C     C_R   0.735030 0.349601 0.562373 -0.327694
H1    H     H_    0.592382 0.991399 0.900933 0.139358
H2    H     H_    0.407618 0.991405 0.099068 0.139357
H3    H     H_    0.092383 0.491433 0.900933 0.139358
H4    H     H_    0.907617 0.491433 0.099067 0.139357
H5    H     H_    0.352191 0.141810 0.541415 0.153624
H6    H     H_    0.663070 0.881322 0.471546 0.155835
H7    H     H_    0.647805 0.141814 0.458580 0.153626
H8    H     H_    0.336928 0.881324 0.528452 0.155840
H9    H     H_    0.852198 0.641817 0.541420 0.153626
H10   H     H_    0.163077 0.381331 0.471555 0.155835
H11   H     H_    0.147795 0.641824 0.458571 0.153628
H12   H     H_    0.836919 0.381338 0.528440 0.155837
H13   H     H_    0.419173 0.165781 0.293636 0.164816
H14   H     H_    0.598697 0.853784 0.721032 0.161376
H15   H     H_    0.580833 0.165777 0.706368 0.164817
H16   H     H_    0.401300 0.853789 0.278965 0.161375
H17   H     H_    0.919170 0.665776 0.293631 0.164815
H18   H     H_    0.098687 0.353771 0.721024 0.161378
H19   H     H_    0.080839 0.665770 0.706376 0.164815
H20   H     H_    0.901314 0.353769 0.278978 0.161378
H21   H     H_    0.682445 0.784848 0.778506 0.177118
H22   H     H_    0.365761 0.269985 0.264335 0.179566
H23   H     H_    0.317549 0.784858 0.221487 0.177115
H24   H     H_    0.634244 0.269982 0.735668 0.179575
H25   H     H_    0.182431 0.284828 0.778497 0.177120
H26   H     H_    0.865756 0.769978 0.264324 0.179557
H27   H     H_    0.817569 0.284830 0.221501 0.177122
H28   H     H_    0.134253 0.769972 0.735683 0.179567
H29   H     H_    0.343948 0.202582 0.653635 0.160334
H30   H     H_    0.743318 0.896983 0.426205 0.146266
H31   H     H_    0.656049 0.202585 0.346361 0.160331
H32   H     H_    0.256675 0.896991 0.573783 0.146254
H33   H     H_    0.843956 0.702595 0.653635 0.160337
H34   H     H_    0.243332 0.396992 0.426232 0.146259
H35   H     H_    0.156037 0.702604 0.346358 0.160338
H36   H     H_    0.756660 0.397000 0.573754 0.146250
H37   H     H_    0.656629 0.994127 0.039899 0.139247
H38   H     H_    0.343371 0.994137 0.960101 0.139253
H39   H     H_    0.156629 0.494159 0.039899 0.139252
H40   H     H_    0.843371 0.494159 0.960101 0.139257
H41   H     H_    0.535054 0.997084 0.782698 0.126380
H42   H     H_    0.464945 0.997091 0.217301 0.126380
H43   H     H_    0.035054 0.497087 0.782698 0.126380
H44   H     H_    0.964945 0.497087 0.217302 0.126381
H45   H     H_    0.363009 0.002798 0.652609 0.124944
H46   H     H_    0.636991 0.002791 0.347391 0.124948
H47   H     H_    0.863009 0.502795 0.652608 0.124942
H48   H     H_    0.136991 0.502795 0.347392 0.124948
H49   H     H_    0.674960 0.000195 0.203394 0.133860
H50   H     H_    0.325040 0.000207 0.796607 0.133870
H51   H     H_    0.174960 0.500213 0.203394 0.133878
H52   H     H_    0.825040 0.500214 0.796607 0.133881
N1    N     N_R   0.549130 1.000000 0.284090 -0.096277
N2    N     N_R   0.450870 1.000000 0.715910 -0.096274
N3    N     N_R   0.049130 0.500000 0.284090 -0.096277
N4    N     N_R   0.950870 0.500000 0.715910 -0.096273
O1    O     O_R   0.541320 0.066090 0.608930 -0.612928
O2    O     O_R   0.458680 0.933910 0.391070 -0.612899
O3    O     O_R   0.458680 0.066090 0.391070 -0.612932
O4    O     O_R   0.541320 0.933910 0.608930 -0.612900
O5    O     O_R   0.041320 0.566090 0.608930 -0.612930
O6    O     O_R   0.958680 0.433910 0.391070 -0.612899
O7    O     O_R   0.958680 0.566090 0.391070 -0.612932
O8    O     O_R   0.041320 0.433910 0.608930 -0.612899
O9    O     O_R   0.572880 0.066110 0.470280 -0.620975
O10   O     O_R   0.427120 0.933890 0.529720 -0.618276
O11   O     O_R   0.427120 0.066110 0.529720 -0.620975
O12   O     O_R   0.572880 0.933890 0.470280 -0.618278
O13   O     O_R   0.072880 0.566110 0.470280 -0.620977
O14   O     O_R   0.927120 0.433890 0.529720 -0.618275
O15   O     O_R   0.927120 0.566110 0.529720 -0.620976
O16   O     O_R   0.072880 0.433890 0.470280 -0.618277
Zn1   Zn    Zn3+2 0.478910 0.000000 0.592580 0.935702
Zn2   Zn    Zn3+2 0.521090 1.000000 0.407420 0.935700
Zn3   Zn    Zn3+2 0.978910 0.500000 0.592580 0.935701
Zn4   Zn    Zn3+2 0.021090 0.500000 0.407420 0.935699
O17   O     O_3   0.275754 0.223908 0.774102 -0.648096
C113  C     C_3   0.269839 0.153778 0.773254 0.077964
H53   H     H_    0.290707 0.135180 0.840429 0.176899
H54   H     H_    0.292821 0.128795 0.722938 0.125807
C114  C     C_3   0.205624 0.133328 0.758583 -0.388672
H55   H     H_    0.183685 0.156793 0.811170 0.229065
H56   H     H_    0.183918 0.150673 0.691217 0.220871
C115  C     C_3   0.199136 0.058050 0.763507 -0.920662
H57   H     H_    0.219979 0.033582 0.710462 0.262271
H58   H     H_    0.152305 0.044717 0.752587 0.281312
H59   H     H_    0.219484 0.039505 0.830966 0.249115
O18   O     O_3   0.804665 0.866475 0.298917 -0.648488
C116  C     C_3   0.750650 0.873142 0.240880 0.064186
H60   H     H_    0.754708 0.915718 0.195249 0.172193
H61   H     H_    0.713947 0.885439 0.277126 0.128910
C117  C     C_3   0.736371 0.810957 0.182539 -0.373368
H62   H     H_    0.772978 0.799932 0.145578 0.231569
H63   H     H_    0.730382 0.767800 0.226328 0.215588
C118  C     C_3   0.680908 0.820770 0.114409 -0.919845
H64   H     H_    0.643615 0.831647 0.149923 0.269084
H65   H     H_    0.671223 0.774837 0.073817 0.264736
H66   H     H_    0.686385 0.862449 0.067961 0.262121
O19   O     O_3   0.724245 0.223910 0.225895 -0.648096
C119  C     C_3   0.730160 0.153780 0.226747 0.077966
H67   H     H_    0.709299 0.135180 0.159570 0.176900
H68   H     H_    0.707172 0.128798 0.277057 0.125810
C120  C     C_3   0.794375 0.133329 0.241434 -0.388686
H69   H     H_    0.816320 0.156795 0.188854 0.229068
H70   H     H_    0.816074 0.150675 0.308803 0.220871
C121  C     C_3   0.800863 0.058052 0.236512 -0.920636
H71   H     H_    0.780013 0.033583 0.289549 0.262270
H72   H     H_    0.847694 0.044719 0.247444 0.281312
H73   H     H_    0.780522 0.039507 0.169049 0.249119
O20   O     O_3   0.195336 0.866472 0.701088 -0.648496
C122  C     C_3   0.249356 0.873166 0.759105 0.064207
H74   H     H_    0.245272 0.915699 0.804793 0.172217
H75   H     H_    0.286033 0.885546 0.722846 0.128899
C123  C     C_3   0.263710 0.810954 0.817365 -0.373415
H76   H     H_    0.227123 0.799839 0.854329 0.231562
H77   H     H_    0.269738 0.767844 0.773518 0.215581
C124  C     C_3   0.319172 0.820799 0.885487 -0.919830
H78   H     H_    0.356444 0.831777 0.849970 0.269103
H79   H     H_    0.328918 0.774844 0.926008 0.264730
H80   H     H_    0.313655 0.862423 0.932001 0.262124
O21   O     O_3   0.775768 0.723929 0.774108 -0.648097
C125  C     C_3   0.769852 0.653799 0.773270 0.077960
H81   H     H_    0.790732 0.635204 0.840439 0.176900
H82   H     H_    0.792821 0.628812 0.722941 0.125807
C126  C     C_3   0.705637 0.633352 0.758632 -0.388634
H83   H     H_    0.683711 0.656821 0.811231 0.229060
H84   H     H_    0.683918 0.650696 0.691272 0.220873
C127  C     C_3   0.699147 0.558075 0.763564 -0.920732
H85   H     H_    0.719975 0.533604 0.710505 0.262273
H86   H     H_    0.652315 0.544745 0.752670 0.281312
H87   H     H_    0.719508 0.539531 0.831017 0.249113
O22   O     O_3   0.304678 0.366484 0.298936 -0.648491
C128  C     C_3   0.250662 0.373180 0.240910 0.064196
H88   H     H_    0.254746 0.415727 0.195243 0.172225
H89   H     H_    0.213978 0.385541 0.277163 0.128895
C129  C     C_3   0.236323 0.310981 0.182618 -0.373407
H90   H     H_    0.272917 0.299887 0.145659 0.231567
H91   H     H_    0.230298 0.267857 0.226443 0.215583
C130  C     C_3   0.180865 0.320829 0.114490 -0.919829
H92   H     H_    0.143587 0.331784 0.150002 0.269101
H93   H     H_    0.171131 0.274884 0.073943 0.264736
H94   H     H_    0.186379 0.362470 0.067999 0.262122
O23   O     O_3   0.224220 0.723943 0.225883 -0.648094
C131  C     C_3   0.230139 0.653814 0.226715 0.077959
H95   H     H_    0.209235 0.635218 0.159559 0.176905
H96   H     H_    0.207194 0.628822 0.277071 0.125795
C132  C     C_3   0.294354 0.633373 0.241293 -0.388602
H97   H     H_    0.316256 0.656844 0.188666 0.229062
H98   H     H_    0.316096 0.650721 0.308638 0.220875
C133  C     C_3   0.300847 0.558097 0.236356 -0.920763
H99   H     H_    0.280046 0.533624 0.289442 0.262291
H100  H     H_    0.347679 0.544772 0.247203 0.281303
H101  H     H_    0.280461 0.539550 0.168918 0.249112
O24   O     O_3   0.695322 0.366482 0.701066 -0.648499
C134  C     C_3   0.749343 0.373197 0.759076 0.064222
H102  H     H_    0.745238 0.415708 0.804792 0.172234
H103  H     H_    0.786006 0.385627 0.722812 0.128885
C135  C     C_3   0.763743 0.310973 0.817298 -0.373441
H104  H     H_    0.727166 0.299805 0.854261 0.231557
H105  H     H_    0.769798 0.267887 0.773424 0.215576
C136  C     C_3   0.819202 0.320843 0.885418 -0.919820
H106  H     H_    0.856462 0.331883 0.849903 0.269116
H107  H     H_    0.828986 0.274877 0.925902 0.264735
H108  H     H_    0.813657 0.362437 0.931966 0.262127

loop_
_geom_bond_atom_site_label_1
_geom_bond_atom_site_label_2
_ccdc_geom_bond_type
C88   C96   A    
C128  H89   S    
C2    O2    A    
C113  H53   S    
C63   C95   A    
N2    Zn1   S    
C33   C45   A    
C116  H60   S    
C5    C56   S    
C53   C77   A    
C122  H74   S    
C6    C55   S    
C132  C133  S    
C53   C69   A    
C76   C84   A    
C133  H101  S    
C79   C87   A    
C128  C129  S    
C116  H61   S    
C122  C123  S    
C7    O7    A    
C130  H92   S    
C15   O23   S    
C58   H22   S    
C99   C108  A    
C30   C38   A    
C55   C79   A    
C124  H78   S    
C98   C105  A    
C57   C89   A    
C72   H19   S    
C122  H75   S    
C32   C36   A    
C44   H4    S    
C11   O19   S    
C24   N4    A    
C51   C75   A    
C124  H80   S    
C111  H35   S    
C50   C74   A    
C105  H29   S    
C134  C135  S    
C61   C93   A    
C119  H68   S    
C130  H93   S    
C10   C94   A    
C9    C105  A    
C64   H28   S    
C20   H52   S    
C131  C132  S    
C29   C33   A    
C136  H108  S    
C21   N1    A    
O22   C128  S    
C62   C70   A    
C21   H46   S    
C5    O13   A    
C37   C42   A    
C78   H9    S    
C3    O11   A    
C14   C90   A    
C13   C109  A    
C77   H10   S    
C86   C94   A    
C113  C114  S    
C59   C67   A    
C71   H20   S    
O10   Zn1   S    
C85   C93   A    
C42   H2    S    
C40   C43   A    
C26   N2    A    
C20   C24   A    
C129  H91   S    
O18   C116  S    
C56   C72   A    
C87   C95   A    
C118  H66   S    
C119  C120  S    
C135  H105  S    
C26   H41   S    
C34   C46   A    
O21   C125  S    
C60   H24   S    
C45   H37   S    
C97   C102  A    
C52   C68   A    
C129  C130  S    
C132  H97   S    
C17   H49   S    
C43   H3    S    
C78   C86   A    
C32   C40   A    
C99   C104  A    
O7    Zn4   S    
C35   C47   A    
C81   C89   A    
C119  H67   S    
N4    Zn3   S    
C83   C99   A    
C126  H83   S    
C23   H48   S    
C82   C98   A    
C135  C136  S    
C57   H21   S    
O20   C122  S    
C125  H82   S    
C74   C82   A    
C115  H59   S    
C9    O17   S    
C73   C81   A    
C88   C104  A    
O13   Zn4   S    
C58   C66   A    
C106  H30   S    
C12   C96   A    
C60   C92   A    
C25   C29   A    
C126  H84   S    
C24   H47   S    
C76   H7    S    
C30   C34   A    
C27   C31   A    
C118  H64   S    
C84   C100  A    
C75   C83   A    
C15   C111  A    
C28   C32   A    
C61   H25   S    
C64   C96   A    
C38   C41   A    
C115  H58   S    
C2    C51   S    
C120  C121  S    
C110  H34   S    
C39   C40   A    
C12   C108  A    
C123  C124  S    
C69   H18   S    
C130  H94   S    
C133  H100  S    
C6    O6    A    
C114  H56   S    
C101  C110  A    
C15   C91   A    
C100  C103  A    
C17   C21   A    
O9    Zn2   S    
C112  H36   S    
C131  H96   S    
C103  C112  A    
C125  C126  S    
C22   N2    A    
C14   O22   S    
C114  H55   S    
C19   C23   A    
C120  H69   S    
C62   C94   A    
C37   C38   A    
O15   Zn3   S    
C28   H43   S    
C11   C107  A    
C18   C34   A    
C121  H72   S    
O19   C119  S    
C54   C70   A    
C117  C118  S    
O4    Zn1   S    
C114  C115  S    
C57   C65   A    
C131  H95   S    
O2    Zn2   S    
C50   C66   A    
C127  H86   S    
C136  H106  S    
C52   C76   A    
C17   C33   A    
C19   H51   S    
C62   H26   S    
C84   C92   A    
C58   C90   A    
C68   H15   S    
C12   O20   S    
C133  H99   S    
C49   C65   A    
C127  H87   S    
C23   N3    A    
C97   C106  A    
O6    Zn4   S    
C46   H38   S    
C63   C71   A    
C26   C30   A    
C123  H77   S    
C3    O3    A    
C48   H40   S    
C42   C46   A    
O14   Zn3   S    
C116  C117  S    
C87   C103  A    
C10   C106  A    
C125  H81   S    
C107  H31   S    
O23   C131  S    
C86   C102  A    
C9    C93   A    
C3    C50   S    
C108  H32   S    
C85   C101  A    
C129  H90   S    
C16   C112  A    
O8    Zn3   S    
C13   O21   S    
C59   C91   A    
C11   C95   A    
C27   H44   S    
C14   C110  A    
C74   H5    S    
O5    Zn3   S    
C100  C107  A    
C113  H54   S    
C73   H6    S    
C4    O4    A    
O3    Zn2   S    
C13   C89   A    
C25   H42   S    
C18   C22   A    
C5    O5    A    
C59   H23   S    
C109  H33   S    
C75   H8    S    
C41   H1    S    
C115  H57   S    
C132  H98   S    
C10   O18   S    
C8    C53   S    
C104  C111  A    
C134  H102  S    
C8    O8    A    
C121  H73   S    
C16   C92   A    
C39   C44   A    
O11   Zn1   S    
C22   H45   S    
C63   H27   S    
C98   C101  A    
C83   C91   A    
C79   H12   S    
C28   N4    A    
C1    O9    A    
N1    Zn2   S    
C82   C90   A    
C66   H13   S    
C7    O15   A    
C4    C49   S    
O12   Zn2   S    
C25   N1    A    
C65   H14   S    
C120  H70   S    
C56   C80   A    
C4    O12   A    
O1    Zn1   S    
C124  H79   S    
C19   C35   A    
C67   H16   S    
C117  H63   S    
C18   H50   S    
C8    O16   A    
C121  H71   S    
C51   C67   A    
C81   C97   A    
N3    Zn4   S    
C31   C35   A    
C1    O1    A    
C127  H85   S    
C136  H107  S    
C31   C39   A    
C36   C48   A    
C49   C73   A    
C61   C69   A    
C64   C72   A    
O17   C113  S    
C1    C52   S    
C16   O24   S    
C6    O14   A    
O24   C134  S    
C47   H39   S    
C77   C85   A    
C20   C36   A    
O16   Zn4   S    
C117  H62   S    
C60   C68   A    
C80   C88   A    
C123  H76   S    
C70   H17   S    
C126  C127  S    
C29   C37   A    
C118  H65   S    
C41   C45   A    
C135  H104  S    
C134  H103  S    
C102  C109  A    
C2    O10   A    
C7    C54   S    
C128  H88   S    
C43   C47   A    
C55   C71   A    
C44   C48   A    
C27   N3    A    
C54   C78   A    
C80   H11   S    
