data_mof_unit_41534.cif
_audit_creation_date              2012-12-11T14:40:13-0500
_audit_creation_method            fapswitch 2.2
_symmetry_space_group_name_H-M    P1
_symmetry_Int_Tables_number       1
_space_group_crystal_system       triclinic
_cell_length_a                    19.938787
_cell_length_b                    11.022655
_cell_length_c                    19.435892
_cell_angle_alpha                 90.178198
_cell_angle_beta                  96.506693
_cell_angle_gamma                 89.441743
_cell_volume                      4243.86365997

loop_
_atom_site_label
_atom_site_type_symbol
_atom_type_description
_atom_site_fract_x
_atom_site_fract_y
_atom_site_fract_z
_atom_type_partial_charge
C1    C     C_R   0.725779 0.950955 0.359430 0.542261
C2    C     C_R   0.274726 0.950451 0.640045 0.535577
C3    C     C_R   0.225780 0.450952 0.359429 0.542256
C4    C     C_R   0.774726 0.450451 0.640045 0.535576
C5    C     C_3   0.764563 0.294817 0.484656 -0.134405
C6    C     C_3   0.292683 0.282747 0.501673 -0.170786
C7    C     C_3   0.264566 0.794813 0.484658 -0.134404
C8    C     C_3   0.792687 0.782757 0.501673 -0.170787
C9    C     C_3   0.742341 0.397086 0.433631 0.057783
C10   C     C_3   0.268214 0.358257 0.560455 0.049335
C11   C     C_3   0.242340 0.897079 0.433633 0.057786
C12   C     C_3   0.768213 0.858260 0.560456 0.049339
C13   C     C_3   0.686527 0.433526 0.477849 0.026405
C14   C     C_3   0.293815 0.474085 0.529332 0.035249
C15   C     C_3   0.186524 0.933512 0.477850 0.026397
C16   C     C_3   0.793808 0.974094 0.529335 0.035251
C17   C     C_3   0.736040 0.522216 0.516747 -0.113174
C18   C     C_3   0.222884 0.491551 0.488772 -0.109208
C19   C     C_3   0.236034 0.022210 0.516747 -0.113169
C20   C     C_3   0.722878 0.991550 0.488774 -0.109213
C21   C     C_3   0.792131 0.484237 0.471588 -0.154215
C22   C     C_3   0.198013 0.374408 0.519891 -0.115101
C23   C     C_3   0.292126 0.984238 0.471588 -0.154216
C24   C     C_3   0.698012 0.874401 0.519891 -0.115099
C25   C     C_3   0.815141 0.382732 0.523185 -0.114896
C26   C     C_3   0.221764 0.297922 0.460678 -0.139007
C27   C     C_3   0.315141 0.882736 0.523186 -0.114894
C28   C     C_3   0.721769 0.797923 0.460677 -0.139008
C29   C     C_3   0.759284 0.419745 0.567552 0.046987
C30   C     C_3   0.245961 0.413551 0.429804 0.050670
C31   C     C_3   0.259283 0.919743 0.567553 0.046990
C32   C     C_3   0.745959 0.913558 0.429806 0.050669
C33   C     C_3   0.512482 0.290670 0.974237 0.037910
C34   C     C_3   0.473214 0.246044 0.032918 0.042804
C35   C     C_3   0.012478 0.790670 0.974239 0.037910
C36   C     C_3   0.973212 0.746033 0.032918 0.042799
C37   C     C_3   0.574829 0.218775 0.005387 -0.031289
C38   C     C_3   0.452600 0.131752 0.990077 -0.014520
C39   C     C_3   0.074828 0.718784 0.005389 -0.031298
C40   C     C_3   0.952605 0.631740 0.990074 -0.014520
C41   C     C_3   0.536064 0.175139 0.063945 0.054583
C42   C     C_3   0.492391 0.175725 0.931736 0.056859
C43   C     C_3   0.036064 0.675136 0.063945 0.054552
C44   C     C_3   0.992396 0.675725 0.931734 0.056855
C45   C     C_R   0.534045 0.180461 0.336830 0.545757
C46   C     C_R   0.436738 0.183658 0.652120 0.544269
C47   C     C_R   0.034045 0.680461 0.336830 0.545757
C48   C     C_R   0.936738 0.683658 0.652120 0.544270
C49   C     C_3   0.514712 0.060477 0.022198 -0.132842
C50   C     C_3   0.554135 0.104839 0.962681 -0.144269
C51   C     C_3   0.014720 0.560474 0.022195 -0.132832
C52   C     C_3   0.054143 0.604847 0.962681 -0.144212
C53   C     C_1   0.763574 0.429585 0.906216 -0.026615
C54   C     C_1   0.239458 0.416339 0.097782 -0.017446
C55   C     C_1   0.263577 0.929598 0.906220 -0.026604
C56   C     C_1   0.739465 0.916328 0.097786 -0.017442
C57   C     C_1   0.758088 0.433118 0.041288 -0.071495
C58   C     C_1   0.250680 0.404760 0.965267 -0.084620
C59   C     C_1   0.258088 0.933147 0.041292 -0.071508
C60   C     C_1   0.750690 0.904743 0.965273 -0.084601
C61   C     C_1   0.759492 0.429662 0.968062 -0.074361
C62   C     C_1   0.246906 0.404975 0.037448 -0.072130
C63   C     C_1   0.259494 0.929685 0.968065 -0.074353
C64   C     C_1   0.746920 0.904949 0.037455 -0.072195
C65   C     C_1   0.751821 0.416459 0.101880 -0.025075
C66   C     C_1   0.254333 0.397447 0.903897 -0.031827
C67   C     C_1   0.251823 0.916478 0.101885 -0.025123
C68   C     C_1   0.754339 0.897437 0.903901 -0.031800
C69   C     C_R   0.738171 0.362695 0.361725 0.541816
C70   C     C_R   0.274360 0.316522 0.631925 0.536627
C71   C     C_R   0.238170 0.862693 0.361726 0.541814
C72   C     C_R   0.774360 0.816523 0.631925 0.536627
C73   C     C_R   0.722717 0.950171 0.165001 0.523555
C74   C     C_R   0.277353 0.951129 0.835928 0.527061
C75   C     C_R   0.222718 0.450169 0.165001 0.523527
C76   C     C_R   0.777352 0.451125 0.835926 0.527056
C77   C     C_R   0.561063 0.182120 0.136492 0.555086
C78   C     C_R   0.466951 0.179646 0.859644 0.556619
C79   C     C_R   0.061062 0.682120 0.136492 0.555081
C80   C     C_R   0.966955 0.679646 0.859643 0.556614
C81   C     C_R   0.738202 0.366619 0.167487 0.534420
C82   C     C_R   0.262944 0.362544 0.834355 0.543657
C83   C     C_R   0.238202 0.866621 0.167488 0.534454
C84   C     C_R   0.762945 0.862542 0.834357 0.543654
C85   C     C_1   0.455121 0.175795 0.583386 -0.021157
C86   C     C_1   0.504155 0.173079 0.399963 -0.025895
C87   C     C_1   0.955122 0.675794 0.583386 -0.021155
C88   C     C_1   0.004155 0.673079 0.399963 -0.025899
C89   C     C_1   0.485630 0.170659 0.456602 -0.062918
C90   C     C_1   0.468784 0.171807 0.524803 -0.064143
C91   C     C_1   0.985630 0.670658 0.456602 -0.062919
C92   C     C_1   0.968784 0.671807 0.524803 -0.064139
C93   C     C_3   0.708679 0.332025 0.529922 -0.135916
C94   C     C_3   0.316954 0.398941 0.468822 -0.101199
C95   C     C_3   0.208682 0.832015 0.529924 -0.135924
C96   C     C_3   0.816953 0.898958 0.468825 -0.101196
Cr1   Cr    Cr6+3 0.765830 0.160660 0.268180 1.003951
Cr2   Cr    Cr6+3 0.234170 0.160660 0.731820 1.003315
Cr3   Cr    Cr6+3 0.265830 0.660660 0.268180 1.003968
Cr4   Cr    Cr6+3 0.734170 0.660660 0.731820 1.003312
Cr5   Cr    Cr6+3 0.612110 0.009150 0.248770 1.016653
Cr6   Cr    Cr6+3 0.387890 0.009150 0.751230 1.006563
Cr7   Cr    Cr6+3 0.112110 0.509150 0.248770 1.016662
Cr8   Cr    Cr6+3 0.887890 0.509150 0.751230 1.006560
Cr9   Cr    Cr6+3 0.615930 0.324050 0.248450 0.990182
Cr10  Cr    Cr6+3 0.384070 0.324050 0.751550 0.979055
Cr11  Cr    Cr6+3 0.115930 0.824050 0.248450 0.990185
Cr12  Cr    Cr6+3 0.884070 0.824050 0.751550 0.979056
H1    H     H_    0.220069 0.109790 0.537102 0.135046
H2    H     H_    0.690996 0.074569 0.481836 0.100074
H3    H     H_    0.720081 0.609797 0.537104 0.135037
H4    H     H_    0.191005 0.574572 0.481833 0.100073
H5    H     H_    0.825504 0.541730 0.443691 0.112927
H6    H     H_    0.148645 0.365068 0.540583 0.136838
H7    H     H_    0.325496 0.041732 0.443688 0.112926
H8    H     H_    0.648643 0.865050 0.540581 0.136839
O1    O     O_R   0.783230 0.287800 0.346510 -0.520776
O2    O     O_R   0.216770 0.287800 0.653490 -0.516770
O3    O     O_R   0.283230 0.787800 0.346510 -0.520782
O4    O     O_R   0.716770 0.787800 0.653490 -0.516775
O5    O     O_R   0.554500 0.081650 0.170370 -0.506114
O6    O     O_R   0.445500 0.081650 0.829630 -0.501675
O7    O     O_R   0.054500 0.581650 0.170370 -0.506112
O8    O     O_R   0.945500 0.581650 0.829630 -0.501676
O9    O     O_R   0.545430 0.285140 0.163100 -0.528675
O10   O     O_R   0.454570 0.285140 0.836900 -0.526414
O11   O     O_R   0.045430 0.785140 0.163100 -0.528678
O12   O     O_R   0.954570 0.785140 0.836900 -0.526413
O13   O     O_R   0.677850 0.374730 0.185500 -0.514705
O14   O     O_R   0.322150 0.374730 0.814500 -0.509447
O15   O     O_R   0.177850 0.874730 0.185500 -0.514715
O16   O     O_R   0.822150 0.874730 0.814500 -0.509450
O17   O     O_3   0.664630 0.164620 0.255130 -0.273493
O18   O     O_3   0.335370 0.164620 0.744870 -0.301856
O19   O     O_3   0.164630 0.664620 0.255130 -0.273473
O20   O     O_3   0.835370 0.664620 0.744870 -0.301856
O21   O     O_R   0.760130 0.037060 0.338610 -0.511360
O22   O     O_R   0.239870 0.037060 0.661390 -0.519249
O23   O     O_R   0.260130 0.537060 0.338610 -0.511364
O24   O     O_R   0.739870 0.537060 0.661390 -0.519250
O25   O     O_R   0.666620 0.921370 0.332440 -0.514877
O26   O     O_R   0.333380 0.921370 0.667560 -0.527146
O27   O     O_R   0.166620 0.421370 0.332440 -0.514877
O28   O     O_R   0.833380 0.421370 0.667560 -0.527146
O29   O     O_R   0.557170 0.082420 0.312350 -0.484812
O30   O     O_R   0.442830 0.082420 0.687650 -0.487060
O31   O     O_R   0.057170 0.582420 0.312350 -0.484812
O32   O     O_R   0.942830 0.582420 0.687650 -0.487062
O33   O     O_R   0.548310 0.285980 0.316250 -0.526661
O34   O     O_R   0.451690 0.285980 0.683750 -0.511619
O35   O     O_R   0.048310 0.785980 0.316250 -0.526658
O36   O     O_R   0.951690 0.785980 0.683750 -0.511614
O37   O     O_R   0.680520 0.375500 0.327470 -0.513485
O38   O     O_R   0.319480 0.375500 0.672530 -0.525365
O39   O     O_R   0.180520 0.875500 0.327470 -0.513490
O40   O     O_R   0.819480 0.875500 0.672530 -0.525365
O41   O     O_R   0.780350 0.286970 0.193350 -0.506977
O42   O     O_R   0.219650 0.286970 0.806650 -0.497869
O43   O     O_R   0.280350 0.786970 0.193350 -0.506953
O44   O     O_R   0.719650 0.786970 0.806650 -0.497868
O45   O     O_R   0.757460 0.036290 0.196640 -0.504944
O46   O     O_R   0.242540 0.036290 0.803360 -0.497759
O47   O     O_R   0.257460 0.536290 0.196640 -0.504919
O48   O     O_R   0.742540 0.536290 0.803360 -0.497760
O49   O     O_R   0.663740 0.920540 0.179290 -0.514859
O50   O     O_R   0.336260 0.920540 0.820710 -0.514598
O51   O     O_R   0.163740 0.420540 0.179290 -0.514865
O52   O     O_R   0.836260 0.420540 0.820710 -0.514601
H9    H     H_    0.775955 0.203659 0.465582 0.147420
H10   H     H_    0.325904 0.203194 0.512425 0.100489
H11   H     H_    0.275961 0.703658 0.465584 0.147419
H12   H     H_    0.825910 0.703205 0.512421 0.100489
H13   H     H_    0.675548 0.269545 0.554984 0.109035
H14   H     H_    0.364398 0.405839 0.444273 0.117200
H15   H     H_    0.175554 0.769531 0.554988 0.109034
H16   H     H_    0.864398 0.905866 0.444278 0.117199
C97   C     C_3   0.614531 0.468004 0.449199 -0.258877
C98   C     C_3   0.575948 0.527666 0.503642 -0.451105
H17   H     H_    0.569712 0.462903 0.546084 0.165497
H18   H     H_    0.602055 0.610116 0.525279 0.154065
H19   H     H_    0.525713 0.556020 0.478380 0.136004
H20   H     H_    0.616007 0.531895 0.405323 0.155107
H21   H     H_    0.587747 0.384972 0.430174 0.182034
C99   C     C_3   0.338898 0.569324 0.570279 -0.267514
C100  C     C_3   0.399356 0.604915 0.533453 -0.461368
H22   H     H_    0.432888 0.524470 0.531500 0.151600
H23   H     H_    0.383956 0.637124 0.479968 0.160113
H24   H     H_    0.428430 0.676972 0.563207 0.141291
H25   H     H_    0.308370 0.648872 0.582624 0.147297
H26   H     H_    0.361308 0.534771 0.620738 0.193732
C101  C     C_3   0.114526 0.967971 0.449201 -0.258878
C102  C     C_3   0.075947 0.027664 0.503636 -0.451111
H27   H     H_    0.069755 0.962953 0.546113 0.165518
H28   H     H_    0.102034 0.110168 0.525219 0.154039
H29   H     H_    0.025693 0.055932 0.478384 0.136004
H30   H     H_    0.115993 0.031834 0.405312 0.155138
H31   H     H_    0.087744 0.884926 0.430197 0.182016
C103  C     C_3   0.838884 0.069340 0.570287 -0.267512
C104  C     C_3   0.899351 0.104923 0.533473 -0.461363
H32   H     H_    0.932882 0.024474 0.531529 0.151607
H33   H     H_    0.883961 0.137130 0.479986 0.160107
H34   H     H_    0.928422 0.176978 0.563232 0.141293
H35   H     H_    0.808352 0.148890 0.582621 0.147287
H36   H     H_    0.861282 0.034802 0.620753 0.193734
H37   H     H_    0.868338 0.362133 0.543009 0.136570
H38   H     H_    0.192450 0.226861 0.430258 0.124796
H39   H     H_    0.368339 0.862142 0.543009 0.136569
H40   H     H_    0.692459 0.726859 0.430255 0.124796
C105  C     C_3   0.643470 0.269413 0.009352 -0.296611
C106  C     C_3   0.695244 0.173391 0.033758 -0.406523
H41   H     H_    0.689471 0.148590 0.087808 0.166854
H42   H     H_    0.686378 0.095414 0.998879 0.160331
H43   H     H_    0.747684 0.202076 0.030180 0.159099
H44   H     H_    0.651699 0.299806 0.956690 0.156579
H45   H     H_    0.642362 0.346500 0.045281 0.165569
C107  C     C_3   0.383195 0.081405 0.981547 -0.289794
C108  C     C_3   0.336408 0.167034 0.937458 -0.383835
H46   H     H_    0.354755 0.260697 0.942263 0.143128
H47   H     H_    0.335888 0.144921 0.882203 0.196464
H48   H     H_    0.284568 0.163565 0.952644 0.150982
H49   H     H_    0.385987 0.991105 0.956801 0.174406
H50   H     H_    0.366544 0.072112 0.033807 0.152411
C109  C     C_3   0.143465 0.769446 0.009385 -0.296629
C110  C     C_3   0.195246 0.673379 0.033689 -0.406502
H51   H     H_    0.189393 0.648266 0.087668 0.166789
H52   H     H_    0.186470 0.595609 0.998646 0.160308
H53   H     H_    0.247701 0.702158 0.030271 0.159108
H54   H     H_    0.151677 0.800014 0.956757 0.156586
H55   H     H_    0.142357 0.846410 0.045393 0.165609
C111  C     C_3   0.883201 0.581387 0.981542 -0.289792
C112  C     C_3   0.836413 0.667014 0.937452 -0.383830
H56   H     H_    0.854759 0.760677 0.942256 0.143121
H57   H     H_    0.835894 0.644902 0.882197 0.196476
H58   H     H_    0.784572 0.663544 0.952637 0.150976
H59   H     H_    0.885993 0.491087 0.956796 0.174410
H60   H     H_    0.866548 0.572094 0.033800 0.152407
C113  C     C_3   0.520861 0.423022 0.950509 -0.250368
C114  C     C_3   0.454499 0.490536 0.927642 -0.381519
H61   H     H_    0.410172 0.441643 0.942530 0.165266
H62   H     H_    0.455409 0.582266 0.951518 0.116816
H63   H     H_    0.447969 0.503521 0.870666 0.177559
H64   H     H_    0.548644 0.474023 0.993929 0.125835
H65   H     H_    0.552995 0.423319 0.907398 0.151608
C115  C     C_3   0.423551 0.312336 0.076633 -0.245712
C116  C     C_3   0.442135 0.443613 0.096072 -0.390374
H66   H     H_    0.426952 0.464679 0.148073 0.150141
H67   H     H_    0.496951 0.460291 0.097183 0.179494
H68   H     H_    0.414298 0.507601 0.059059 0.130445
H69   H     H_    0.372092 0.313101 0.049556 0.138439
H70   H     H_    0.420149 0.258980 0.124486 0.164786
C117  C     C_3   0.020850 0.923026 0.950514 -0.250372
C118  C     C_3   0.954483 0.990529 0.927654 -0.381527
H71   H     H_    0.910161 0.941629 0.942546 0.165258
H72   H     H_    0.955390 0.082258 0.951531 0.116822
H73   H     H_    0.947946 0.003513 0.870679 0.177568
H74   H     H_    0.048634 0.974026 0.993935 0.125848
H75   H     H_    0.052980 0.923335 0.907400 0.151603
C119  C     C_3   0.923546 0.812312 0.076633 -0.245705
C120  C     C_3   0.942129 0.943584 0.096087 -0.390364
H76   H     H_    0.926955 0.964630 0.148091 0.150150
H77   H     H_    0.996940 0.960276 0.097191 0.179491
H78   H     H_    0.914286 0.007583 0.059090 0.130436
H79   H     H_    0.872090 0.813090 0.049545 0.138446
H80   H     H_    0.920137 0.758940 0.124479 0.164775
H81   H     H_    0.514426 0.966653 0.042763 0.130988
H82   H     H_    0.586282 0.048189 0.932012 0.121343
H83   H     H_    0.014439 0.466649 0.042759 0.130990
H84   H     H_    0.086294 0.548199 0.932015 0.121342

loop_
_geom_bond_atom_site_label_1
_geom_bond_atom_site_label_2
_ccdc_geom_bond_type
C58   C62   S    
Cr9   O37   S    
C50   H82   S    
C116  H67   S    
C67   C83   S    
C72   O40   A    
C7    H11   S    
C17   C29   S    
Cr11  O39   S    
C14   C18   S    
C118  H73   S    
C19   C23   S    
C119  H79   S    
C8    C96   S    
Cr1   O17   S    
C98   H19   S    
C120  H78   S    
C19   C31   S    
C110  H51   S    
C98   H17   S    
C84   O44   A    
C68   C84   S    
C16   C103  S    
C117  C118  S    
C38   C49   S    
C6    C26   S    
C10   C22   S    
C108  H48   S    
C15   C19   S    
C13   C93   S    
C114  H63   S    
Cr5   O29   S    
C4    O28   A    
C105  H45   S    
C57   C61   S    
C115  H70   S    
C113  H64   S    
Cr2   O22   S    
C45   O29   A    
C33   C42   S    
C118  H72   S    
C18   H4    S    
C38   C42   S    
C6    H10   S    
Cr3   O43   S    
C15   C95   S    
C82   O42   A    
C11   C71   S    
C100  H23   S    
Cr8   O52   S    
C43   C79   S    
C97   H20   S    
C78   O10   A    
C107  H49   S    
C7    C27   S    
C99   C100  S    
C112  H56   S    
C75   O47   A    
C11   C23   S    
Cr10  O34   S    
C9    C13   S    
C101  H30   S    
C36   C40   S    
Cr11  O19   S    
Cr4   O24   S    
C59   C67   T    
Cr12  O36   S    
C55   C74   S    
Cr5   O25   S    
C58   C66   T    
C100  H22   S    
C12   C16   S    
C101  H31   S    
C6    C94   S    
C55   C63   T    
C104  H34   S    
C73   O45   A    
Cr8   O28   S    
C111  H60   S    
C103  C104  S    
C18   C30   S    
C47   C88   S    
C36   C119  S    
C82   O14   A    
C96   H16   S    
C115  C116  S    
C40   C44   S    
C27   H39   S    
C4    C29   S    
C8    C12   S    
C46   C85   S    
Cr11  O35   S    
C5    C93   S    
C44   C52   S    
C39   C52   S    
C12   C72   S    
Cr7   O7    S    
C104  H32   S    
Cr6   O50   S    
C70   O38   A    
C87   C92   T    
C37   C41   S    
C39   C109  S    
C26   H38   S    
C34   C41   S    
C53   C61   T    
C25   H37   S    
C17   H3    S    
C77   O9    A    
Cr1   O21   S    
Cr2   O46   S    
C7    C11   S    
C47   O31   A    
C23   C27   S    
C19   H1    S    
C25   C29   S    
C85   C90   T    
C114  H62   S    
C16   C96   S    
C81   O41   A    
C115  H69   S    
C113  H65   S    
C27   C31   S    
C101  C102  S    
C2    O22   A    
C102  H29   S    
Cr2   O42   S    
C28   C32   S    
C3    O27   A    
C107  C108  S    
C109  C110  S    
C21   H5    S    
C21   C25   S    
C10   C14   S    
C38   C107  S    
C91   C92   S    
C74   O46   A    
C77   O5    A    
C29   C93   S    
C109  H54   S    
C34   C38   S    
C100  H24   S    
C39   C43   S    
C80   O12   A    
C6    C10   S    
Cr10  O38   S    
C108  H46   S    
C97   H21   S    
C34   C115  S    
C84   O16   A    
C1    C32   S    
Cr5   O5    S    
C119  C120  S    
C51   C52   S    
C51   H83   S    
C2    C31   S    
C35   C36   S    
Cr1   O41   S    
C3    C30   S    
C35   C39   S    
Cr9   O9    S    
Cr6   O18   S    
C106  H43   S    
C5    C9    S    
C109  H55   S    
C4    O24   A    
C111  C112  S    
Cr4   O44   S    
C65   C81   S    
Cr12  O40   S    
C88   C91   T    
C44   C80   S    
C16   C20   S    
C71   O39   A    
Cr5   O17   S    
C72   O4    A    
C35   C117  S    
C105  C106  S    
C48   C87   S    
Cr3   O19   S    
C111  H59   S    
Cr4   O48   S    
Cr7   O51   S    
Cr12  O12   S    
Cr5   O49   S    
C35   C44   S    
C37   C105  S    
Cr3   O23   S    
C94   H14   S    
C33   C113  S    
Cr3   O47   S    
C10   C70   S    
C73   O49   A    
C46   O34   A    
C42   C50   S    
C24   H8    S    
C11   C15   S    
C112  H57   S    
C103  H36   S    
C81   O13   A    
C8    C28   S    
C20   H2    S    
C59   C63   S    
C76   O48   A    
C53   C76   S    
C3    O23   A    
C40   C111  S    
C120  H76   S    
C40   C51   S    
C110  H53   S    
C74   O50   A    
C79   O11   A    
C1    O21   A    
Cr9   O17   S    
C20   C32   S    
Cr9   O33   S    
Cr10  O14   S    
Cr10  O10   S    
C114  H61   S    
C99   H26   S    
C56   C73   S    
Cr8   O20   S    
C32   C96   S    
C18   C22   S    
Cr7   O27   S    
C97   C98   S    
C119  H80   S    
C24   C28   S    
C57   C65   T    
C120  H77   S    
C86   C89   T    
C110  H52   S    
Cr2   O18   S    
C5    C25   S    
C98   H18   S    
C7    C95   S    
C42   C78   S    
C80   O8    A    
C71   O3    A    
C108  H47   S    
C41   C49   S    
C54   C62   T    
C15   C101  S    
C12   C24   S    
C22   H6    S    
C106  H42   S    
C105  H44   S    
Cr12  O20   S    
C13   C17   S    
Cr7   O19   S    
C60   C64   S    
C45   C86   S    
C102  H27   S    
C9    C69   S    
Cr11  O15   S    
C48   O36   A    
C83   O15   A    
C89   C90   S    
Cr11  O11   S    
Cr8   O32   S    
C52   H84   S    
Cr6   O6    S    
C95   H15   S    
C117  H75   S    
C66   C82   S    
C41   C77   S    
C37   C50   S    
C69   O1    A    
C9    C21   S    
C117  H74   S    
C46   O30   A    
C70   O2    A    
C79   O7    A    
C43   C51   S    
C2    O26   A    
C113  C114  S    
C48   O32   A    
Cr2   O2    S    
C93   H13   S    
C49   H81   S    
C56   C64   T    
C13   C97   S    
C33   C34   S    
C33   C37   S    
C76   O52   A    
C112  H58   S    
C45   O33   A    
C106  H41   S    
Cr1   O1    S    
Cr4   O4    S    
C78   O6    A    
C107  H50   S    
Cr12  O16   S    
Cr9   O13   S    
C1    O25   A    
C31   C95   S    
C47   O35   A    
C14   C99   S    
C23   H7    S    
C54   C75   S    
C14   C94   S    
C8    H12   S    
Cr10  O18   S    
C83   O43   A    
C60   C68   T    
C28   H40   S    
C30   C94   S    
C49   C50   S    
C22   C26   S    
C116  H68   S    
C69   O37   A    
C103  H35   S    
C104  H33   S    
C5    H9    S    
C99   H25   S    
C118  H71   S    
C36   C43   S    
C75   O51   A    
Cr6   O26   S    
Cr3   O3    S    
Cr8   O8    S    
C116  H66   S    
C20   C24   S    
Cr6   O30   S    
Cr4   O20   S    
Cr1   O45   S    
C102  H28   S    
Cr7   O31   S    
C26   C30   S    
C17   C21   S    
