data_mof_unit_62822.cif
_audit_creation_date              2012-12-10T19:07:51-0500
_audit_creation_method            fapswitch 2.2
_symmetry_space_group_name_H-M    P1
_symmetry_Int_Tables_number       1
_space_group_crystal_system       triclinic
_cell_length_a                    25.629267
_cell_length_b                    34.530212
_cell_length_c                    21.427848
_cell_angle_alpha                 90.000053
_cell_angle_beta                  126.115663
_cell_angle_gamma                 89.99995
_cell_volume                      15319.102115

loop_
_atom_site_label
_atom_site_type_symbol
_atom_type_description
_atom_site_fract_x
_atom_site_fract_y
_atom_site_fract_z
_atom_type_partial_charge
C1    C     C_R   0.141341 0.249926 0.999735 0.935798
C2    C     C_3   0.733154 0.240616 0.929931 0.569920
C3    C     C_R   0.035293 0.918132 0.979531 0.489593
C4    C     C_R   0.478483 0.581948 0.932032 0.487830
C5    C     C_R   0.464718 0.418132 0.020484 0.489590
C6    C     C_R   0.521517 0.581948 0.067968 0.487829
C7    C     C_R   0.535282 0.418132 0.979516 0.489590
C8    C     C_R   1.000000 0.102399 1.000000 -0.496066
C9    C     C_R   1.000000 0.897654 0.000000 -0.516673
C10   C     C_R   0.500000 0.602399 1.000000 -0.496059
C11   C     C_R   0.500000 0.397654 0.000000 -0.516676
C12   C     C_R   1.000000 0.021283 1.000000 -0.237109
C13   C     C_3   0.733128 0.759440 0.929891 0.575320
C14   C     C_R   1.000000 0.978796 1.000000 -0.242426
C15   C     C_R   0.500000 0.521283 1.000000 -0.237117
C16   C     C_R   0.500000 0.478796 0.000000 -0.242424
C17   C     C_R   1.000000 0.144829 1.000000 0.989522
C18   C     C_R   1.000000 0.855190 0.000000 0.987568
C19   C     C_R   0.500000 0.644829 1.000000 0.989530
C20   C     C_R   0.500000 0.355190 0.000000 0.987550
C21   C     C_R   1.000000 0.355087 0.000000 0.993024
C22   C     C_R   1.000000 0.644898 0.000001 0.989386
C23   C     C_R   0.500000 0.855086 1.000000 0.993229
C24   C     C_3   0.266846 0.240619 0.070071 0.569924
C25   C     C_R   0.500000 0.144897 1.000000 0.989244
C26   C     C_R   0.054418 0.458373 0.017232 0.616045
C27   C     C_R   0.953466 0.541563 0.932716 0.610059
C28   C     C_R   0.945578 0.458371 0.982781 0.616058
C29   C     C_R   0.046526 0.541564 0.067300 0.610067
C30   C     C_R   0.554365 0.958367 0.017044 0.616104
C31   C     C_R   0.453401 0.041559 0.932745 0.610041
C32   C     C_R   0.445639 0.958369 0.982944 0.616076
C33   C     C_R   0.546607 0.041558 0.067245 0.610013
C34   C     C_R   0.054599 0.418033 0.017613 0.499158
C35   C     C_3   0.766871 0.259441 0.070108 0.575313
C36   C     C_R   0.953222 0.581903 0.932732 0.502228
C37   C     C_R   0.945399 0.418031 0.982394 0.499150
C38   C     C_R   0.046773 0.581904 0.067280 0.502232
C39   C     C_R   0.554546 0.918027 0.017433 0.499112
C40   C     C_R   0.453156 0.081899 0.932763 0.502274
C41   C     C_R   0.445456 0.918029 0.982560 0.499118
C42   C     C_R   0.546848 0.081898 0.067230 0.502278
C43   C     C_R   0.999999 0.397556 0.000002 -0.494422
C44   C     C_R   0.999999 0.602401 0.000005 -0.526433
C45   C     C_R   0.500001 0.897553 0.999999 -0.494284
C46   C     C_3   0.233154 0.740617 0.929930 0.569925
C47   C     C_R   0.500001 0.102398 0.999998 -0.526439
C48   C     C_R   0.999997 0.478716 0.000008 -0.239354
C49   C     C_R   0.999996 0.521221 0.000008 -0.245912
C50   C     C_R   0.500003 0.978712 0.999995 -0.239299
C51   C     C_R   0.500004 0.021216 0.999994 -0.245871
C52   C     C_3   0.776820 0.285356 0.019333 -0.233197
C53   C     C_3   0.223208 0.714700 0.980700 -0.209024
C54   C     C_3   0.223176 0.285355 0.980660 -0.233189
C55   C     C_3   0.776792 0.714700 0.019300 -0.209025
C56   C     C_3   0.276821 0.785356 0.019335 -0.233301
C57   C     C_3   0.233128 0.259438 0.929890 0.575315
C58   C     C_3   0.723209 0.214700 0.980702 -0.209039
C59   C     C_3   0.723179 0.785356 0.980665 -0.233310
C60   C     C_3   0.276794 0.214701 0.019305 -0.209041
C61   C     C_3   0.807273 0.325411 0.041391 -0.524199
C62   C     C_3   0.192759 0.674649 0.958584 -0.587880
C63   C     C_3   0.192718 0.325409 0.958593 -0.524224
C64   C     C_3   0.807241 0.674649 0.041416 -0.587881
C65   C     C_3   0.307276 0.825410 0.041396 -0.523977
C66   C     C_3   0.692761 0.174648 0.958588 -0.587841
C67   C     C_3   0.692724 0.825410 0.958604 -0.523957
C68   C     C_3   0.766846 0.740617 0.070069 0.569924
C69   C     C_3   0.307246 0.174651 0.041427 -0.587848
C70   C     C_3   0.138737 0.174885 0.294435 -0.598399
C71   C     C_3   0.862206 0.824776 0.704637 -0.671226
C72   C     C_3   0.861263 0.174885 0.705564 -0.598397
C73   C     C_3   0.137794 0.824776 0.295363 -0.671228
C74   C     C_3   0.638738 0.674885 0.294435 -0.598390
C75   C     C_3   0.362207 0.324776 0.704637 -0.671218
C76   C     C_3   0.361262 0.674885 0.705564 -0.598390
C77   C     C_3   0.637793 0.324776 0.295363 -0.671216
C78   C     C_3   0.168896 0.185467 0.449896 -0.609560
C79   C     C_3   0.198011 0.750133 0.999199 -0.396266
C80   C     C_3   0.831453 0.813481 0.549014 -0.616945
C81   C     C_3   0.831104 0.185467 0.550104 -0.609560
C82   C     C_3   0.168546 0.813482 0.450986 -0.616943
C83   C     C_3   0.668897 0.685467 0.449896 -0.609559
C84   C     C_3   0.331454 0.313481 0.549014 -0.616922
C85   C     C_3   0.331103 0.685467 0.550104 -0.609558
C86   C     C_3   0.668546 0.313481 0.450986 -0.616924
C87   C     C_3   0.802014 0.249917 0.000841 -0.397128
C88   C     C_3   0.801989 0.750133 0.000801 -0.396262
C89   C     C_R   0.858646 0.750090 0.000244 0.938081
C90   C     C_3   0.197986 0.249917 0.999159 -0.397128
C91   C     C_3   0.698011 0.250133 0.999199 -0.396280
C92   C     C_3   0.302014 0.749917 0.000841 -0.397126
C93   C     C_3   0.301989 0.250133 0.000801 -0.396281
C94   C     C_3   0.697986 0.749917 0.999159 -0.397127
C95   C     C_3   0.207838 0.775977 0.948351 0.631043
C96   C     C_3   0.792186 0.224079 0.051689 0.622367
C97   C     C_3   0.792161 0.775977 0.051648 0.631041
C98   C     C_3   0.207816 0.224076 0.948316 0.622367
C99   C     C_3   0.707837 0.275976 0.948350 0.631047
C100  C     C_R   0.858658 0.249926 0.000265 0.935801
C101  C     C_3   0.292186 0.724078 0.051688 0.622365
C102  C     C_3   0.292160 0.275979 0.051645 0.631049
C103  C     C_3   0.707814 0.724078 0.948312 0.622366
C104  C     C_R   0.198184 0.284255 0.414370 0.526166
C105  C     C_R   0.801697 0.715065 0.585971 0.523277
C106  C     C_R   0.801816 0.284255 0.585630 0.526165
C107  C     C_R   0.198303 0.715065 0.414029 0.523276
C108  C     C_R   0.698184 0.784255 0.414370 0.526170
C109  C     C_R   0.301697 0.215065 0.585971 0.523281
C110  C     C_R   0.301816 0.784255 0.585630 0.526168
C111  C     C_R   0.141353 0.750090 0.999756 0.938081
C112  C     C_R   0.698303 0.215065 0.414029 0.523281
C113  C     C_R   0.162486 0.283830 0.334311 0.547409
C114  C     C_R   0.837394 0.715760 0.666026 0.551964
C115  C     C_R   0.837514 0.283830 0.665689 0.547409
C116  C     C_R   0.162606 0.715760 0.333974 0.551967
C117  C     C_R   0.662485 0.783830 0.334311 0.547396
C118  C     C_R   0.337394 0.215760 0.666026 0.551955
C119  C     C_R   0.337514 0.783830 0.665689 0.547400
C120  C     C_R   0.662606 0.215760 0.333974 0.551953
C121  C     C_R   0.145845 0.248647 0.294713 -0.279185
C122  C     C_R   0.641341 0.749926 0.999735 0.935818
C123  C     C_R   0.854375 0.751083 0.705239 -0.288050
C124  C     C_R   0.854155 0.248647 0.705287 -0.279187
C125  C     C_R   0.145625 0.751083 0.294761 -0.288051
C126  C     C_R   0.645845 0.748647 0.294713 -0.279182
C127  C     C_R   0.354375 0.251083 0.705239 -0.288030
C128  C     C_R   0.354155 0.748648 0.705287 -0.279184
C129  C     C_R   0.645625 0.251083 0.294761 -0.288030
C130  C     C_R   0.159077 0.213555 0.335777 -0.000190
C131  C     C_R   0.841527 0.785988 0.663769 0.035998
C132  C     C_R   0.840923 0.213555 0.664223 -0.000190
C133  C     C_R   0.358646 0.250090 0.000244 0.938072
C134  C     C_R   0.158473 0.785988 0.336231 0.035998
C135  C     C_R   0.659078 0.713555 0.335777 -0.000196
C136  C     C_R   0.341527 0.285988 0.663769 0.035993
C137  C     C_R   0.340922 0.713555 0.664223 -0.000196
C138  C     C_R   0.658473 0.285988 0.336231 0.035993
C139  C     C_R   0.189660 0.215043 0.416161 0.165482
C140  C     C_R   0.810865 0.784182 0.583391 0.167776
C141  C     C_R   0.810341 0.215043 0.583839 0.165482
C142  C     C_R   0.189135 0.784182 0.416609 0.167775
C143  C     C_R   0.689660 0.715043 0.416161 0.165484
C144  C     C_R   0.358658 0.749926 0.000265 0.935817
C145  C     C_R   0.310865 0.284182 0.583391 0.167762
C146  C     C_R   0.310340 0.715044 0.583839 0.165484
C147  C     C_R   0.689134 0.284182 0.416609 0.167762
C148  C     C_R   0.222555 0.249495 0.457179 -0.102217
C149  C     C_R   0.777634 0.749722 0.542768 -0.108223
C150  C     C_R   0.777445 0.249495 0.542821 -0.102217
C151  C     C_R   0.222366 0.749722 0.457232 -0.108224
C152  C     C_R   0.722555 0.749495 0.457179 -0.102214
C153  C     C_R   0.277634 0.249722 0.542768 -0.108217
C154  C     C_R   0.277445 0.749495 0.542821 -0.102214
C155  C     C_R   0.641353 0.250090 0.999756 0.938075
C156  C     C_R   0.722366 0.249722 0.457232 -0.108217
C157  C     C_R   0.978184 0.041618 0.932003 0.611567
C158  C     C_R   0.964471 0.958461 0.020044 0.608153
C159  C     C_R   0.021815 0.041618 0.067996 0.611566
C160  C     C_R   0.035528 0.958461 0.979956 0.608151
C161  C     C_R   0.478176 0.541618 0.932001 0.611568
C162  C     C_R   0.464482 0.458462 0.020060 0.608146
C163  C     C_R   0.521824 0.541618 0.067999 0.611568
C164  C     C_R   0.535518 0.458462 0.979940 0.608144
C165  C     C_R   0.894624 0.249317 0.789938 0.913753
C166  C     C_3   0.266872 0.759440 0.070108 0.575320
C167  C     C_R   0.105347 0.750645 0.210083 0.917146
C168  C     C_R   0.105376 0.249317 0.210062 0.913752
C169  C     C_R   0.894653 0.750645 0.789917 0.917145
C170  C     C_R   0.394624 0.749317 0.789938 0.913766
C171  C     C_R   0.605347 0.250645 0.210083 0.917123
C172  C     C_R   0.605376 0.749317 0.210062 0.913764
C173  C     C_R   0.394652 0.250645 0.789917 0.917123
C174  C     C_R   0.978491 0.081947 0.932034 0.487839
C175  C     C_R   0.964707 0.918132 0.020469 0.489593
C176  C     C_R   0.021509 0.081948 0.067965 0.487839
F1    F     F_    0.106879 0.477640 0.032216 -0.529042
F2    F     F_    0.928581 0.977725 0.037768 -0.529208
F3    F     F_    0.044554 0.022357 0.134735 -0.537665
F4    F     F_    0.071419 0.977725 0.962231 -0.529208
F5    F     F_    0.455428 0.522357 0.865259 -0.537663
F6    F     F_    0.428602 0.477725 0.037799 -0.529214
F7    F     F_    0.544572 0.522357 0.134741 -0.537663
F8    F     F_    0.571398 0.477725 0.962201 -0.529213
F9    F     F_    0.956125 0.100940 0.865133 -0.572738
F10   F     F_    0.929057 0.899181 0.038907 -0.540200
F11   F     F_    0.043876 0.100940 0.134866 -0.572739
F12   F     F_    0.909049 0.522295 0.866596 -0.521590
F13   F     F_    0.070943 0.899181 0.961093 -0.540201
F14   F     F_    0.456109 0.600941 0.865129 -0.572748
F15   F     F_    0.429078 0.399181 0.038938 -0.540195
F16   F     F_    0.543891 0.600941 0.134871 -0.572748
F17   F     F_    0.570922 0.399181 0.961062 -0.540198
F18   F     F_    0.107474 0.399061 0.033138 -0.558265
F19   F     F_    0.908304 0.600840 0.866388 -0.517206
F20   F     F_    0.892525 0.399057 0.966868 -0.558273
F21   F     F_    0.091691 0.600842 0.133622 -0.517205
F22   F     F_    0.607357 0.899050 0.032780 -0.558453
F23   F     F_    0.893115 0.477636 0.967797 -0.529037
F24   F     F_    0.408164 0.100834 0.866455 -0.517193
F25   F     F_    0.392640 0.899054 0.967203 -0.558442
F26   F     F_    0.591838 0.100833 0.133540 -0.517195
F27   F     F_    0.283705 0.769010 0.142487 -0.587399
F28   F     F_    0.716321 0.231046 0.857552 -0.588805
F29   F     F_    0.716295 0.769010 0.857513 -0.587397
F30   F     F_    0.283681 0.231053 0.142452 -0.588803
F31   F     F_    0.783704 0.269012 0.142486 -0.587397
F32   F     F_    0.216321 0.731048 0.857551 -0.588811
F33   F     F_    0.216293 0.269005 0.857510 -0.587396
F34   F     F_    0.090941 0.522297 0.133421 -0.521590
F35   F     F_    0.783680 0.731048 0.142449 -0.588811
F36   F     F_    0.163925 0.802647 0.894654 -0.549981
F37   F     F_    0.836098 0.197410 0.105394 -0.562618
F38   F     F_    0.836075 0.802647 0.105346 -0.549980
F39   F     F_    0.163907 0.197405 0.894616 -0.562616
F40   F     F_    0.663923 0.302645 0.894650 -0.549971
F41   F     F_    0.336096 0.697408 0.105391 -0.562631
F42   F     F_    0.336071 0.302651 0.105339 -0.549966
F43   F     F_    0.663904 0.697408 0.894609 -0.562630
F44   F     F_    0.202822 0.318371 0.448541 -0.599295
F45   F     F_    0.606764 0.977632 0.031842 -0.529093
F46   F     F_    0.797011 0.680776 0.552297 -0.595570
F47   F     F_    0.797178 0.318371 0.551459 -0.599295
F48   F     F_    0.202989 0.680776 0.447702 -0.595569
F49   F     F_    0.702821 0.818370 0.448542 -0.599299
F50   F     F_    0.297011 0.180776 0.552297 -0.595583
F51   F     F_    0.297178 0.818371 0.551459 -0.599298
F52   F     F_    0.702989 0.180776 0.447702 -0.595583
F53   F     F_    0.141509 0.317909 0.295142 -0.571675
F54   F     F_    0.858068 0.681779 0.705575 -0.547820
F55   F     F_    0.858491 0.317908 0.704859 -0.571677
F56   F     F_    0.408908 0.022290 0.866662 -0.521607
F57   F     F_    0.141931 0.681779 0.294425 -0.547816
F58   F     F_    0.641508 0.817908 0.295142 -0.571698
F59   F     F_    0.358068 0.181779 0.705574 -0.547874
F60   F     F_    0.358492 0.817908 0.704859 -0.571695
F61   F     F_    0.641932 0.181779 0.294425 -0.547877
F62   F     F_    0.393236 0.977635 0.968130 -0.529088
F63   F     F_    0.591102 0.022289 0.133326 -0.521619
F64   F     F_    0.955445 0.022357 0.865264 -0.537665
H1    H     H_    0.778808 0.344863 0.052026 0.269369
H2    H     H_    0.778781 0.655218 0.052095 0.266009
H3    H     H_    0.807851 0.662626 0.993822 0.257473
H4    H     H_    0.857476 0.676632 0.094606 0.232347
H5    H     H_    0.278811 0.844862 0.052032 0.269359
H6    H     H_    0.357508 0.823440 0.094594 0.226675
H7    H     H_    0.307906 0.837409 0.993797 0.275915
H8    H     H_    0.721222 0.155217 0.947910 0.266011
H9    H     H_    0.692152 0.162626 0.006183 0.257494
H10   H     H_    0.642526 0.176630 0.905399 0.232331
H11   H     H_    0.721188 0.844863 0.947967 0.269358
H12   H     H_    0.857505 0.323441 0.094590 0.226658
H13   H     H_    0.642492 0.823439 0.905406 0.226676
H14   H     H_    0.692094 0.837408 0.006203 0.275919
H15   H     H_    0.278788 0.155220 0.052109 0.266011
H16   H     H_    0.307858 0.162626 0.993834 0.257492
H17   H     H_    0.357481 0.176635 0.094616 0.232332
H18   H     H_    0.148735 0.173997 0.250583 0.229566
H19   H     H_    0.166290 0.150573 0.334713 0.248102
H20   H     H_    0.086487 0.169968 0.266075 0.273283
H21   H     H_    0.852058 0.826080 0.748331 0.224433
H22   H     H_    0.914533 0.829418 0.733088 0.266717
H23   H     H_    0.807903 0.337408 0.993792 0.275894
H24   H     H_    0.834988 0.849044 0.664070 0.248547
H25   H     H_    0.851265 0.173997 0.749417 0.229567
H26   H     H_    0.833710 0.150573 0.665286 0.248102
H27   H     H_    0.913513 0.169968 0.733925 0.273282
H28   H     H_    0.147942 0.826080 0.251669 0.224433
H29   H     H_    0.085467 0.829418 0.266912 0.266717
H30   H     H_    0.165012 0.849044 0.335930 0.248548
H31   H     H_    0.648735 0.673997 0.250582 0.229570
H32   H     H_    0.666291 0.650573 0.334713 0.248105
H33   H     H_    0.586487 0.669968 0.266074 0.273279
H34   H     H_    0.221219 0.655218 0.947905 0.266009
H35   H     H_    0.352058 0.326080 0.748331 0.224430
H36   H     H_    0.414533 0.329418 0.733089 0.266722
H37   H     H_    0.334988 0.349044 0.664070 0.248548
H38   H     H_    0.351265 0.673997 0.749417 0.229570
H39   H     H_    0.333710 0.650573 0.665287 0.248106
H40   H     H_    0.413513 0.669968 0.733925 0.273279
H41   H     H_    0.647942 0.326080 0.251670 0.224431
H42   H     H_    0.585466 0.329417 0.266912 0.266722
H43   H     H_    0.665011 0.349044 0.335931 0.248547
H44   H     H_    0.191235 0.156807 0.456700 0.288396
H45   H     H_    0.192149 0.662626 0.006178 0.257473
H46   H     H_    0.179958 0.195059 0.505932 0.235388
H47   H     H_    0.115611 0.181814 0.410521 0.224361
H48   H     H_    0.820058 0.803656 0.492938 0.233810
H49   H     H_    0.809251 0.842215 0.541991 0.286769
H50   H     H_    0.884760 0.817071 0.588081 0.225260
H51   H     H_    0.808766 0.156807 0.543300 0.288396
H52   H     H_    0.820042 0.195060 0.494068 0.235387
H53   H     H_    0.884389 0.181815 0.589479 0.224360
H54   H     H_    0.179942 0.803656 0.507062 0.233810
H55   H     H_    0.190748 0.842215 0.458008 0.286770
H56   H     H_    0.142524 0.676632 0.905394 0.232347
H57   H     H_    0.115240 0.817071 0.411919 0.225260
H58   H     H_    0.691236 0.656807 0.456700 0.288399
H59   H     H_    0.679959 0.695059 0.505932 0.235386
H60   H     H_    0.615612 0.681814 0.410521 0.224359
H61   H     H_    0.320058 0.303656 0.492938 0.233813
H62   H     H_    0.309252 0.342215 0.541992 0.286772
H63   H     H_    0.384760 0.317071 0.588081 0.225261
H64   H     H_    0.308765 0.656807 0.543299 0.288399
H65   H     H_    0.320041 0.695059 0.494068 0.235385
H66   H     H_    0.384388 0.681814 0.589479 0.224359
H67   H     H_    0.221181 0.344860 0.947954 0.269369
H68   H     H_    0.679941 0.303656 0.507062 0.233813
H69   H     H_    0.690747 0.342215 0.458008 0.286772
H70   H     H_    0.615239 0.317070 0.411919 0.225261
H71   H     H_    0.142487 0.323436 0.905396 0.226657
H72   H     H_    0.192088 0.337408 0.006191 0.275891
O1    O     O_3   0.000000 0.250010 0.000000 -0.574008
O2    O     O_R   0.359980 0.227250 0.954550 -0.620743
O3    O     O_R   0.359980 0.772750 0.954550 -0.610312
O4    O     O_R   0.640020 0.227250 0.045450 -0.620749
O5    O     O_R   0.944020 0.227270 0.826530 -0.645195
O6    O     O_R   0.055980 0.772730 0.173470 -0.651604
O7    O     O_R   0.055980 0.227270 0.173470 -0.645194
O8    O     O_R   0.944020 0.772730 0.826530 -0.651604
O9    O     O_R   0.444020 0.727270 0.826530 -0.645190
O10   O     O_R   0.555980 0.272730 0.173470 -0.651605
O11   O     O_R   0.555980 0.727270 0.173470 -0.645190
O12   O     O_3   1.000000 0.749990 0.000000 -0.574799
O13   O     O_R   0.444020 0.272730 0.826530 -0.651604
O14   O     O_R   0.008020 0.163280 0.954510 -0.592916
O15   O     O_R   0.991980 0.836720 0.045490 -0.591835
O16   O     O_R   0.991980 0.163280 0.045490 -0.592918
O17   O     O_R   0.008020 0.836720 0.954510 -0.591835
O18   O     O_R   0.508020 0.663280 0.954510 -0.592925
O19   O     O_R   0.491980 0.336720 0.045490 -0.591826
O20   O     O_R   0.491980 0.663280 0.045490 -0.592925
O21   O     O_R   0.508020 0.336720 0.954510 -0.591826
O22   O     O_R   0.053480 0.336740 0.045470 -0.582071
O23   O     O_3   0.500000 0.750010 0.000000 -0.573994
O24   O     O_R   0.946520 0.663260 0.954530 -0.583731
O25   O     O_R   0.946520 0.336740 0.954530 -0.582071
O26   O     O_R   0.053480 0.663260 0.045470 -0.583735
O27   O     O_R   0.553480 0.836740 0.045470 -0.582161
O28   O     O_R   0.446520 0.163260 0.954530 -0.583668
O29   O     O_R   0.446520 0.836740 0.954530 -0.582157
O30   O     O_R   0.553480 0.163260 0.045470 -0.583670
O31   O     O_R   0.882520 0.272750 0.826550 -0.577599
O32   O     O_R   0.117480 0.727250 0.173450 -0.567901
O33   O     O_R   0.117480 0.272750 0.173450 -0.577598
O34   O     O_3   0.500000 0.249990 0.000000 -0.574808
O35   O     O_R   0.882520 0.727250 0.826550 -0.567901
O36   O     O_R   0.382520 0.772750 0.826550 -0.577625
O37   O     O_R   0.617480 0.227250 0.173450 -0.567899
O38   O     O_R   0.617480 0.772750 0.173450 -0.577627
O39   O     O_R   0.382520 0.227250 0.826550 -0.567898
O40   O     O_R   0.094550 0.227270 0.954490 -0.599063
O41   O     O_R   0.905450 0.772730 0.045510 -0.587612
O42   O     O_R   0.905450 0.227270 0.045510 -0.599063
O43   O     O_R   0.094550 0.772730 0.954490 -0.587612
O44   O     O_R   0.594550 0.727270 0.954490 -0.599062
O45   O     O_R   0.140020 0.272750 0.045450 -0.610302
O46   O     O_R   0.405450 0.272730 0.045510 -0.587618
O47   O     O_R   0.405450 0.727270 0.045510 -0.599063
O48   O     O_R   0.594550 0.272730 0.954490 -0.587616
O49   O     O_R   0.859980 0.727250 0.954550 -0.620768
O50   O     O_R   0.859980 0.272750 0.954550 -0.610306
O51   O     O_R   0.140020 0.727250 0.045450 -0.620768
O52   O     O_R   0.640020 0.772750 0.045450 -0.610311
Zn1   Zn    Zn3+2 0.923580 0.282490 0.935040 1.086807
Zn2   Zn    Zn3+2 0.988550 0.782480 0.064990 1.054096
Zn3   Zn    Zn3+2 0.988550 0.217520 0.064990 1.050116
Zn4   Zn    Zn3+2 0.011450 0.782480 0.935010 1.054096
Zn5   Zn    Zn3+2 0.511450 0.717520 0.935010 1.050127
Zn6   Zn    Zn3+2 0.488550 0.282480 0.064990 1.054085
Zn7   Zn    Zn3+2 0.488550 0.717520 0.064990 1.050125
Zn8   Zn    Zn3+2 0.511450 0.282480 0.935010 1.054086
Zn9   Zn    Zn3+2 0.076420 0.717510 0.064960 1.085689
Zn10  Zn    Zn3+2 0.076420 0.282490 0.064960 1.086809
Zn11  Zn    Zn3+2 0.923580 0.717510 0.935040 1.085689
Zn12  Zn    Zn3+2 0.423580 0.782490 0.935040 1.086792
Zn13  Zn    Zn3+2 0.576420 0.217510 0.064960 1.085700
Zn14  Zn    Zn3+2 0.576420 0.782490 0.064960 1.086790
Zn15  Zn    Zn3+2 0.423580 0.217510 0.935040 1.085704
Zn16  Zn    Zn3+2 0.011450 0.217520 0.935010 1.050115

loop_
_geom_bond_atom_site_label_1
_geom_bond_atom_site_label_2
_ccdc_geom_bond_type
C112  F52   S    
C86   C147  S    
C29   F34   S    
C66   H8    S    
C84   C145  S    
O28   Zn15  S    
C85   H66   S    
O2    Zn15  S    
C14   C158  A    
C95   F36   S    
C15   C163  A    
C60   C98   S    
C52   C61   S    
C3    F13   S    
C172  O38   A    
C54   C63   S    
C105  F46   S    
O20   Zn7   S    
C55   C88   S    
C131  C140  A    
C19   O18   A    
O52   Zn14  S    
C116  F57   S    
C62   H56   S    
C77   H42   S    
C13   C103  S    
C58   C91   S    
C88   C97   S    
C120  F61   S    
C123  C131  A    
C60   C93   S    
C34   F18   S    
C86   H68   S    
C133  O2    A    
C109  C118  A    
C72   C132  S    
C61   H1    S    
C57   F33   S    
C11   C20   S    
C76   H40   S    
C163  F7    S    
C155  O48   A    
C127  C136  A    
C82   H54   S    
C89   O49   A    
C112  C120  A    
C74   H32   S    
C75   C136  S    
C16   C162  A    
C142  C151  A    
O47   Zn7   S    
O6    Zn2   S    
C111  O43   A    
C72   H26   S    
C61   H23   S    
C23   O27   A    
C20   O21   A    
C84   H62   S    
C94   C122  S    
C70   H19   S    
C39   F22   S    
C75   H37   S    
C97   F38   S    
C36   C44   A    
C148  C153  S    
C71   H24   S    
C121  C168  S    
O42   Zn3   S    
C144  O47   A    
C75   H35   S    
C15   C161  A    
O37   Zn13  S    
C24   C90   S    
C21   O22   A    
C25   O28   A    
C107  F48   S    
C8    C17   S    
C106  C115  A    
C82   H55   S    
C122  O44   A    
C158  F2    S    
C17   O14   A    
O12   Zn11  S    
C175  F10   S    
C83   C143  S    
O41   Zn2   S    
C80   H50   S    
C61   H12   S    
O43   Zn4   S    
C46   C53   S    
C12   C159  A    
C101  C166  S    
C81   H52   S    
C126  C172  S    
C173  O39   A    
C83   H58   S    
C46   C92   S    
C6    C163  A    
C108  F49   S    
C41   C45   A    
C4    C161  A    
O32   Zn9   S    
C176  F11   S    
C56   C95   S    
C65   H6    S    
C66   H10   S    
C106  C150  A    
C121  C130  A    
C78   C139  S    
C64   H3    S    
C29   C49   A    
C35   C96   S    
C16   C164  A    
C46   F32   S    
C171  O10   A    
C33   F63   S    
C33   C42   A    
C54   C90   S    
C93   C133  S    
O12   Zn9   S    
C8    C174  A    
O8    Zn4   S    
C124  C132  A    
C114  F54   S    
C62   H34   S    
O11   Zn7   S    
C160  F4    S    
C172  O11   A    
C59   C67   S    
O48   Zn8   S    
C118  F59   S    
O1    Zn1   S    
C29   C38   A    
C32   C41   A    
O34   Zn8   S    
O21   Zn8   S    
C157  C174  A    
C39   C45   A    
C107  C151  A    
C71   H22   S    
C135  C143  A    
C87   C96   S    
C1    O40   A    
C25   O30   A    
C141  C150  A    
C155  O4    A    
C139  C148  A    
C80   H48   S    
C28   F23   S    
C119  C128  A    
C120  C129  A    
C4    F14   S    
C5    F15   S    
C17   O16   A    
C68   C94   S    
O29   Zn12  S    
C3    C9    A    
C73   H28   S    
C168  O33   A    
C157  F64   S    
C106  F47   S    
O23   Zn12  S    
C2    C87   S    
O19   Zn6   S    
O33   Zn10  S    
C114  C123  A    
C2    C99   S    
C116  C125  A    
C12   C157  A    
C42   F26   S    
C118  C127  A    
C56   C166  S    
C69   H17   S    
C87   C100  S    
C117  C126  A    
C26   F1    S    
C132  C141  A    
C28   C48   A    
O9    Zn5   S    
C108  C117  A    
O44   Zn5   S    
C31   C51   A    
C110  C119  A    
C109  F50   S    
C8    C176  A    
C113  F53   S    
C13   C59   S    
C159  C176  A    
C83   H60   S    
O1    Zn3   S    
C28   C37   A    
C24   F30   S    
C169  O35   A    
C30   C39   A    
C9    C175  A    
C166  F27   S    
O34   Zn6   S    
O7    Zn3   S    
C107  C116  A    
C102  F42   S    
C71   C131  S    
C104  C113  A    
C158  C175  A    
C113  C121  A    
C73   C134  S    
C171  O37   A    
C112  C156  A    
C133  O46   A    
C63   H72   S    
C91   C99   S    
C173  O13   A    
C140  C149  A    
C78   H46   S    
C27   C49   A    
C69   H16   S    
C89   O41   A    
O1    Zn10  S    
C54   C57   S    
C83   H59   S    
C125  C134  A    
C86   H69   S    
C98   F39   S    
O13   Zn8   S    
C71   H21   S    
C1    C90   S    
C23   C45   S    
O23   Zn7   S    
O34   Zn15  S    
C104  C148  A    
C165  O5    A    
C82   C142  S    
C55   C68   S    
O5    Zn16  S    
C125  C167  S    
C21   O25   A    
C5    C11   A    
C73   H30   S    
C174  F9    S    
C67   H14   S    
C64   H2    S    
C99   F40   S    
C1    O45   A    
C70   C130  S    
C31   C40   A    
C18   O15   A    
C108  C152  A    
C53   C101  S    
C59   C94   S    
C109  C153  A    
C25   C47   S    
C100  O50   A    
C26   C48   A    
C70   H20   S    
C30   C50   A    
O24   Zn11  S    
C22   O24   A    
C168  O7    A    
C130  C139  A    
C30   F45   S    
C34   C43   A    
C63   H67   S    
C23   O29   A    
O40   Zn16  S    
C40   F24   S    
C76   C137  S    
C96   F37   S    
C79   C95   S    
C37   C43   A    
C170  O9    A    
C38   C44   A    
O46   Zn6   S    
C134  C142  A    
C137  C146  A    
C10   C19   S    
C74   C135  S    
O30   Zn13  S    
C50   C51   S    
O12   Zn2   S    
C77   C138  S    
C147  C156  A    
C81   H51   S    
C78   H44   S    
C92   C101  S    
C22   O26   A    
C35   F31   S    
C48   C49   S    
C94   C103  S    
O23   Zn5   S    
O34   Zn13  S    
C13   F29   S    
C41   F25   S    
O17   Zn4   S    
C65   H5    S    
C115  C124  A    
C76   H39   S    
C53   C79   S    
C54   C102  S    
C159  F3    S    
C93   C102  S    
C6    C10   A    
C74   H31   S    
C2    C58   S    
C64   H4    S    
C76   H38   S    
C27   C36   A    
C33   C51   A    
C7    C164  A    
C74   H33   S    
C170  O36   A    
C5    C162  A    
C80   C140  S    
C32   F62   S    
C57   C98   S    
C72   H25   S    
C24   C102  S    
C27   F12   S    
O27   Zn14  S    
O36   Zn12  S    
O4    Zn13  S    
C36   F19   S    
C84   H61   S    
O14   Zn16  S    
C119  F60   S    
C70   H18   S    
C85   H64   S    
C6    F16   S    
C35   C52   S    
C167  O6    A    
C165  O31   A    
C56   C65   S    
C103  F43   S    
O50   Zn1   S    
C127  C173  S    
C40   C47   A    
C111  O51   A    
C128  C170  S    
O3    Zn12  S    
C75   H36   S    
C82   H57   S    
C7    C11   A    
O45   Zn10  S    
C60   C69   S    
O22   Zn10  S    
C162  F6    S    
C18   O17   A    
C110  F51   S    
C80   H49   S    
C15   C16   S    
O15   Zn2   S    
C55   C103  S    
O12   Zn4   S    
C151  C154  S    
C58   C96   S    
C68   C97   S    
C104  F44   S    
C81   H53   S    
C169  O8    A    
C21   C43   S    
C58   C66   S    
C22   C44   S    
C129  C138  A    
C146  C154  A    
C122  O52   A    
C110  C154  A    
C7    F17   S    
C115  F55   S    
C136  C145  A    
C145  C153  A    
C88   C89   S    
C81   C141  S    
C65   H7    S    
C66   H9    S    
C150  C156  S    
C31   F56   S    
C161  F5    S    
C26   C34   A    
C67   H13   S    
O23   Zn14  S    
C46   C95   S    
C37   F20   S    
C105  C114  A    
C2    F28   S    
C85   C146  S    
C149  C152  S    
O18   Zn5   S    
C72   H27   S    
C77   H43   S    
C124  C165  S    
C14   C160  A    
C128  C137  A    
C91   C155  S    
C164  F8    S    
C84   H63   S    
C53   C62   S    
C9    C18   S    
C138  C147  A    
C24   C60   S    
C55   C64   S    
C38   F21   S    
C32   C50   A    
C123  C169  S    
C167  O32   A    
C19   O20   A    
O25   Zn1   S    
C3    C160  A    
C59   C97   S    
C63   H71   S    
C4    C10   A    
O38   Zn14  S    
C78   H47   S    
C69   H15   S    
C85   H65   S    
O39   Zn15  S    
C86   H70   S    
C143  C152  A    
O10   Zn6   S    
C129  C171  S    
C52   C87   S    
C144  O3    A    
C126  C135  A    
O31   Zn1   S    
C105  C149  A    
C52   C99   S    
C79   C111  S    
C77   H41   S    
C12   C14   S    
C62   H45   S    
C73   H29   S    
O1    Zn16  S    
C100  O42   A    
C117  F58   S    
C13   C88   S    
C90   C98   S    
O35   Zn11  S    
C42   C47   A    
C79   C166  S    
C92   C144  S    
O16   Zn3   S    
C101  F41   S    
C56   C92   S    
O49   Zn11  S    
C57   C93   S    
O26   Zn9   S    
C68   F35   S    
O51   Zn9   S    
C20   O19   A    
C67   H11   S    
C35   C91   S    
