data_mof_unit_20362.cif
_audit_creation_date              2012-12-10T17:01:28-0500
_audit_creation_method            fapswitch 2.2
_symmetry_space_group_name_H-M    P1
_symmetry_Int_Tables_number       1
_space_group_crystal_system       triclinic
_cell_length_a                    12.824622
_cell_length_b                    10.733872
_cell_length_c                    10.05409
_cell_angle_alpha                 90.260159
_cell_angle_beta                  98.851721
_cell_angle_gamma                 90.917279
_cell_volume                      1367.33091189

loop_
_atom_site_label
_atom_site_type_symbol
_atom_type_description
_atom_site_fract_x
_atom_site_fract_y
_atom_site_fract_z
_atom_type_partial_charge
C1    C     C_R   0.489627 0.262681 0.497868 0.878773
C2    C     C_2   0.453672 0.133530 0.491858 -0.171817
C3    C     C_2   0.514315 0.599689 0.928692 0.391147
C4    C     C_R   0.298319 0.494668 0.471312 0.910996
C5    C     C_2   0.540537 0.589045 0.081403 0.313236
C6    C     C_R   0.503500 0.737379 0.500591 0.901523
C7    C     C_R   0.702284 0.499628 0.528758 0.908391
C8    C     C_R   0.816436 0.493949 0.550864 -0.192520
C9    C     C_R   0.185442 0.479951 0.449040 -0.191136
C10   C     C_R   0.030252 0.346344 0.392818 0.388551
C11   C     C_R   0.138663 0.367806 0.393294 -0.256790
C12   C     C_R   0.028226 0.530638 0.537650 0.003541
C13   C     C_R   0.126824 0.567792 0.507198 -0.090382
C14   C     C_2   0.798761 0.319872 0.383296 1.063899
C15   C     C_2   0.401284 0.084731 0.605913 0.940323
C16   C     C_2   0.411463 0.432168 0.084112 0.968554
C17   C     C_2   0.830104 0.628399 0.759625 0.943612
C18   C     C_2   0.051755 0.664775 0.748635 1.003541
C19   C     C_2   0.202269 0.269170 0.340936 0.897965
C20   C     C_2   0.161116 0.701928 0.519161 0.949399
C21   C     C_R   0.973950 0.428671 0.465512 0.066923
C22   C     C_R   0.864932 0.414430 0.467886 -0.084849
C23   C     C_R   0.877085 0.570626 0.648787 -0.105914
C24   C     C_R   0.984143 0.590357 0.641432 -0.178091
C25   C     C_2   0.457340 0.928273 0.392742 -0.239303
C26   C     C_2   0.511598 0.870412 0.498546 0.291405
C27   C     C_2   0.463093 0.062972 0.382541 0.486161
H1    H     H_    0.521145 0.417654 0.898110 0.140870
H2    H     H_    0.964079 0.819658 0.716748 0.335066
H3    H     H_    0.156644 0.136933 0.463164 0.338706
H4    H     H_    0.116870 0.881711 0.503966 0.381081
H5    H     H_    0.607271 0.876898 0.668314 0.383730
H6    H     H_    0.496837 0.047172 0.201080 0.355176
H7    H     H_    0.411095 0.876728 0.309992 0.165451
H8    H     H_    0.704126 0.167548 0.377624 0.372285
H9    H     H_    0.292596 0.968743 0.666139 0.376317
H10   H     H_    0.501922 0.778655 0.940761 0.338978
H11   H     H_    0.643848 0.723507 0.089816 0.337410
H12   H     H_    0.263693 0.434214 0.980562 0.380702
H13   H     H_    0.728058 0.751085 0.815786 0.354946
H14   H     H_    0.015149 0.216918 0.254052 0.373211
N1    N     N_2   0.501130 0.501330 0.852280 -0.178019
N2    N     N_2   0.501160 0.501360 0.147950 -0.179117
O1    O     O_R   0.499980 0.319060 0.613040 -0.598580
O2    O     O_R   0.747572 0.225525 0.445154 -0.778463
O3    O     O_2   0.427468 0.124756 0.720503 -0.552293
O4    O     O_R   0.321767 0.993190 0.581593 -0.760430
O5    O     O_3   0.504059 0.715246 0.869362 -0.695982
O6    O     O_3   0.609155 0.673821 0.153920 -0.699573
O7    O     O_2   0.412210 0.318479 0.087415 -0.512478
O8    O     O_R   0.322112 0.493970 0.021225 -0.759201
O9    O     O_2   0.860075 0.597364 0.875942 -0.564581
O10   O     O_R   0.753396 0.719255 0.731386 -0.801773
O11   O     O_3   0.981175 0.240387 0.332360 -0.734568
O12   O     O_R   0.500020 0.319100 0.386900 -0.534817
O13   O     O_2   0.131639 0.619031 0.809462 -0.523081
O14   O     O_R   0.026408 0.786532 0.780166 -0.715331
O15   O     O_2   0.253993 0.293267 0.252098 -0.503463
O16   O     O_R   0.199190 0.146707 0.386769 -0.745992
O17   O     O_2   0.254145 0.731837 0.548645 -0.586405
O18   O     O_R   0.085159 0.794450 0.493606 -0.774910
O19   O     O_3   0.578079 0.935707 0.597320 -0.743222
O20   O     O_3   0.490383 0.114902 0.266662 -0.677856
O21   O     O_R   0.346340 0.499960 0.594380 -0.570155
O22   O     O_R   0.346380 0.500000 0.368250 -0.595804
O23   O     O_R   0.499980 0.680900 0.613100 -0.521313
O24   O     O_R   0.500020 0.680940 0.386960 -0.607849
O25   O     O_R   0.653620 0.500000 0.631750 -0.598077
O26   O     O_R   0.653660 0.500040 0.405620 -0.578401
O27   O     O_2   0.786317 0.327644 0.260521 -0.545129
Zn1   Zn    Zn3+2 0.499980 0.499970 0.650990 1.094030
Zn2   Zn    Zn3+2 0.500020 0.500030 0.349010 1.111766

loop_
_geom_bond_atom_site_label_1
_geom_bond_atom_site_label_2
_ccdc_geom_bond_type
C7    O26   A    
O26   Zn2   S    
C8    C22   A    
C23   C24   A    
C3    N1    D    
C2    C27   D    
H4    O18   S    
C18   O13   D    
C25   C27   S    
O22   Zn2   S    
C14   O27   D    
C12   C24   A    
C18   O14   S    
H12   O8    S    
O12   Zn2   S    
C13   C20   S    
C16   O8    S    
C15   O4    S    
C25   H7    S    
H6    O20   S    
C5    O6    S    
H3    O16   S    
C14   C22   S    
C7    O25   A    
C26   O19   S    
H5    O19   S    
C7    C8    S    
C19   O15   D    
H11   O6    S    
C6    C26   S    
C21   C22   A    
H10   O5    S    
C2    C15   S    
C9    C11   A    
C16   N2    S    
C11   C19   S    
C17   C23   S    
C27   O20   S    
H9    O4    S    
O25   Zn1   S    
C18   C24   S    
C1    C2    S    
C17   O9    D    
H1    N1    S    
N1    Zn1   S    
C25   C26   D    
H2    O14   S    
C1    O12   A    
C14   O2    S    
C10   C21   A    
C5    N2    D    
C4    O22   A    
C10   O11   S    
H14   O11   S    
C20   O17   D    
C10   C11   A    
H8    O2    S    
C17   O10   S    
C3    O5    S    
C6    O23   A    
C8    C23   A    
C12   C13   A    
O1    Zn1   S    
C19   O16   S    
H13   O10   S    
O21   Zn1   S    
C20   O18   S    
N2    Zn2   S    
C4    O21   A    
C6    O24   A    
C9    C13   A    
C1    O1    A    
C15   O3    D    
O24   Zn2   S    
C4    C9    S    
C12   C21   A    
O23   Zn1   S    
C16   O7    D    
C3    C5    S    
