data_mof_unit_40652.cif
_audit_creation_date              2012-12-11T16:31:36-0500
_audit_creation_method            fapswitch 2.2
_symmetry_space_group_name_H-M    P1
_symmetry_Int_Tables_number       1
_space_group_crystal_system       triclinic
_cell_length_a                    6.98427
_cell_length_b                    18.381177
_cell_length_c                    20.209953
_cell_angle_alpha                 68.48275
_cell_angle_beta                  90.509399
_cell_angle_gamma                 91.020827
_cell_volume                      2413.32430921

loop_
_atom_site_label
_atom_site_type_symbol
_atom_type_description
_atom_site_fract_x
_atom_site_fract_y
_atom_site_fract_z
_atom_type_partial_charge
O1    O     O_R   0.488990 0.443920 0.942160 -0.542447
O2    O     O_R   0.823840 0.406530 0.087600 -0.541667
O3    O     O_R   0.999650 0.556080 0.057840 -0.511998
C1    C     C_R   0.654127 0.383027 0.114419 0.677579
O4    O     O_R   0.818390 0.434590 0.944530 -0.542631
O5    O     O_R   0.994160 0.584350 0.913750 -0.522169
C2    C     C_R   0.648997 0.421774 0.923325 0.713009
O6    O     O_R   0.494480 0.415650 0.086250 -0.543531
O7    O     O_3   0.662600 0.549100 0.990070 -0.341000
V1    V     V_3+5 0.935320 0.490890 0.001840 1.484401
O8    O     O_R   0.324240 0.593470 0.912400 -0.539835
C3    C     C_R   0.154818 0.619330 0.887018 0.674127
O9    O     O_R   0.329690 0.565410 0.055470 -0.541871
C4    C     C_R   0.162963 0.575310 0.079272 0.730433
V2    V     V_3+5 0.435990 0.509110 0.998160 1.474286
O10   O     O_3   0.158840 0.450900 0.009930 -0.380043
C5    C     C_3   0.979662 0.678240 0.264038 -0.151458
C6    C     C_3   0.338536 0.702578 0.248532 -0.367573
C7    C     C_3   0.335126 0.750523 0.299703 0.002396
H1    H     H_    0.992265 0.691830 0.369518 0.246556
H2    H     H_    0.454499 0.723631 0.208232 0.126619
H3    H     H_    0.371419 0.640360 0.277438 0.207960
C8    C     C_1   0.111863 0.876372 0.377287 -0.094013
C9    C     C_3   0.145504 0.706990 0.208730 0.108283
C10   C     C_3   0.977437 0.728190 0.312253 -0.354383
C11   C     C_3   0.135973 0.793555 0.290349 0.067765
C12   C     C_3   0.103442 0.847170 0.208666 0.193591
C13   C     C_3   0.110889 0.794080 0.162573 -0.298152
C14   C     C_1   0.121938 0.839594 0.338171 -0.029736
C15   C     C_1   0.152751 0.660015 0.161930 -0.057873
C16   C     C_1   0.157682 0.621350 0.124351 -0.124059
H4    H     H_    0.976317 0.797551 0.131701 0.186682
H5    H     H_    0.226727 0.815011 0.122128 0.169424
H6    H     H_    0.841870 0.688415 0.234063 0.084058
H7    H     H_    0.835497 0.754587 0.308432 0.138004
H8    H     H_    0.221395 0.528787 0.692711 0.153939
C17   C     C_R   0.041313 0.783298 0.878082 -0.033458
C18   C     C_R   0.984309 0.858867 0.871999 -0.091737
C19   C     C_R   0.005791 0.920910 0.807189 -0.086375
C20   C     C_R   0.087978 0.908824 0.749150 -0.026981
C21   C     C_R   0.105970 0.831405 0.749968 -0.017785
C22   C     C_R   0.097524 0.766892 0.816807 -0.008545
C23   C     C_R   0.122034 0.817518 0.685221 -0.163713
C24   C     C_R   0.144485 0.740271 0.687597 0.041248
C25   C     C_R   0.165022 0.677327 0.753975 0.089706
C26   C     C_R   0.143204 0.689583 0.818991 -0.157697
C27   C     C_R   0.143838 0.724199 0.624213 -0.128720
C28   C     C_R   0.166532 0.648026 0.625807 0.029865
C29   C     C_R   0.199962 0.587661 0.690597 -0.212578
C30   C     C_R   0.198711 0.601653 0.753712 -0.152951
H9    H     H_    0.122454 0.770459 0.573043 0.122227
H10   H     H_    0.219587 0.551664 0.802295 0.111862
C31   C     C_R   0.688625 0.222386 0.124202 -0.148147
C32   C     C_R   0.697537 0.145868 0.126500 -0.103098
C33   C     C_R   0.681089 0.083518 0.191044 -0.101763
C34   C     C_R   0.659060 0.097059 0.253986 -0.159377
C35   C     C_R   0.650130 0.174144 0.253611 0.056468
C36   C     C_R   0.662668 0.238046 0.187020 0.077883
C37   C     C_R   0.628043 0.187856 0.318018 -0.148209
C38   C     C_R   0.615386 0.266862 0.314881 0.058799
C39   C     C_R   0.603836 0.329168 0.247074 0.006269
C40   C     C_R   0.641024 0.315653 0.183789 -0.154286
C41   C     C_R   0.610870 0.287387 0.376560 -0.045914
C42   C     C_R   0.552735 0.361828 0.371121 -0.165887
C43   C     C_R   0.523618 0.420430 0.304955 0.251144
C44   C     C_R   0.557073 0.404992 0.243731 -0.161596
H11   H     H_    0.698735 0.268962 0.072548 0.093228
H12   H     H_    0.715157 0.134887 0.077826 0.141372
H13   H     H_    0.684522 0.024265 0.192355 0.163241
H14   H     H_    0.647679 0.046299 0.302681 0.119380
H15   H     H_    0.543128 0.375982 0.418579 0.138204
H16   H     H_    0.542800 0.453358 0.193526 0.125732
O11   O     O_R   0.770890 0.084490 0.414040 -0.517320
O12   O     O_R   0.445980 0.065450 0.555510 -0.545264
O13   O     O_R   0.270670 0.915620 0.586180 -0.550927
C45   C     C_R   0.614673 0.079096 0.576439 0.738987
O14   O     O_R   0.441480 0.093500 0.412450 -0.548357
O15   O     O_R   0.266140 0.943870 0.442100 -0.537130
C46   C     C_R   0.611960 0.118914 0.386813 0.710085
O16   O     O_R   0.775410 0.056240 0.558120 -0.492335
O17   O     O_3   0.602660 0.950990 0.510100 -0.381481
V3    V     V_3+5 0.329740 0.009100 0.498130 1.514324
O18   O     O_R   0.936120 0.934420 0.444240 -0.541687
C47   C     C_R   0.103930 0.920873 0.423608 0.697897
O19   O     O_R   0.940610 0.906370 0.587310 -0.532987
C48   C     C_R   0.109514 0.883426 0.614731 0.686061
V4    V     V_3+5 0.829110 0.990690 0.501470 1.563114
O20   O     O_3   0.106080 0.049010 0.489880 -0.338867
C49   C     C_3   0.824992 0.244251 0.710516 0.004296
C50   C     C_3   0.487820 0.283652 0.674881 -0.346115
C51   C     C_3   0.507945 0.340005 0.717944 -0.011153
H17   H     H_    0.900920 0.343814 0.741667 0.197627
H18   H     H_    0.864988 0.288390 0.657439 0.187173
H19   H     H_    0.338938 0.262333 0.675282 0.177452
H20   H     H_    0.518704 0.314599 0.617408 0.192631
C52   C     C_1   0.639092 0.378580 0.876216 -0.189034
C53   C     C_3   0.619714 0.211910 0.705307 0.111315
C54   C     C_3   0.830101 0.285834 0.765758 -0.382090
C55   C     C_3   0.623874 0.295592 0.789768 0.002459
C56   C     C_3   0.542317 0.209138 0.832436 0.417444
C57   C     C_3   0.551835 0.159713 0.782455 0.087057
C58   C     C_1   0.632892 0.342282 0.836753 -0.117540
C59   C     C_1   0.619468 0.166245 0.657128 0.019149
C60   C     C_1   0.620595 0.126811 0.620108 -0.074514
H21   H     H_    0.661494 0.114092 0.804402 0.174614
H22   H     H_    0.922616 0.255026 0.811905 0.163859
N1    N     N_3   0.253573 0.908321 0.183758 -0.656456
H23   H     H_    0.245253 0.946297 0.211549 0.233973
H24   H     H_    0.231999 0.942108 0.129938 0.259526
C61   C     C_2   0.046671 0.724609 0.949870 0.441323
H25   H     H_    0.184583 0.705615 0.974076 -0.008703
O21   O     O_2   0.898069 0.699180 0.981971 -0.483588
C62   C     C_2   0.912806 0.875556 0.934305 0.414692
H26   H     H_    0.976674 0.922966 0.947215 0.026262
O22   O     O_2   0.776827 0.839265 0.969236 -0.483902
C63   C     C_2   0.927501 0.997600 0.798600 0.446733
H27   H     H_    0.967385 0.027034 0.834523 0.034394
O23   O     O_2   0.807653 0.026010 0.752702 -0.528455
C64   C     C_2   0.192265 0.975577 0.695976 0.374392
H28   H     H_    0.339430 0.967781 0.683658 0.043258
O24   O     O_2   0.116662 0.038486 0.665502 -0.508877
C65   C     C_2   0.150666 0.630237 0.560372 0.403768
H29   H     H_    0.189287 0.572963 0.561164 0.127081
O25   O     O_2   0.089484 0.678559 0.505318 -0.546653
C66   C     C_2   0.985443 0.590541 0.305501 0.467105
H30   H     H_    0.967835 0.550890 0.277116 0.033522
O26   O     O_2   0.007445 0.562889 0.369919 -0.481096
N2    N     N_3   0.469590 0.497510 0.298786 -0.668042
H31   H     H_    0.445785 0.499491 0.349102 0.282909
H32   H     H_    0.585686 0.535091 0.276829 0.210118
C67   C     C_2   0.697257 0.240696 0.445291 0.359860
H33   H     H_    0.632112 0.240444 0.493754 0.017655
O27   O     O_2   0.852529 0.210326 0.447991 -0.509384
C68   C     C_2   0.611745 0.416840 0.675010 0.460286
H34   H     H_    0.629681 0.461447 0.698057 0.030564
O28   O     O_2   0.676316 0.430014 0.615686 -0.508552
C69   C     C_2   0.311776 0.366488 0.729839 0.221459
H35   H     H_    0.271172 0.367551 0.781157 0.060686
O29   O     O_2   0.200904 0.392471 0.679857 -0.530422
N3    N     N_3   0.371257 0.117736 0.781890 -0.673834
H36   H     H_    0.338768 0.081727 0.834249 0.258048
H37   H     H_    0.392114 0.079012 0.755655 0.248235
N4    N     N_3   0.656272 0.168511 0.897178 -0.645510
H38   H     H_    0.791922 0.152764 0.886320 0.220693
H39   H     H_    0.672143 0.202564 0.928497 0.234107
N5    N     N_3   0.964247 0.181565 0.729435 -0.634653
H40   H     H_    0.094224 0.205450 0.736401 0.256400
H41   H     H_    0.985674 0.166125 0.685200 0.291460
N6    N     N_3   0.345774 0.210574 0.857437 -0.630854
H42   H     H_    0.338928 0.246117 0.887544 0.224103
H43   H     H_    0.251067 0.231736 0.815388 0.221246
C70   C     C_2   0.368163 0.697866 0.377475 0.457413
H44   H     H_    0.377557 0.724127 0.417539 0.110579
O30   O     O_2   0.386792 0.627188 0.396553 -0.509729
C71   C     C_2   0.498363 0.809855 0.280789 0.279865
H45   H     H_    0.570820 0.824644 0.230382 0.119693
O31   O     O_2   0.543360 0.845233 0.319512 -0.554508
C72   C     C_2   0.913299 0.889031 0.197866 0.277980
H46   H     H_    0.847352 0.899507 0.241746 0.089502
O32   O     O_2   0.841094 0.917603 0.138815 -0.526905

loop_
_geom_bond_atom_site_label_1
_geom_bond_atom_site_label_2
_ccdc_geom_bond_type
C45   C60   S    
O18   V4    S    
V4    O20   S    
C36   C40   A    
C52   C58   T    
C71   O31   D    
C6    H2    S    
C7    C71   S    
C21   C22   A    
C4    C16   S    
C1    O6    A    
N2    H31   S    
O17   V3    S    
C35   C36   A    
H17   C54   S    
C50   H20   S    
O19   C48   A    
C34   C35   A    
C12   C72   S    
C2    C52   S    
C69   O29   D    
C11   C12   S    
O12   C45   A    
C38   C41   A    
C6    C9    S    
C8    C14   T    
N3    H37   S    
N5    H40   S    
O16   V4    S    
N6    H43   S    
C28   C65   S    
C18   C19   A    
C35   C37   A    
C32   H12   S    
H1    C10   S    
V2    O10   S    
C1    C40   S    
C63   H27   S    
C6    C7    S    
C22   C26   A    
C42   H15   S    
C17   C22   A    
C7    C11   S    
C61   H25   S    
O11   V4    S    
C51   C69   S    
O8    V2    S    
C39   C44   A    
C44   H16   S    
C27   C28   A    
C30   H10   S    
N1    H23   S    
O1    V2    S    
C41   C67   S    
O7    V1    S    
C50   C53   S    
C24   C27   A    
C64   O24   D    
C37   C38   A    
O1    C2    A    
O9    C4    A    
C72   O32   D    
C21   C23   A    
O12   V3    S    
C57   N3    S    
C50   H19   S    
N5    H41   S    
O19   V4    S    
C57   H21   S    
C49   N5    S    
C5    C9    S    
C8    C47   S    
C43   N2    S    
C9    C13   S    
C13   H4    S    
N3    H36   S    
C3    C26   S    
C37   C46   S    
C19   C20   A    
O4    C2    A    
C18   C62   S    
C27   H9    S    
C10   C11   S    
C31   C32   A    
C62   O22   D    
C49   C53   S    
C38   C39   A    
C72   H46   S    
O2    C1    A    
C23   C24   A    
C17   C18   A    
O15   C47   A    
O15   V3    S    
O13   C48   A    
O18   C47   A    
C12   N1    S    
C15   C16   T    
C31   C36   A    
C20   C64   S    
C33   C34   A    
C7    C70   S    
O11   C46   A    
O14   C46   A    
C53   C59   S    
C17   C61   S    
C33   H13   S    
O3    C4    A    
C10   H7    S    
C20   C21   A    
C70   O30   D    
C13   H5    S    
C54   C55   S    
O6    V2    S    
C34   H14   S    
O9    V2    S    
C66   H30   S    
C9    C15   S    
C5    H6    S    
C65   O25   D    
C67   H33   S    
O2    V1    S    
C59   C60   T    
C24   C25   A    
C62   H26   S    
N4    H39   S    
C32   C33   A    
C28   C29   A    
C6    H3    S    
C23   C48   S    
C45   O16   A    
C67   O27   D    
C56   N4    S    
N2    H32   S    
O5    V1    S    
C68   O28   D    
C64   H28   S    
O13   V3    S    
C68   H34   S    
C56   N6    S    
C69   H35   S    
C54   H22   S    
C55   C56   S    
C49   C54   S    
C5    C10   S    
C42   C43   A    
O7    V2    S    
O4    V1    S    
O3    V1    S    
V1    O10   S    
N6    H42   S    
O5    C3    A    
O17   V4    S    
C5    C66   S    
C50   C51   S    
N1    H24   S    
C51   C68   S    
O14   V3    S    
C19   C63   S    
V3    O20   S    
C56   C57   S    
C63   O23   D    
C43   C44   A    
C49   H18   S    
C39   C40   A    
C31   H11   S    
C61   O21   D    
C41   C42   A    
C25   C26   A    
C55   C58   S    
C70   H44   S    
C11   C14   S    
C29   C30   A    
C71   H45   S    
C66   O26   D    
C25   C30   A    
C51   C55   S    
C65   H29   S    
C53   C57   S    
H8    C29   S    
N4    H38   S    
O8    C3    A    
C12   C13   S    
