data_mof_unit_62087.cif
_audit_creation_date              2012-12-10T19:06:14-0500
_audit_creation_method            fapswitch 2.2
_symmetry_space_group_name_H-M    P1
_symmetry_Int_Tables_number       1
_space_group_crystal_system       triclinic
_cell_length_a                    13.060288
_cell_length_b                    13.626591
_cell_length_c                    15.743066
_cell_angle_alpha                 90.032601
_cell_angle_beta                  92.526327
_cell_angle_gamma                 85.732878
_cell_volume                      2791.25707718

loop_
_atom_site_label
_atom_site_type_symbol
_atom_type_description
_atom_site_fract_x
_atom_site_fract_y
_atom_site_fract_z
_atom_type_partial_charge
C1    C     C_R   0.481225 0.685155 0.499094 0.895863
C2    C     C_R   0.518775 0.314845 0.500906 0.895863
C3    C     C_2   0.544535 0.020494 0.502212 -0.150310
C4    C     C_2   0.455465 0.979506 0.497788 -0.150310
C5    C     C_1   0.457507 0.875756 0.497902 0.025321
C6    C     C_1   0.542493 0.124244 0.502098 0.025321
C7    C     C_2   0.033295 0.473049 0.475978 -0.233090
C8    C     C_2   0.966705 0.526951 0.524022 -0.233090
C9    C     C_1   0.854689 0.519527 0.517304 0.157892
C10   C     C_1   0.145310 0.480473 0.482695 0.157892
C11   C     C_R   0.499245 0.500041 0.662348 0.899007
C12   C     C_R   0.500755 0.499959 0.337651 0.899006
C13   C     C_3   0.441089 0.575861 0.026829 0.748978
C14   C     C_3   0.558911 0.424139 0.973171 0.748978
C15   C     C_3   0.535669 0.584665 0.973011 -0.309403
C16   C     C_3   0.464331 0.415335 0.026989 -0.309403
C17   C     C_1   0.497609 0.500336 0.751131 -0.155260
C18   C     C_1   0.502391 0.499664 0.248869 -0.155260
C19   C     C_3   0.402300 0.493433 0.969615 -0.307821
C20   C     C_3   0.597700 0.506567 0.030385 -0.307821
C21   C     C_3   0.497850 0.500995 0.917115 -0.015193
C22   C     C_3   0.502150 0.499005 0.082885 -0.015193
C23   C     C_1   0.497168 0.500669 0.826336 0.051786
C24   C     C_1   0.502832 0.499331 0.173664 0.051786
C25   C     C_1   0.533667 0.211669 0.501652 -0.161148
C26   C     C_1   0.466333 0.788331 0.498348 -0.161149
H1    H     H_    0.563347 0.654269 0.949341 0.187410
H2    H     H_    0.436653 0.345731 0.050659 0.187410
H3    H     H_    0.677515 0.510569 0.056770 0.187382
H4    H     H_    0.322485 0.489431 0.943230 0.187382
H5    H     H_    0.382193 0.023093 0.494140 0.165580
H6    H     H_    0.617807 0.976907 0.505860 0.165580
H7    H     H_    0.996242 0.578406 0.569982 0.170346
H8    H     H_    0.003758 0.421594 0.430018 0.170346
N1    N     N_1   0.234530 0.484780 0.486590 -0.088797
N2    N     N_1   0.765470 0.515220 0.513410 -0.088798
O1    O     O_R   0.402510 0.634760 0.495090 -0.604964
O2    O     O_R   0.597490 0.365240 0.504910 -0.604964
O3    O     O_R   0.572960 0.644530 0.503700 -0.605644
O4    O     O_R   0.427040 0.355470 0.496300 -0.605644
O5    O     O_R   0.414790 0.495120 0.618920 -0.610082
O6    O     O_R   0.585210 0.504880 0.381080 -0.610081
O7    O     O_R   0.585240 0.504900 0.627530 -0.601207
O8    O     O_R   0.414760 0.495100 0.372470 -0.601206
Zn1   Zn    Zn3+2 0.386190 0.493480 0.494250 0.996892
Zn2   Zn    Zn3+2 0.613810 0.506520 0.505750 0.996892
F1    F     F_    0.380206 0.654405 0.057135 -0.643538
F2    F     F_    0.619794 0.345595 0.942865 -0.643538

loop_
_geom_bond_atom_site_label_1
_geom_bond_atom_site_label_2
_ccdc_geom_bond_type
C16   H2    S    
C7    C10   S    
C14   F2    S    
C11   O7    A    
C10   N1    T    
C2    O4    A    
C9    N2    T    
C1    C26   S    
C2    O2    A    
C15   H1    S    
C1    O1    A    
O3    Zn2   S    
C8    H7    S    
C3    C6    S    
C13   C15   S    
C8    C9    S    
C7    C8    D    
C12   O8    A    
N2    Zn2   S    
C17   C23   T    
C16   C19   S    
C18   C24   T    
C14   C21   S    
C19   C21   S    
C20   C22   S    
C13   C22   S    
C11   O5    A    
C2    C25   S    
C14   C16   S    
C20   H3    S    
C21   C23   S    
O4    Zn1   S    
O7    Zn2   S    
C22   C24   S    
O2    Zn2   S    
C4    H5    S    
C1    O3    A    
O1    Zn1   S    
C3    C4    D    
C6    C25   T    
C14   C20   S    
C15   C21   S    
O8    Zn1   S    
C15   C20   S    
O6    Zn2   S    
C7    H8    S    
C12   C18   S    
C13   F1    S    
O5    Zn1   S    
C11   C17   S    
C13   C19   S    
C12   O6    A    
C3    H6    S    
C19   H4    S    
C5    C26   T    
C16   C22   S    
C4    C5    S    
N1    Zn1   S    
