data_mof_unit_62983.cif
_audit_creation_date              2012-10-26T17:27:59-0400
_audit_creation_method            fapswitch 2.2
_symmetry_space_group_name_H-M    P1
_symmetry_Int_Tables_number       1
_space_group_crystal_system       triclinic
_cell_length_a                    18.793661
_cell_length_b                    18.764955
_cell_length_c                    18.785792
_cell_angle_alpha                 109.336743
_cell_angle_beta                  109.92167
_cell_angle_gamma                 109.294518
_cell_volume                      5091.02966199

loop_
_atom_site_label
_atom_site_type_symbol
_atom_type_description
_atom_site_fract_x
_atom_site_fract_y
_atom_site_fract_z
_atom_type_partial_charge
C1    C     C_R   0.618649 0.618787 0.500196 0.547261
C2    C     C_R   0.725591 0.778041 0.441909 -0.040821
C3    C     C_3   0.680559 0.733423 0.344393 -0.180865
C4    C     C_R   0.380762 0.499994 0.380265 0.576490
C5    C     C_3   0.611058 0.661872 0.343251 0.260218
C6    C     C_R   0.760674 0.506582 0.686830 -0.009675
C7    C     C_R   0.685308 0.500201 0.687327 0.005129
C8    C     C_R   0.675668 0.494259 0.756754 -0.146005
C9    C     C_R   0.740591 0.493202 0.821556 -0.136634
C10   C     C_R   0.816959 0.501121 0.818990 0.007363
C11   C     C_R   0.824299 0.508866 0.750610 -0.007790
C12   C     C_3   0.189158 0.416698 0.189999 -0.095923
C13   C     C_3   0.880624 0.516546 0.710641 0.313507
C14   C     C_3   0.808319 0.514878 0.638290 0.331378
C15   C     C_R   0.317465 0.242674 0.498336 0.011121
C16   C     C_R   0.381190 0.381311 0.499793 0.553597
C17   C     C_R   0.313646 0.315311 0.498812 0.023054
C18   C     C_R   0.241809 0.323144 0.499895 -0.121056
C19   C     C_R   0.176606 0.257961 0.499306 -0.138999
C20   C     C_R   0.184400 0.186090 0.500702 0.020960
C21   C     C_R   0.256830 0.182044 0.501153 0.016818
C22   C     C_3   0.300672 0.128908 0.501045 -0.267400
C23   C     C_3   0.217771 0.461009 0.287666 0.414077
C24   C     C_3   0.370530 0.198746 0.498861 -0.260523
C25   C     C_R   0.003547 0.619026 0.122226 0.558959
C26   C     C_R   0.123428 0.499772 0.123039 0.546111
C27   C     C_R   0.003912 0.381263 0.885051 0.554394
C28   C     C_R   0.619491 0.500232 0.619776 0.538494
C29   C     C_R   0.884247 0.500219 0.884515 0.571251
C30   C     C_R   0.999061 0.118529 0.618260 0.540375
C31   C     C_R   0.880978 0.881408 0.500393 0.570821
C32   C     C_R   0.000782 0.881455 0.381987 0.582165
C33   C     C_R   0.118594 0.118756 0.500109 0.542635
C34   C     C_3   0.313340 0.499878 0.311716 0.043720
C35   C     C_R   0.924485 0.680400 0.180128 0.013551
C36   C     C_R   0.003062 0.686982 0.187235 0.036504
C37   C     C_R   0.081586 0.764662 0.253900 -0.143156
C38   C     C_R   0.081225 0.828962 0.318271 -0.137831
C39   C     C_R   0.002039 0.817043 0.314702 0.049055
C40   C     C_3   0.315483 0.582524 0.311980 -0.176233
C41   C     C_R   0.923921 0.744674 0.242378 -0.063935
C42   C     C_3   0.845697 0.680633 0.236251 0.155630
C43   C     C_3   0.847007 0.609576 0.167950 0.614468
C44   C     C_R   0.014710 0.248832 0.827847 0.006640
C45   C     C_R   0.662329 0.713153 0.440803 0.003943
C46   C     C_R   0.004370 0.315733 0.817842 0.016666
C47   C     C_R   0.003010 0.323641 0.745565 -0.118927
C48   C     C_R   0.000371 0.258532 0.679097 -0.137537
C49   C     C_R   0.002141 0.186905 0.686258 0.015477
C50   C     C_R   0.014857 0.186079 0.763611 0.029998
C51   C     C_3   0.964738 0.115273 0.775917 -0.272737
C52   C     C_3   0.218319 0.543136 0.287668 -0.083349
C53   C     C_3   0.964429 0.184402 0.846437 -0.263231
C54   C     C_3   0.191555 0.499586 0.190630 -0.006678
C55   C     C_3   0.287641 0.539145 0.213956 -0.147105
C56   C     C_R   0.685202 0.686383 0.501800 0.075731
C57   C     C_3   0.286303 0.456373 0.214555 -0.168853
C58   C     C_R   0.771608 0.733664 0.571421 -0.131939
C59   C     C_R   0.836033 0.798978 0.572246 -0.124824
C60   C     C_R   0.813909 0.818198 0.504029 0.035733
Cl1   Cl    Cl    0.868903 0.676436 0.335079 -0.471692
Cl2   Cl    Cl    0.754762 0.553727 0.060789 -0.573085
Cu1   Cu    Cu3+1 0.500490 0.438210 0.438660 1.095033
Cu2   Cu    Cu3+1 0.499510 0.561790 0.561340 0.974198
Cu3   Cu    Cu3+1 0.942090 0.438240 0.003860 1.082304
Cu4   Cu    Cu3+1 0.065700 0.561800 0.003830 0.963860
Cu5   Cu    Cu3+1 0.937720 0.000020 0.437750 0.977581
Cu6   Cu    Cu3+1 0.062280 0.000080 0.562350 0.985015
F1    F     F_    0.610461 0.583673 0.310500 -0.566673
F2    F     F_    0.888170 0.442793 0.681359 -0.573583
F3    F     F_    0.765370 0.440311 0.557796 -0.524964
F4    F     F_    0.866454 0.553994 0.193684 -0.515258
F5    F     F_    0.183354 0.420754 0.327094 -0.613694
H1    H     H_    0.188898 0.577945 0.316409 0.142343
H2    H     H_    0.121319 0.264327 0.499097 0.143200
H3    H     H_    0.325304 0.127355 0.563036 0.156117
H4    H     H_    0.261184 0.064382 0.440148 0.132740
H5    H     H_    0.435311 0.237940 0.559869 0.148747
H6    H     H_    0.371810 0.174353 0.436981 0.158072
H7    H     H_    0.143327 0.773754 0.258539 0.130806
H8    H     H_    0.142474 0.886853 0.371385 0.116636
H9    H     H_    0.788143 0.688905 0.209977 0.120923
H10   H     H_    0.315535 0.571424 0.182411 0.146856
H11   H     H_    0.999933 0.377787 0.738672 0.194983
H12   H     H_    0.719168 0.711980 0.318211 0.210848
H13   H     H_    0.995823 0.263456 0.622031 0.149793
H14   H     H_    0.898696 0.066294 0.717651 0.136673
H15   H     H_    0.004192 0.087563 0.801962 0.146581
H16   H     H_    0.898167 0.175677 0.829021 0.160533
H17   H     H_    0.003643 0.196471 0.913100 0.141774
H18   H     H_    0.315373 0.421187 0.185651 0.154563
H19   H     H_    0.136069 0.348830 0.139497 0.132261
H20   H     H_    0.789688 0.717762 0.622907 0.104471
H21   H     H_    0.903077 0.832205 0.624499 0.139120
H22   H     H_    0.655892 0.771010 0.318659 0.093360
H23   H     H_    0.545473 0.655839 0.315116 0.098823
H24   H     H_    0.617817 0.488941 0.760010 0.144426
H25   H     H_    0.731652 0.487313 0.873720 0.189767
H26   H     H_    0.943746 0.578998 0.751738 0.071296
H27   H     H_    0.827639 0.576559 0.636190 0.056411
H28   H     H_    0.235529 0.378510 0.499969 0.172878
H29   H     H_    0.368515 0.650301 0.362845 0.126880
O1    O     O_R   0.590590 0.537990 0.448210 -0.437248
O2    O     O_R   0.051820 0.090220 0.642110 -0.509254
O3    O     O_R   0.857230 0.909860 0.447430 -0.512742
O4    O     O_R   0.589760 0.642350 0.551800 -0.538336
O5    O     O_R   0.962420 0.909900 0.552660 -0.502355
O6    O     O_R   0.948170 0.909880 0.357990 -0.511865
O7    O     O_R   0.053360 0.909920 0.463210 -0.488507
O8    O     O_R   0.037580 0.090200 0.447440 -0.508739
O9    O     O_R   0.142770 0.090240 0.552670 -0.512988
O10   O     O_R   0.409550 0.447830 0.357350 -0.507432
O11   O     O_R   0.408710 0.552190 0.460940 -0.500911
O12   O     O_R   0.055390 0.642370 0.093330 -0.533904
O13   O     O_R   0.410240 0.357650 0.448200 -0.511720
O14   O     O_R   0.409410 0.462010 0.551790 -0.509814
O15   O     O_R   0.591290 0.447810 0.539060 -0.463530
O16   O     O_R   0.590450 0.552170 0.642650 -0.525710
O17   O     O_R   0.951010 0.538020 0.093350 -0.429942
O18   O     O_R   0.042570 0.447840 0.094710 -0.499145
O19   O     O_R   0.146960 0.552180 0.094690 -0.519100
O20   O     O_R   0.952400 0.357670 0.914360 -0.516699
O21   O     O_R   0.056780 0.462020 0.914330 -0.507239
O22   O     O_R   0.860840 0.447860 0.913000 -0.493154
O23   O     O_R   0.965220 0.552200 0.912980 -0.513253
O24   O     O_R   0.946640 0.090180 0.536890 -0.508604

loop_
_geom_bond_atom_site_label_1
_geom_bond_atom_site_label_2
_ccdc_geom_bond_type
C8    C9    A    
C30   O24   A    
C9    H25   S    
Cu2   O14   S    
C29   O23   A    
C3    H12   S    
C14   F3    S    
C35   C36   A    
C42   H9    S    
C22   H3    S    
C7    C8    A    
C39   C41   A    
C12   C23   S    
C43   F4    S    
C34   C40   S    
C36   C37   A    
C58   H20   S    
C26   O18   A    
C52   H1    S    
C28   O15   A    
C38   C39   A    
Cu1   O15   S    
C2    C60   A    
Cu5   O6    S    
Cu3   O22   S    
C13   F2    S    
C29   O22   A    
C25   O17   A    
Cu2   O16   S    
C18   C19   A    
C41   C42   S    
C32   C39   S    
Cu1   O10   S    
C5    F1    S    
Cu5   O8    S    
C46   C47   A    
C44   C53   S    
C19   C20   A    
C45   C56   A    
C52   C54   S    
C16   C17   S    
C34   C57   S    
C33   O9    A    
C26   O19   A    
C35   C43   S    
C9    C10   A    
C1    O1    A    
C12   H19   S    
C1    O4    A    
Cu1   O13   S    
C23   C34   S    
C4    O10   A    
C59   C60   A    
C13   C14   S    
C31   O3    A    
C23   F5    S    
C16   O14   A    
C27   O20   A    
C44   C46   A    
C50   C51   S    
C2    C45   A    
C37   H7    S    
C4    C34   S    
C32   O7    A    
Cu5   Cu6   S    
C4    O11   A    
Cu1   O1    S    
Cu5   O24   S    
C51   H14   S    
C6    C11   A    
C27   O21   A    
Cu5   O3    S    
C58   C59   A    
C40   C52   S    
Cu3   O20   S    
C5    C45   S    
C7    C28   S    
C51   C53   S    
C18   H28   S    
C31   C60   S    
C13   H26   S    
C8    H24   S    
C37   C38   A    
C6    C14   S    
C24   H6    S    
C47   C48   A    
C40   C55   S    
C17   C18   A    
Cu3   O17   S    
Cu4   O19   S    
C47   H11   S    
Cu2   O4    S    
C42   Cl1   S    
C57   H18   S    
C20   C33   S    
C27   C46   S    
C24   H5    S    
C48   C49   A    
C59   H21   S    
C30   C49   S    
Cu3   Cu4   S    
C55   C57   S    
C38   H8    S    
C53   H16   S    
C48   H13   S    
C42   C43   S    
C12   C57   S    
C55   H10   S    
C16   O13   A    
C5    H23   S    
C44   C50   A    
C15   C17   A    
C54   C55   S    
C15   C24   S    
Cu2   O11   S    
Cu4   O12   S    
C31   O5    A    
C1    C56   S    
Cu6   O2    S    
C22   H4    S    
C3    C5    S    
C51   H15   S    
C26   C54   S    
C14   H27   S    
C6    C7    A    
Cu6   O5    S    
Cu4   O23   S    
C19   H2    S    
C2    C3    S    
C28   O16   A    
C25   O12   A    
C11   C13   S    
C10   C29   S    
C23   C52   S    
Cu3   O18   S    
C56   C58   A    
C22   C24   S    
Cu6   O7    S    
C35   C41   A    
C10   C11   A    
C25   C36   S    
C40   H29   S    
Cu1   Cu2   S    
C15   C21   A    
C20   C21   A    
C49   C50   A    
C32   O6    A    
C30   O2    A    
C53   H17   S    
Cu4   O21   S    
C3    H22   S    
C33   O8    A    
C21   C22   S    
Cu6   O9    S    
C12   C54   S    
C43   Cl2   S    
