data_mof_unit_6116.cif
_audit_creation_date              2012-12-10T20:34:54-0500
_audit_creation_method            fapswitch 2.2
_symmetry_space_group_name_H-M    P1
_symmetry_Int_Tables_number       1
_space_group_crystal_system       triclinic
_cell_length_a                    10.668218
_cell_length_b                    10.704662
_cell_length_c                    9.854016
_cell_angle_alpha                 89.961611
_cell_angle_beta                  89.604815
_cell_angle_gamma                 88.975967
_cell_volume                      1125.11869349

loop_
_atom_site_label
_atom_site_type_symbol
_atom_type_description
_atom_site_fract_x
_atom_site_fract_y
_atom_site_fract_z
_atom_type_partial_charge
C1    C     C_R   0.498776 0.259950 0.500336 0.907710
C2    C     C_R   0.497231 0.934605 0.621107 0.038235
C3    C     C_3   0.601352 0.915078 0.720418 -0.458521
C4    C     C_R   0.257403 0.499485 0.500512 0.870748
C5    C     C_3   0.616288 0.055840 0.716364 0.035899
C6    C     C_R   0.409420 0.438553 0.072214 0.223909
C7    C     C_R   0.582512 0.569699 0.071340 -0.129644
C8    C     C_R   0.582592 0.569641 0.927263 -0.154108
C9    C     C_R   0.409092 0.438840 0.929467 0.241203
C10   C     C_3   0.385456 0.302189 0.924884 -0.508698
C11   C     C_3   0.386477 0.302000 0.078436 -0.544140
C12   C     C_3   0.878307 0.492203 0.496504 0.058291
C13   C     C_R   0.493183 0.739823 0.499779 0.882996
C14   C     C_R   0.742117 0.495797 0.499094 0.834051
C15   C     C_3   0.072781 0.381304 0.591240 0.462861
C16   C     C_3   0.927257 0.385806 0.590050 -0.497341
C17   C     C_3   0.065664 0.624627 0.546574 -0.460690
C18   C     C_3   0.073976 0.479675 0.351594 -0.468596
C19   C     C_3   0.120675 0.495610 0.501275 0.091492
C20   C     C_3   0.102561 0.488157 0.823539 -0.828159
C21   C     C_3   0.268025 0.825818 0.271042 -0.774653
C22   C     C_3   0.774436 0.060042 0.523243 -0.780457
C23   C     C_3   0.922564 0.619717 0.551029 -0.436436
C24   C     C_3   0.150638 0.153958 0.601112 -0.858687
C25   C     C_3   0.897616 0.344112 0.143949 -0.824511
C26   C     C_3   0.930646 0.471764 0.348511 0.069899
C27   C     C_R   0.506917 0.061416 0.620312 0.072117
C28   C     C_R   0.483563 0.128618 0.502108 -0.109466
C29   C     C_R   0.435039 0.068286 0.388541 -0.304727
C30   C     C_R   0.429837 0.938610 0.385900 0.199159
C31   C     C_R   0.472103 0.871440 0.501302 -0.138093
H1    H     H_    0.894068 0.549439 0.283367 0.152974
H2    H     H_    0.292600 0.279941 0.882873 0.214649
H3    H     H_    0.464850 0.249149 0.879217 0.206653
H4    H     H_    0.293852 0.281003 0.124676 0.197729
H5    H     H_    0.467607 0.248593 0.120475 0.216842
H6    H     H_    0.890485 0.295540 0.554768 0.154641
H7    H     H_    0.888588 0.398293 0.694333 0.185854
H8    H     H_    0.102898 0.660155 0.642785 0.189275
H9    H     H_    0.888579 0.635385 0.656695 0.187183
H10   H     H_    0.102416 0.560947 0.288365 0.167576
H11   H     H_    0.119455 0.397455 0.301467 0.195775
H12   H     H_    0.092166 0.697425 0.471962 0.162646
H13   H     H_    0.086494 0.303231 0.785840 0.226193
H14   H     H_    0.113712 0.457235 0.930408 0.213899
H15   H     H_    0.008854 0.533283 0.815586 0.236636
H16   H     H_    0.178949 0.554919 0.807072 0.263862
H17   H     H_    0.405339 0.929773 0.177396 0.216764
H18   H     H_    0.196339 0.901038 0.287437 0.221301
H19   H     H_    0.262767 0.756820 0.354426 0.239605
H20   H     H_    0.247928 0.776972 0.174426 0.230999
H21   H     H_    0.756801 0.185768 0.684981 0.219006
H22   H     H_    0.877926 0.065241 0.514377 0.234624
H23   H     H_    0.882608 0.697279 0.488417 0.157528
H24   H     H_    0.732708 0.125668 0.448382 0.219741
H25   H     H_    0.747492 0.963485 0.497532 0.243859
H26   H     H_    0.071311 0.241949 0.436061 0.240576
H27   H     H_    0.180776 0.078058 0.530622 0.252165
H28   H     H_    0.068543 0.121202 0.660296 0.240568
H29   H     H_    0.230851 0.172657 0.668813 0.261314
H30   H     H_    0.814769 0.312188 0.330876 0.239122
H31   H     H_    0.878510 0.246867 0.112056 0.240200
H32   H     H_    0.991485 0.369198 0.104794 0.240835
H33   H     H_    0.825281 0.407508 0.099379 0.246128
H34   H     H_    0.405579 0.120830 0.300320 0.165586
H35   H     H_    0.565403 0.881254 0.819801 0.172723
H36   H     H_    0.681772 0.858835 0.679987 0.199166
H37   H     H_    0.596493 0.098645 0.816794 0.105567
H38   H     H_    0.650793 0.623896 0.125251 0.144280
H39   H     H_    0.650888 0.623862 0.872283 0.145208
N1    N     N_R   0.499150 0.499140 0.142800 -0.101799
N2    N     N_R   0.499150 0.499180 0.857150 -0.110639
N3    N     N_2   0.116090 0.381080 0.733810 -0.273368
N4    N     N_2   0.391864 0.878030 0.264531 -0.275660
N5    N     N_2   0.736203 0.095075 0.660109 -0.285675
N6    N     N_2   0.117276 0.264962 0.523928 -0.329590
N7    N     N_2   0.893887 0.352082 0.290533 -0.303707
O1    O     O_R   0.500020 0.316790 0.614690 -0.622650
O2    O     O_R   0.500000 0.316760 0.385350 -0.627080
O3    O     O_R   0.314800 0.500000 0.614670 -0.600209
O4    O     O_R   0.314790 0.499960 0.385330 -0.634092
O5    O     O_R   0.500000 0.683240 0.614650 -0.623379
O6    O     O_R   0.499980 0.683210 0.385310 -0.588178
O7    O     O_R   0.685210 0.500040 0.614670 -0.627084
O8    O     O_R   0.685200 0.500000 0.385330 -0.633467
Zn1   Zn    Zn3+2 0.500010 0.500020 0.653130 0.935769
Zn2   Zn    Zn3+2 0.499990 0.499980 0.346870 0.939916

loop_
_geom_bond_atom_site_label_1
_geom_bond_atom_site_label_2
_ccdc_geom_bond_type
O6    Zn2   S    
C26   H1    S    
C18   C26   S    
C9    N2    A    
C14   O7    A    
H21   N5    S    
C6    C9    A    
O2    Zn2   S    
C7    C8    A    
C15   C19   S    
C12   C23   S    
C17   C23   S    
C25   N7    S    
H26   N6    S    
C28   C29   A    
O7    Zn1   S    
C4    O3    A    
C18   H11   S    
C7    N1    A    
C30   C31   A    
C30   N4    S    
C15   C16   S    
C18   C19   S    
C17   H8    S    
C25   H32   S    
O3    Zn1   S    
C5    C27   S    
C4    C19   S    
C4    O4    A    
C12   C16   S    
H30   N7    S    
C1    C28   S    
C2    C27   A    
C9    C10   S    
C20   H14   S    
C16   H6    S    
O1    Zn1   S    
C15   N6    S    
C1    O1    A    
C22   N5    S    
C5    H37   S    
C21   H18   S    
C21   H19   S    
C22   H22   S    
O8    Zn2   S    
C6    N1    A    
C8    N2    A    
C26   N7    S    
H17   N4    S    
C18   H10   S    
C6    C11   S    
C24   N6    S    
C22   H25   S    
O5    Zn1   S    
C21   N4    S    
C12   C26   S    
C2    C31   A    
C25   H33   S    
C5    N5    S    
C17   H12   S    
C29   C30   A    
C24   H29   S    
C10   H3    S    
O4    Zn2   S    
C29   H34   S    
C15   N3    S    
C12   C14   S    
C1    O2    A    
N1    Zn2   S    
C3    H35   S    
C21   H20   S    
C23   H23   S    
C11   H5    S    
C13   C31   S    
C3    H36   S    
C14   O8    A    
C3    C5    S    
C7    H38   S    
N2    Zn1   S    
C22   H24   S    
C13   O6    A    
C8    H39   S    
C11   H4    S    
C2    C3    S    
C24   H28   S    
C13   O5    A    
C17   C19   S    
C20   N3    S    
C10   H2    S    
C25   H31   S    
H13   N3    S    
C20   H16   S    
C10   C11   S    
C24   H27   S    
C27   C28   A    
C20   H15   S    
C23   H9    S    
C16   H7    S    
