data_mof_unit_43487.cif
_audit_creation_date              2013-03-05T16:44:36-0500
_audit_creation_method            fapswitch 2.2
_symmetry_space_group_name_H-M    P1
_symmetry_Int_Tables_number       1
_space_group_crystal_system       triclinic
_cell_length_a                    27.626218
_cell_length_b                    10.645641
_cell_length_c                    9.872293
_cell_angle_alpha                 90.069338
_cell_angle_beta                  88.66032
_cell_angle_gamma                 89.880839
_cell_volume                      2902.62730579

loop_
_atom_site_label
_atom_site_type_symbol
_atom_site_description
_atom_site_fract_x
_atom_site_fract_y
_atom_site_fract_z
_atom_type_partial_charge
O1    O     O_R   0.500010 0.316790 0.614690 -0.619349
O2    O     O_R   0.500000 0.316760 0.385350 -0.623605
C1    C     C_R   0.498830 0.259823 0.500052 0.876275
O3    O     O_R   0.428760 0.500040 0.614660 -0.622174
O4    O     O_R   0.428750 0.500000 0.385310 -0.618417
C2    C     C_R   0.406261 0.497959 0.501018 0.861271
Zn1   Zn    Zn3+2 0.500000 0.500020 0.653130 0.937040
Zn2   Zn    Zn3+2 0.500000 0.499980 0.346870 0.979684
O5    O     O_R   0.500000 0.683240 0.614650 -0.622032
O6    O     O_R   0.499990 0.683210 0.385310 -0.630687
O7    O     O_R   0.571250 0.500000 0.614690 -0.638324
O8    O     O_R   0.571240 0.499960 0.385340 -0.530229
C3    C     C_R   0.497552 0.739866 0.500330 0.843475
C4    C     C_R   0.593882 0.498754 0.498862 0.910766
C5    C     C_R   0.179106 0.346097 0.477431 0.505610
O9    O     O_2   0.204671 0.248566 0.425133 -0.561317
N1    N     N_R   0.202549 0.451371 0.520374 -0.354708
C6    C     C_R   0.177799 0.551803 0.574040 0.500359
C7    C     C_R   0.275889 0.551238 0.427710 -0.090595
C8    C     C_R   0.325950 0.564208 0.424368 -0.234111
C9    C     C_R   0.332777 0.386434 0.576593 -0.250438
C10   C     C_R   0.282716 0.374139 0.581039 -0.111982
C11   C     C_R   0.254112 0.457784 0.508257 0.305920
C12   C     C_R   0.102212 0.444528 0.535118 -0.057404
C13   C     C_R   0.128497 0.340017 0.485737 -0.019107
C14   C     C_R   0.103801 0.233239 0.443059 -0.134768
C15   C     C_R   0.127217 0.551126 0.580420 -0.017918
C16   C     C_R   0.354213 0.484091 0.502224 -0.036210
H1    H     H_    0.354777 0.320933 0.632332 0.188458
H2    H     H_    0.266109 0.301362 0.642844 0.161368
H3    H     H_    0.123215 0.152076 0.403534 0.190665
C17   C     C_R   0.646268 0.484878 0.497763 -0.144400
C18   C     C_R   0.974842 0.331512 0.504887 0.063749
C19   C     C_R   0.974340 0.556485 0.563784 -0.031482
C20   C     C_R   0.949237 0.444884 0.531662 0.070434
C21   C     C_R   0.948127 0.220327 0.485427 -0.210061
C22   C     C_R   0.897927 0.222149 0.483179 -0.138389
C23   C     C_R   0.872590 0.334852 0.500568 0.006365
C24   C     C_R   0.898070 0.446717 0.525843 -0.111111
C25   C     C_R   0.872382 0.560386 0.544177 -0.157544
C26   C     C_R   0.821613 0.557404 0.544934 0.516141
N2    N     N_R   0.797853 0.448949 0.513917 -0.341579
C27   C     C_R   0.822105 0.338565 0.492382 0.517060
C28   C     C_R   0.716733 0.384669 0.591173 -0.090904
C29   C     C_R   0.666817 0.399212 0.587869 -0.312956
C30   C     C_R   0.675983 0.557328 0.411021 0.492726
C31   C     C_R   0.725941 0.535752 0.408783 -0.229093
C32   C     C_R   0.746415 0.453313 0.501969 0.250750
O10   O     O_2   0.797465 0.233286 0.461857 -0.578728
C33   C     C_R   0.026128 0.333122 0.497922 0.041918
C34   C     C_R   0.050983 0.443181 0.537572 0.073748
C35   C     C_R   0.025143 0.552791 0.577615 0.076310
C36   C     C_R   0.053564 0.229377 0.449499 -0.221509
H4    H     H_    0.644166 0.344305 0.656480 0.177410
H5    H     H_    0.732385 0.321770 0.664405 0.164407
H6    H     H_    0.965144 0.129759 0.474955 0.134619
H7    H     H_    0.037231 0.145222 0.410764 0.143027
O11   O     O_2   0.202179 0.652051 0.620960 -0.566894
C37   C     C_R   0.101352 0.654608 0.630715 -0.142015
H8    H     H_    0.119791 0.736296 0.669683 0.191900
C38   C     C_R   0.948054 0.669811 0.574843 -0.307909
C39   C     C_R   0.898200 0.673490 0.559148 0.545743
O12   O     O_2   0.795883 0.661244 0.578651 -0.536951
C40   C     C_R   0.051182 0.655680 0.629358 -0.222884
H9    H     H_    0.965627 0.759367 0.586805 0.160590
H10   H     H_    0.033643 0.737662 0.672185 0.148128
C41   C     C_R   0.491223 0.063904 0.623720 0.038704
C42   C     C_R   0.491053 0.128271 0.501173 -0.072630
C43   C     C_R   0.480318 0.064577 0.381148 -0.206959
H11   H     H_    0.476345 0.113434 0.286043 0.158812
C44   C     C_R   0.479060 0.934868 0.381575 -0.208110
H12   H     H_    0.474552 0.885702 0.286593 0.158532
C45   C     C_R   0.488351 0.870941 0.502269 -0.142615
C46   C     C_R   0.488723 0.935931 0.624859 0.011381
C47   C     C_3   0.523641 0.926012 0.739553 0.352000
C48   C     C_3   0.526709 0.068453 0.735927 -0.518890
H13   H     H_    0.558253 0.879856 0.708341 0.100667
H14   H     H_    0.511596 0.115043 0.828348 0.204648
H15   H     H_    0.562753 0.104070 0.701728 0.166705
C49   C     C_R   0.460395 0.461562 0.073796 0.037161
N3    N     N_R   0.499670 0.499140 0.142800 -0.142145
C50   C     C_R   0.536767 0.554342 0.069216 0.496620
C51   C     C_R   0.537498 0.549609 0.924967 -0.192979
H16   H     H_    0.568256 0.586044 0.868107 0.167811
N4    N     N_R   0.499670 0.499180 0.857150 -0.147499
C52   C     C_R   0.459039 0.468382 0.932003 0.030475
C53   C     C_3   0.430976 0.347225 0.927982 0.343390
C54   C     C_3   0.436727 0.336433 0.080590 -0.498573
H17   H     H_    0.450663 0.272388 0.870790 0.104949
H18   H     H_    0.402377 0.336891 0.141042 0.219737
H19   H     H_    0.462494 0.261147 0.108763 0.156322
H20   H     H_    0.253853 0.615154 0.370119 0.144293
O13   O     O_3   0.655896 0.648431 0.329331 -0.621193
C55   C     C_3   0.670660 0.769760 0.371201 0.062572
H21   H     H_    0.664512 0.835339 0.286225 0.171578
H22   H     H_    0.710059 0.775773 0.391620 0.154546
C56   C     C_3   0.640866 0.815263 0.495020 -0.393291
H23   H     H_    0.601640 0.807936 0.474318 0.207955
H24   H     H_    0.648773 0.755353 0.583933 0.220448
C57   C     C_3   0.652876 0.951358 0.529336 -0.908829
H25   H     H_    0.692300 0.961847 0.545882 0.288497
H26   H     H_    0.633113 0.979747 0.623547 0.247173
H27   H     H_    0.641945 0.014556 0.445901 0.261989
O14   O     O_3   0.875663 0.789873 0.560141 -0.601953
C58   C     C_3   0.865691 0.826852 0.425566 0.148111
H28   H     H_    0.839049 0.905076 0.432241 0.193971
H29   H     H_    0.848281 0.750795 0.366334 0.125333
C59   C     C_3   0.911393 0.873435 0.349858 -0.460965
H30   H     H_    0.931205 0.939296 0.415450 0.228980
H31   H     H_    0.935588 0.792632 0.325471 0.224169
C60   C     C_3   0.898941 0.939348 0.217956 -0.895664
H32   H     H_    0.879736 0.873821 0.150092 0.270367
H33   H     H_    0.932755 0.971166 0.165677 0.269215
H34   H     H_    0.875666 0.022668 0.238783 0.271211
H35   H     H_    0.749261 0.587715 0.339274 0.139998
O15   O     O_3   0.506906 0.882067 0.869006 -0.655215
C61   C     C_3   0.457319 0.849184 0.880700 0.132031
H36   H     H_    0.454186 0.776947 0.961568 0.138323
H37   H     H_    0.442912 0.803571 0.788844 0.150334
C62   C     C_3   0.426807 0.963179 0.924805 -0.381170
H38   H     H_    0.443247 0.008035 0.014489 0.220568
H39   H     H_    0.425952 0.033206 0.841803 0.231088
C63   C     C_3   0.374943 0.925425 0.961279 -0.923979
H40   H     H_    0.357656 0.881538 0.872498 0.264095
H41   H     H_    0.353787 0.010107 0.991666 0.286849
H42   H     H_    0.374466 0.858248 0.047326 0.258457
O16   O     O_3   0.574354 0.611238 0.135127 -0.591086
C64   C     C_3   0.566926 0.743090 0.138358 0.176739
H43   H     H_    0.573763 0.775656 0.242882 0.183132
H44   H     H_    0.529179 0.773348 0.116068 0.112615
C65   C     C_3   0.602797 0.808939 0.041615 -0.354079
H45   H     H_    0.640101 0.774950 0.060164 0.242149
H46   H     H_    0.594129 0.786189 0.935267 0.225484
C66   C     C_3   0.601053 0.951420 0.060273 -0.923145
H47   H     H_    0.563931 0.987746 0.044305 0.292461
H48   H     H_    0.626157 0.996613 0.985700 0.266623
H49   H     H_    0.612145 0.977527 0.163932 0.249495
O17   O     O_3   0.381027 0.351641 0.892758 -0.639705
C67   C     C_3   0.358355 0.471894 0.895185 0.139770
H50   H     H_    0.326599 0.464931 0.829238 0.183633
H51   H     H_    0.381015 0.547724 0.849813 0.135472
C68   C     C_3   0.338877 0.508085 0.036965 -0.407180
H52   H     H_    0.322505 0.424592 0.087531 0.253860
H53   H     H_    0.368721 0.543582 0.099612 0.218640
C69   C     C_3   0.300448 0.610946 0.029234 -0.915354
H54   H     H_    0.314787 0.692837 0.971736 0.266770
H55   H     H_    0.289770 0.642300 0.132928 0.262068
H56   H     H_    0.267811 0.574769 0.978430 0.280904
H57   H     H_    0.878986 0.134567 0.467660 0.187816
H58   H     H_    0.342540 0.637921 0.363713 0.147390

loop_
_geom_bond_atom_site_label_1
_geom_bond_atom_site_label_2
_geom_bond_distance
_ccdc_geom_bond_type
C37   H8    1.083486 S    
C53   C54   1.523087 S    
C64   C65   1.531619 S    
O13   C55   1.419269 S    
C26   N2    1.367239 A    
C7    C11   1.402167 A    
C7    C8    1.389793 A    
C48   H15   1.111523 S    
C65   C66   1.528253 S    
C64   H43   1.108685 S    
C69   H56   1.111275 S    
C66   H49   1.110279 S    
N3    C50   1.375533 A    
C63   H40   1.110893 S    
Zn1   N4    2.013983 S    
N4    C52   1.369984 A    
O15   C61   1.416764 S    
C31   H35   1.083352 S    
C58   H29   1.114655 S    
C37   C40   1.386414 A    
N1    C11   1.428488 S    
C21   C22   1.387644 A    
C48   H14   1.110415 S    
C61   H37   1.110481 S    
C69   H54   1.109613 S    
O4    C2    1.287724 A    
C67   C68   1.536150 S    
C63   H41   1.110513 S    
C5    O9    1.349820 S    
C18   C21   1.411493 A    
C25   C39   1.410110 A    
C59   H30   1.107948 S    
N1    C6    1.367458 A    
C19   C20   1.416253 A    
C45   C46   1.393572 A    
Zn2   N3    2.014882 S    
C43   C44   1.381346 A    
O5    C3    1.283260 A    
C49   C52   1.403161 A    
C7    H20   1.082695 S    
C56   H24   1.111168 S    
C6    O11   1.350373 S    
C2    C16   1.445545 S    
C1    C42   1.417303 S    
C8    H58   1.083618 S    
C42   C43   1.402527 A    
C12   C15   1.407653 A    
C62   C63   1.524055 S    
C13   C14   1.396658 A    
C12   C34   1.415010 A    
C14   H3    1.083482 S    
O1    Zn1   1.986722 S    
C9    C10   1.389118 A    
C68   C69   1.526796 S    
C43   H11   1.081609 S    
O3    Zn1   2.013100 S    
O14   C58   1.419120 S    
C69   H55   1.109525 S    
C62   H39   1.109072 S    
C56   H23   1.110341 S    
C39   O14   1.385371 S    
C10   C11   1.399578 A    
C58   C59   1.535587 S    
C33   C36   1.414587 A    
C46   C47   1.508218 S    
C6    C15   1.397373 A    
C34   C35   1.417631 A    
C31   C32   1.400245 A    
C12   C13   1.407685 A    
O3    C2    1.295415 A    
C35   C40   1.413242 A    
C61   C62   1.533009 S    
C4    C17   1.454205 S    
C24   C25   1.410891 A    
C44   C45   1.401540 A    
C36   H7    1.077668 S    
C52   C53   1.507216 S    
C27   O10   1.349902 S    
C63   H42   1.110952 S    
C66   H48   1.110322 S    
C8    C16   1.398114 A    
C55   C56   1.534993 S    
C18   C33   1.417051 A    
C9    H1    1.083154 S    
C57   H27   1.111049 S    
C41   C42   1.391217 A    
O1    C1    1.284454 A    
C40   H10   1.078423 S    
C20   C24   1.416145 A    
C47   C48   1.519335 S    
C22   C23   1.396165 A    
C21   H6    1.075586 S    
C38   H9    1.078379 S    
Zn1   O7    1.995885 S    
C51   H16   1.080343 S    
C54   H19   1.110795 S    
Zn2   O8    2.013100 S    
C57   H26   1.108773 S    
C33   C34   1.418548 A    
C55   H21   1.107962 S    
C60   H33   1.110385 S    
C17   C29   1.403102 A    
N2    C32   1.429348 S    
C55   H22   1.113544 S    
C47   H13   1.111117 S    
C25   C26   1.402815 A    
C51   N4    1.364833 A    
C9    C16   1.398079 A    
C54   H18   1.109145 S    
C29   H4    1.083839 S    
C53   H17   1.109977 S    
C68   H53   1.108899 S    
N2    C27   1.365433 A    
C26   O12   1.350132 S    
C53   O17   1.431586 S    
C65   H45   1.110833 S    
C14   C36   1.388517 A    
C56   C57   1.526437 S    
C62   H38   1.112163 S    
C5    N1    1.367425 A    
C30   C31   1.398330 A    
C10   H2    1.082852 S    
C60   H32   1.110858 S    
C3    C45   1.417847 S    
C17   C30   1.404796 A    
O2    Zn2   1.987595 S    
C28   C29   1.388474 A    
C22   H57   1.082595 S    
C49   N3    1.355380 A    
C65   H46   1.108908 S    
O6    C3    1.285418 A    
C64   H44   1.117650 S    
O4    Zn2   1.995887 S    
C67   H50   1.107194 S    
C66   H47   1.110034 S    
C41   C48   1.497132 S    
C58   H28   1.111101 S    
C19   C35   1.413772 A    
C59   C60   1.525950 S    
O2    C1    1.284809 A    
O8    C4    1.296246 A    
C23   C27   1.399421 A    
C49   C54   1.486029 S    
C28   C32   1.397232 A    
C15   C37   1.396254 A    
C61   H36   1.111196 S    
C67   H51   1.110869 S    
C28   H5    1.082869 S    
C23   C24   1.409589 A    
C30   O13   1.385471 S    
C57   H25   1.110917 S    
C18   C20   1.419092 A    
C59   H31   1.110988 S    
C60   H34   1.110632 S    
C41   C46   1.364295 A    
C19   C38   1.409621 A    
C38   C39   1.390046 A    
C50   O16   1.379050 S    
C5    C13   1.400258 A    
O17   C67   1.423939 S    
Zn1   O5    1.987594 S    
C44   H12   1.083178 S    
Zn2   O6    1.986720 S    
C50   C51   1.424576 A    
C68   H52   1.111746 S    
C47   O15   1.428491 S    
O7    C4    1.290412 A    
O16   C64   1.418361 S    
