data_mof_unit_44437.cif
_audit_creation_date              2012-12-11T15:53:48-0500
_audit_creation_method            fapswitch 2.2
_symmetry_space_group_name_H-M    P1
_symmetry_Int_Tables_number       1
_space_group_crystal_system       triclinic
_cell_length_a                    10.706806
_cell_length_b                    10.682252
_cell_length_c                    16.97191
_cell_angle_alpha                 80.552665
_cell_angle_beta                  99.302494
_cell_angle_gamma                 118.862449
_cell_volume                      1669.29496251

loop_
_atom_site_label
_atom_site_type_symbol
_atom_type_description
_atom_site_fract_x
_atom_site_fract_y
_atom_site_fract_z
_atom_type_partial_charge
C1    C     C_R   0.360311 0.227344 0.626907 0.545210
C2    C     C_R   0.384458 0.829367 0.671977 -0.145918
C3    C     C_R   0.368410 0.851695 0.747940 -0.169191
C4    C     C_3   0.163554 0.452097 0.802098 0.161606
C5    C     C_3   0.179824 0.427540 0.718643 -0.041467
C6    C     C_R   0.314663 0.689434 0.647556 0.003090
C7    C     C_1   0.851357 0.669956 0.702398 -0.024058
C8    C     C_1   0.898592 0.704363 0.769122 -0.031129
C9    C     C_1   0.343559 0.184161 0.709092 -0.046294
C10   C     C_1   0.318985 0.156571 0.777604 -0.044670
C11   C     C_1   0.369131 0.635874 0.274777 -0.083478
C12   C     C_R   0.369466 0.654844 0.585757 0.552998
C13   C     C_1   0.341972 0.653909 0.204151 -0.072838
C14   C     C_R   0.946129 0.719864 0.180009 0.020801
C15   C     C_R   0.973664 0.626360 0.239541 -0.008341
C16   C     C_R   0.937658 0.608668 0.316504 0.018870
C17   C     C_R   0.874801 0.799759 0.283474 -0.157332
C18   C     C_R   0.910779 0.817518 0.205110 -0.144884
C19   C     C_3   0.943218 0.472871 0.243736 -0.079153
C20   C     C_3   0.905130 0.454088 0.329029 -0.263870
C21   C     C_R   0.870279 0.682262 0.336395 0.032158
C22   C     C_R   0.310225 0.134134 0.168884 0.043631
C23   C     C_R   0.781543 0.621380 0.626054 0.560502
C24   C     C_R   0.196802 0.132217 0.199645 -0.041948
C25   C     C_R   0.198195 0.138260 0.278935 0.005867
C26   C     C_R   0.422972 0.130461 0.304706 -0.144418
C27   C     C_R   0.419287 0.118122 0.222730 0.269977
C28   C     C_3   0.122092 0.220996 0.172782 -0.241640
C29   C     C_3   0.123392 0.229829 0.260732 -0.241750
C30   C     C_R   0.318017 0.151814 0.331093 -0.016500
C31   C     C_R   0.948048 0.725320 0.851561 0.525507
C32   C     C_R   0.282419 0.750911 0.882814 0.560824
C33   C     C_R   0.283750 0.113298 0.857495 0.549215
C34   C     C_R   0.349703 0.223535 0.401421 0.546740
C35   C     C_R   0.959127 0.720598 0.095384 0.566552
C36   C     C_R   0.315927 0.697100 0.122669 0.551706
C37   C     C_R   0.284428 0.104488 0.086470 0.561271
C38   C     C_R   0.403061 0.624996 0.358850 0.562920
C39   C     C_R   0.778219 0.625465 0.401868 0.550625
C40   C     C_R   0.281794 0.734723 0.799447 -0.005240
C41   C     C_R   0.194608 0.602531 0.768429 -0.019065
C42   C     C_R   0.209392 0.580160 0.693296 -0.010915
Cr1   Cr    Cr6+3 0.608440 0.389080 0.519680 1.023936
Cr2   Cr    Cr6+3 0.288640 0.400090 0.490760 1.033948
Cr3   Cr    Cr6+3 0.602940 0.710800 0.489510 1.013841
Cr4   Cr    Cr6+3 0.052530 0.947560 0.964210 1.043990
Cr5   Cr    Cr6+3 0.059970 0.626800 0.992920 1.044203
Cr6   Cr    Cr6+3 0.373320 0.938440 0.995370 1.014674
H1    H     H_    0.462285 0.918362 0.636340 0.150424
H2    H     H_    0.790945 0.377805 0.337612 0.165884
H3    H     H_    0.983127 0.436314 0.374978 0.142302
H4    H     H_    0.513877 0.138695 0.346203 0.117107
H5    H     H_    0.012825 0.159089 0.143004 0.166119
H6    H     H_    0.190384 0.325911 0.139900 0.159610
H7    H     H_    0.191095 0.341045 0.277348 0.159174
H8    H     H_    0.015261 0.174339 0.282486 0.133423
H9    H     H_    0.432379 0.957260 0.768702 0.143687
H10   H     H_    0.051651 0.390189 0.818937 0.154333
H11   H     H_    0.271811 0.409952 0.713498 0.097369
H12   H     H_    0.835862 0.867594 0.299563 0.122146
H13   H     H_    0.898487 0.899325 0.162903 0.136748
H14   H     H_    0.041024 0.463325 0.240721 0.113603
O1    O     O_R   0.754020 0.497590 0.609930 -0.478378
O2    O     O_R   0.295080 0.533620 0.397890 -0.504510
O3    O     O_R   0.485280 0.746620 0.388440 -0.532326
O4    O     O_R   0.720550 0.696220 0.420010 -0.523376
O5    O     O_3   0.500010 0.499990 0.499980 -0.274182
O6    O     O_R   0.163320 0.092900 0.874450 -0.455514
O7    O     O_R   0.934650 0.822080 0.882840 -0.472918
O8    O     O_R   0.915520 0.604140 0.893670 -0.514701
O9    O     O_R   0.191760 0.638110 0.923230 -0.472589
O10   O     O_R   0.406180 0.826930 0.920660 -0.515328
O11   O     O_R   0.358620 0.062870 0.901950 -0.531233
O12   O     O_R   0.481420 0.271390 0.600630 -0.501392
O13   O     O_R   0.163910 0.085460 0.050210 -0.527266
O14   O     O_R   0.935200 0.815170 0.045770 -0.505780
O15   O     O_R   0.916120 0.596690 0.069430 -0.465879
O16   O     O_R   0.192310 0.631200 0.086170 -0.505266
O17   O     O_R   0.406770 0.819480 0.096420 -0.507175
O18   O     O_R   0.359170 0.055960 0.064880 -0.451674
O19   O     O_3   0.161940 0.837600 0.984160 -0.333767
O20   O     O_R   0.263810 0.254550 0.589590 -0.492055
O21   O     O_R   0.300820 0.531200 0.560890 -0.479229
O22   O     O_R   0.491480 0.744020 0.564270 -0.515342
O23   O     O_R   0.726290 0.693800 0.583010 -0.491950
O24   O     O_R   0.747830 0.500190 0.434090 -0.511346
O25   O     O_R   0.475680 0.273800 0.437630 -0.509438
O26   O     O_R   0.257620 0.257160 0.413750 -0.527965
C43   C     C_2   0.818121 0.385226 0.187256 0.628053
O27   O     O_2   0.705901 0.391481 0.182234 -0.481658
O28   O     O_R   0.835722 0.306933 0.135600 -0.708494
H15   H     H_    0.749746 0.263908 0.094837 0.349458
O29   O     O_3   0.527126 0.108237 0.191883 -0.513548
C44   C     C_3   0.585652 0.029733 0.245497 0.025996
H16   H     H_    0.499101 0.930448 0.272974 0.156773
H17   H     H_    0.660651 0.096243 0.293296 0.115958
C45   C     C_3   0.670991 0.988510 0.200559 -0.325547
H18   H     H_    0.787194 0.052620 0.217365 0.109981
H19   H     H_    0.640976 0.873091 0.215658 0.114540
H20   H     H_    0.651826 0.008607 0.134636 0.204980
O30   O     O_3   0.261204 0.440637 0.867579 -0.526878
C46   C     C_3   0.406179 0.502823 0.851102 -0.000829
H21   H     H_    0.441950 0.605086 0.811522 0.136646
H22   H     H_    0.423113 0.426347 0.823036 0.120652
C47   C     C_3   0.501631 0.532913 0.929816 -0.320253
H23   H     H_    0.472860 0.431412 0.969803 0.170058
H24   H     H_    0.615598 0.580453 0.918059 0.139786
H25   H     H_    0.488243 0.609360 0.960378 0.188000
C48   C     C_2   0.042068 0.319321 0.678221 0.574820
O31   O     O_2   0.995282 0.191935 0.702191 -0.503984
O32   O     O_R   0.969168 0.363495 0.613144 -0.675232
H26   H     H_    0.878588 0.280214 0.591355 0.328810

loop_
_geom_bond_atom_site_label_1
_geom_bond_atom_site_label_2
_ccdc_geom_bond_type
C5    C42   S    
C16   C21   A    
C41   C42   A    
C14   C18   A    
O32   H26   S    
Cr2   O21   S    
Cr4   O14   S    
C45   H18   S    
Cr1   O1    S    
C7    C8    T    
C32   O10   A    
Cr2   O2    S    
C15   C19   S    
C47   H24   S    
C26   C27   A    
O29   C44   S    
C1    O12   A    
Cr6   O17   S    
C28   C29   S    
C20   H3    S    
Cr2   O20   S    
C48   O32   S    
C6    C12   S    
C46   H22   S    
C4    C41   S    
C19   H14   S    
C15   C16   A    
Cr6   O19   S    
C12   O22   A    
C46   C47   S    
Cr4   O7    S    
C20   H2    S    
C31   O8    A    
C19   C20   S    
Cr3   O5    S    
C43   O28   S    
C9    C10   T    
Cr1   O12   S    
C23   O1    A    
C37   O13   A    
Cr1   O24   S    
C2    C6    A    
Cr6   O10   S    
Cr4   O13   S    
C45   H19   S    
C32   O9    A    
C38   O2    A    
C25   C29   S    
C47   H25   S    
C35   O14   A    
C30   C34   S    
O30   C46   S    
C1    C9    S    
C24   C25   A    
C13   C36   S    
C14   C35   S    
C28   H6    S    
Cr5   O19   S    
C29   H7    S    
C44   C45   S    
C1    O20   A    
C22   C37   S    
C35   O15   A    
C17   C21   A    
C12   O21   A    
C11   C38   S    
Cr3   O23   S    
Cr5   O8    S    
Cr4   O6    S    
C37   O18   A    
C19   C43   S    
C2    H1    S    
C26   H4    S    
Cr4   O19   S    
C21   C39   S    
C38   O3    A    
C16   C20   S    
C4    O30   S    
C17   C18   A    
C44   H16   S    
C34   O26   A    
C44   H17   S    
Cr5   O9    S    
C3    H9    S    
C5    H11   S    
C33   O11   A    
C40   C41   A    
C3    C40   A    
C26   C30   A    
C22   C27   A    
Cr3   O3    S    
C39   O4    A    
C22   C24   A    
C27   O29   S    
Cr3   O22   S    
Cr5   O15   S    
O28   H15   S    
C45   H20   S    
C25   C30   A    
C8    C31   S    
Cr6   O11   S    
C24   C28   S    
C4    C5    S    
C36   O17   A    
C28   H5    S    
C18   H13   S    
C29   H8    S    
C47   H23   S    
C39   O24   A    
Cr1   O25   S    
Cr6   O18   S    
C2    C3    A    
C23   O23   A    
C36   O16   A    
C48   O31   D    
C11   C13   T    
C5    C48   S    
C7    C23   S    
C10   C33   S    
C34   O25   A    
C32   C40   S    
C46   H21   S    
C17   H12   S    
C31   O7    A    
Cr1   O5    S    
C6    C42   A    
C4    H10   S    
Cr3   O4    S    
C14   C15   A    
Cr2   O5    S    
Cr5   O16   S    
C43   O27   D    
Cr2   O26   S    
C33   O6    A    
