data_mof_unit_10372.cif
_audit_creation_date              2013-03-05T15:54:54-0500
_audit_creation_method            fapswitch 2.2
_symmetry_space_group_name_H-M    P1
_symmetry_Int_Tables_number       1
_space_group_crystal_system       triclinic
_cell_length_a                    17.516285
_cell_length_b                    17.432487
_cell_length_c                    17.939056
_cell_angle_alpha                 90.329472
_cell_angle_beta                  90.275347
_cell_angle_gamma                 90.181598
_cell_volume                      5477.55217852

loop_
_atom_site_label
_atom_site_type_symbol
_atom_site_description
_atom_site_fract_x
_atom_site_fract_y
_atom_site_fract_z
_atom_type_partial_charge
C1    C     C_R   0.405115 0.315375 0.872133 0.131171
C2    C     C_R   0.697988 0.396527 0.901162 0.156853
C3    C     C_R   0.592686 0.683549 0.871332 0.150374
C4    C     C_R   0.301762 0.603735 0.901431 0.201618
C5    C     C_R   0.397706 0.694574 0.109084 0.167128
C6    C     C_R   0.682439 0.590835 0.130693 0.124888
C7    C     C_R   0.602606 0.303267 0.103647 0.129822
C8    C     C_R   0.304424 0.394576 0.104221 0.195853
C9    C     C_R   0.891211 0.803924 0.398093 0.187432
C10   C     C_R   0.182836 0.907086 0.371182 0.133520
C11   C     C_R   0.102527 0.194955 0.391876 0.139883
C12   C     C_R   0.804724 0.103786 0.394517 0.142910
C13   C     C_R   0.899051 0.194039 0.611274 0.158598
C14   C     C_R   0.196522 0.106069 0.600335 0.145122
C15   C     C_R   0.109277 0.802987 0.595948 0.220621
C16   C     C_R   0.809544 0.897465 0.615342 0.164310
N1    N     N_R   0.425360 0.368540 0.922560 -0.093503
N2    N     N_R   0.631460 0.425360 0.922560 -0.101314
N3    N     N_R   0.574640 0.631460 0.922560 -0.092668
N4    N     N_R   0.368540 0.574640 0.922560 -0.099562
N5    N     N_R   0.425360 0.631460 0.077440 -0.097259
N6    N     N_R   0.631460 0.574640 0.077440 -0.096373
N7    N     N_R   0.574640 0.368540 0.077440 -0.096132
N8    N     N_R   0.368540 0.425360 0.077440 -0.096601
N9    N     N_R   0.925360 0.868540 0.422560 -0.097035
N10   N     N_R   0.131460 0.925360 0.422560 -0.093790
N11   N     N_R   0.074640 0.131460 0.422560 -0.101305
N12   N     N_R   0.868540 0.074640 0.422560 -0.100470
N13   N     N_R   0.925360 0.131460 0.577440 -0.100803
N14   N     N_R   0.131460 0.074640 0.577440 -0.100241
N15   N     N_R   0.074640 0.868540 0.577440 -0.103291
N16   N     N_R   0.868540 0.925360 0.577440 -0.097497
C17   C     C_3   0.911009 0.227885 0.795051 0.446347
C18   C     C_3   0.799987 0.867689 0.814816 0.446238
C19   C     C_3   0.098390 0.677399 0.728867 0.438127
C20   C     C_3   0.218437 0.119797 0.785730 0.444305
C21   C     C_3   0.678267 0.695202 0.408118 0.420184
C22   C     C_3   0.780354 0.095954 0.210679 0.435645
C23   C     C_3   0.106462 0.201404 0.203578 0.450243
C24   C     C_3   0.148772 0.851065 0.154613 0.446312
C25   C     C_3   0.203826 0.812592 0.098009 0.440634
C26   C     C_3   0.151167 0.226194 0.132920 0.455280
C27   C     C_3   0.735536 0.127472 0.142373 0.451475
C28   C     C_3   0.635506 0.645300 0.348389 0.441152
C29   C     C_3   0.249073 0.170265 0.851591 0.448807
C30   C     C_3   0.134974 0.632255 0.794872 0.421973
C31   C     C_3   0.755150 0.817843 0.872240 0.437108
C32   C     C_3   0.876959 0.268274 0.864807 0.451525
C33   C     C_R   0.388952 0.694835 0.900252 0.613644
C34   C     C_R   0.312671 0.402964 0.877173 0.647895
C35   C     C_R   0.612515 0.304570 0.902322 0.618553
C36   C     C_R   0.682938 0.593013 0.871587 0.665374
C37   C     C_R   0.394986 0.306714 0.109676 0.659019
C38   C     C_R   0.313855 0.599672 0.123197 0.650277
C39   C     C_R   0.590002 0.678649 0.134340 0.669962
C40   C     C_R   0.693610 0.391029 0.105708 0.645370
C41   C     C_R   0.896401 0.191410 0.385906 0.648136
C42   C     C_R   0.804732 0.895855 0.394258 0.648802
C43   C     C_R   0.086801 0.822112 0.364998 0.666177
C44   C     C_R   0.191881 0.104995 0.387613 0.673227
C45   C     C_R   0.902456 0.809470 0.616787 0.652818
C46   C     C_R   0.811626 0.101304 0.619489 0.667429
C47   C     C_R   0.105981 0.194946 0.605646 0.656516
C48   C     C_R   0.192331 0.897351 0.612109 0.647697
N17   N     N_R   0.425340 0.631500 0.922560 -0.112637
N18   N     N_R   0.368500 0.425340 0.922560 -0.118917
N19   N     N_R   0.574660 0.368500 0.922560 -0.119459
N20   N     N_R   0.631500 0.574660 0.922560 -0.128388
N21   N     N_R   0.425340 0.368500 0.077440 -0.127088
N22   N     N_R   0.368500 0.574660 0.077440 -0.127328
N23   N     N_R   0.574660 0.631500 0.077440 -0.125354
N24   N     N_R   0.631500 0.425340 0.077440 -0.120791
N25   N     N_R   0.925340 0.131500 0.422560 -0.124164
N26   N     N_R   0.868500 0.925340 0.422560 -0.127714
N27   N     N_R   0.074660 0.868500 0.422560 -0.123585
N28   N     N_R   0.131500 0.074660 0.422560 -0.124733
N29   N     N_R   0.925340 0.868500 0.577440 -0.122546
N30   N     N_R   0.868500 0.074660 0.577440 -0.123881
N31   N     N_R   0.074660 0.131500 0.577440 -0.123410
N32   N     N_R   0.131500 0.925340 0.577440 -0.119888
Ni1   Ni    Ni4+2 0.500000 0.369720 0.000000 0.213214
Ni2   Ni    Ni4+2 0.630280 0.500000 0.000000 0.203089
Ni3   Ni    Ni4+2 0.500000 0.630280 0.000000 0.216998
Ni4   Ni    Ni4+2 0.369720 0.500000 0.000000 0.199415
Ni5   Ni    Ni4+2 1.000000 0.869720 0.500000 0.204081
Ni6   Ni    Ni4+2 0.130280 1.000000 0.500000 0.211609
Ni7   Ni    Ni4+2 0.000000 0.130280 0.500000 0.206024
Ni8   Ni    Ni4+2 0.869720 1.000000 0.500000 0.207384
C49   C     C_R   0.335295 0.336811 0.843942 -0.141749
C50   C     C_R   0.687475 0.320759 0.885319 -0.122648
C51   C     C_R   0.659827 0.659658 0.839862 -0.156715
C52   C     C_R   0.314661 0.677088 0.879766 -0.111970
C53   C     C_R   0.329411 0.674936 0.139640 -0.178680
C54   C     C_R   0.653977 0.652354 0.169244 -0.157745
C55   C     C_R   0.676823 0.316007 0.124097 -0.135557
C56   C     C_R   0.320684 0.321281 0.127399 -0.178750
C57   C     C_R   0.817273 0.820878 0.379615 -0.167353
C58   C     C_R   0.152700 0.845642 0.332580 -0.174629
C59   C     C_R   0.173334 0.178027 0.366284 -0.131043
C60   C     C_R   0.822602 0.173712 0.366311 -0.130173
C61   C     C_R   0.831500 0.173799 0.643362 -0.144401
C62   C     C_R   0.180844 0.179543 0.620480 -0.135154
C63   C     C_R   0.177370 0.821887 0.628602 -0.139233
C64   C     C_R   0.832516 0.827967 0.643115 -0.161140
C65   C     C_R   0.808063 0.289700 0.816348 -0.019182
C66   C     C_R   0.720857 0.777773 0.805097 -0.034053
C67   C     C_R   0.201549 0.689466 0.790496 -0.003542
C68   C     C_R   0.283713 0.219959 0.792536 -0.028431
C69   C     C_R   0.697875 0.669013 0.295874 -0.022180
C70   C     C_R   0.710395 0.194581 0.192036 -0.021761
C71   C     C_R   0.202679 0.272565 0.184925 -0.025881
C72   C     C_R   0.254241 0.791439 0.164184 -0.038918
C73   C     C_R   0.206097 0.828385 0.212402 -0.010260
C74   C     C_R   0.167199 0.243390 0.247146 -0.015273
C75   C     C_R   0.746791 0.162758 0.252911 -0.012011
C76   C     C_R   0.736632 0.711098 0.348706 -0.013173
C77   C     C_R   0.253085 0.179761 0.734683 -0.026686
C78   C     C_R   0.174100 0.719103 0.724867 -0.020684
C79   C     C_R   0.761516 0.819379 0.755364 -0.018816
C80   C     C_R   0.840371 0.254280 0.755002 -0.005608
C81   C     C_R   0.728377 0.281624 0.826423 0.115617
C82   C     C_R   0.704229 0.701295 0.789681 0.138876
C83   C     C_R   0.272794 0.714597 0.819890 0.083964
C84   C     C_R   0.293612 0.298583 0.787573 0.155888
C85   C     C_R   0.695324 0.694646 0.222737 0.143819
C86   C     C_R   0.714148 0.275354 0.183977 0.117606
C87   C     C_R   0.281849 0.282526 0.186437 0.142613
C88   C     C_R   0.286080 0.721609 0.187606 0.131134
C89   C     C_R   0.194337 0.800387 0.283188 0.149925
C90   C     C_R   0.209756 0.221689 0.309835 0.086379
C91   C     C_R   0.778410 0.208843 0.309427 0.093412
C92   C     C_R   0.773600 0.778223 0.327829 0.142072
C93   C     C_R   0.226303 0.219563 0.672315 0.083311
C94   C     C_R   0.213114 0.777385 0.686632 0.078329
C95   C     C_R   0.789528 0.783549 0.691835 0.108417
C96   C     C_R   0.795542 0.218142 0.700236 0.093766
C97   C     C_R   0.233729 0.736955 0.309871 -0.167546
C98   C     C_R   0.287376 0.237832 0.314111 -0.142182
C99   C     C_R   0.771551 0.287945 0.306950 -0.136793
C100  C     C_R   0.779028 0.798815 0.252722 -0.183915
C101  C     C_R   0.239709 0.298096 0.664218 -0.124965
C102  C     C_R   0.284441 0.800555 0.714084 -0.168966
C103  C     C_R   0.771952 0.707359 0.674564 -0.156316
C104  C     C_R   0.716635 0.220448 0.704743 -0.140946
C105  C     C_R   0.683356 0.251225 0.767607 -0.174322
C106  C     C_R   0.727614 0.666107 0.723494 -0.154205
C107  C     C_R   0.312506 0.771603 0.780192 -0.206222
C108  C     C_R   0.274666 0.337861 0.722176 -0.187107
C109  C     C_R   0.738954 0.757208 0.199793 -0.142987
C110  C     C_R   0.739989 0.321079 0.244382 -0.168436
C111  C     C_R   0.323193 0.269335 0.252806 -0.149169
C112  C     C_R   0.279562 0.696836 0.261409 -0.126406
H1    H     H_    0.227902 0.718298 0.367104 0.140489
H2    H     H_    0.320310 0.223998 0.363485 0.169633
H3    H     H_    0.793508 0.324011 0.351582 0.174988
H4    H     H_    0.813110 0.847545 0.235635 0.125093
H5    H     H_    0.221137 0.328394 0.614814 0.164505
H6    H     H_    0.319336 0.842197 0.685871 0.213735
H7    H     H_    0.793548 0.679850 0.624882 0.174053
H8    H     H_    0.680807 0.195862 0.661358 0.182991
H9    H     H_    0.621754 0.251153 0.769494 0.141061
H10   H     H_    0.713259 0.606877 0.710986 0.149365
H11   H     H_    0.367897 0.792563 0.797630 0.185152
H12   H     H_    0.285703 0.398782 0.716762 0.134119
H13   H     H_    0.740779 0.774138 0.141769 0.139663
H14   H     H_    0.736373 0.383099 0.243407 0.147733
H15   H     H_    0.383576 0.282430 0.256968 0.155558
H16   H     H_    0.308276 0.645548 0.280643 0.140796
C113  C     C_3   0.450919 0.247699 0.848179 -0.793133
H17   H     H_    0.422737 0.211937 0.805298 0.215554
H18   H     H_    0.502308 0.268570 0.819612 0.237246
H19   H     H_    0.461983 0.210655 0.896931 0.294958
C114  C     C_3   0.770690 0.426420 0.932559 -0.695980
H20   H     H_    0.792862 0.383768 0.972207 0.238730
H21   H     H_    0.811490 0.438138 0.887146 0.269345
H22   H     H_    0.760917 0.479344 0.965319 0.269952
C115  C     C_3   0.549028 0.754459 0.852263 -0.816064
H23   H     H_    0.579739 0.792306 0.813400 0.220881
H24   H     H_    0.497003 0.738185 0.821063 0.232613
H25   H     H_    0.537811 0.788012 0.903632 0.291909
C116  C     C_3   0.232563 0.587747 0.946591 -0.932963
H26   H     H_    0.193421 0.636091 0.943097 0.255282
H27   H     H_    0.203096 0.534131 0.933147 0.311696
H28   H     H_    0.247326 0.586135 0.005042 0.248008
C117  C     C_3   0.422787 0.774489 0.091402 -0.625520
H29   H     H_    0.377068 0.804521 0.061692 0.227443
H30   H     H_    0.435457 0.806818 0.143509 0.249347
H31   H     H_    0.472397 0.774008 0.053225 0.284276
C118  C     C_3   0.765403 0.570747 0.128374 -0.752407
H32   H     H_    0.779262 0.530942 0.174472 0.270840
H33   H     H_    0.780514 0.547155 0.073088 0.273390
H34   H     H_    0.801165 0.622903 0.135825 0.208389
C119  C     C_3   0.574925 0.227964 0.076049 -0.653681
H35   H     H_    0.620307 0.203396 0.041532 0.238458
H36   H     H_    0.560364 0.190070 0.123305 0.261734
H37   H     H_    0.525808 0.234915 0.037650 0.290762
C120  C     C_3   0.227371 0.418150 0.078025 -0.716673
H38   H     H_    0.208952 0.378411 0.033615 0.220919
H39   H     H_    0.186311 0.420170 0.124850 0.254467
H40   H     H_    0.229751 0.473645 0.050294 0.274312
C121  C     C_3   0.915257 0.724066 0.416243 -0.695171
H41   H     H_    0.871928 0.696172 0.451895 0.209667
H42   H     H_    0.921672 0.689961 0.364222 0.259059
H43   H     H_    0.968726 0.724811 0.447783 0.269123
C122  C     C_3   0.266427 0.924546 0.376629 -0.728764
H44   H     H_    0.284078 0.960335 0.328738 0.270681
H45   H     H_    0.280002 0.952086 0.430827 0.278472
H46   H     H_    0.300033 0.870720 0.374839 0.204216
C123  C     C_3   0.081276 0.275024 0.413617 -0.693420
H47   H     H_    0.058239 0.306368 0.364940 0.266166
H48   H     H_    0.040175 0.274323 0.459658 0.283667
H49   H     H_    0.132549 0.306531 0.434104 0.208132
C124  C     C_3   0.726536 0.085948 0.423220 -0.725852
H50   H     H_    0.690437 0.059970 0.379017 0.269003
H51   H     H_    0.730482 0.047575 0.471683 0.274956
H52   H     H_    0.698292 0.139438 0.442479 0.206415
C125  C     C_3   0.912188 0.273695 0.582556 -0.763927
H53   H     H_    0.947210 0.308560 0.621168 0.277886
H54   H     H_    0.939388 0.271090 0.527490 0.270095
H55   H     H_    0.856864 0.303734 0.574948 0.210329
C126  C     C_3   0.273814 0.082621 0.573330 -0.688471
H56   H     H_    0.309637 0.063319 0.620683 0.258503
H57   H     H_    0.268560 0.036930 0.530641 0.286585
H58   H     H_    0.302900 0.132101 0.546786 0.214477
C127  C     C_3   0.112164 0.738918 0.540159 -0.858631
H59   H     H_    0.149268 0.691874 0.559470 0.232138
H60   H     H_    0.054741 0.717424 0.527640 0.270305
H61   H     H_    0.139774 0.758930 0.488551 0.225971
C128  C     C_3   0.727359 0.916205 0.601474 -0.722391
H62   H     H_    0.701976 0.942231 0.652080 0.272908
H63   H     H_    0.721275 0.953947 0.552728 0.279663
H64   H     H_    0.694806 0.862935 0.588931 0.197125
C129  C     C_3   0.918587 0.139589 0.799521 -0.982303
H65   H     H_    0.862742 0.111509 0.809947 0.248471
H66   H     H_    0.941043 0.115647 0.746558 0.244932
H67   H     H_    0.959218 0.124077 0.844610 0.260468
C130  C     C_3   0.887644 0.860228 0.816496 -0.986755
H68   H     H_    0.905334 0.799719 0.811195 0.250277
H69   H     H_    0.913616 0.892279 0.769618 0.245388
H70   H     H_    0.910613 0.884202 0.869538 0.256327
C131  C     C_3   0.035087 0.735151 0.750762 -0.906366
H71   H     H_    0.049746 0.767310 0.802521 0.223755
H72   H     H_    0.026703 0.778947 0.707623 0.264930
H73   H     H_    0.979817 0.704847 0.758006 0.273301
C132  C     C_3   0.131049 0.111183 0.780393 -0.999482
H74   H     H_    0.104157 0.167022 0.770423 0.248919
H75   H     H_    0.114293 0.072805 0.733529 0.247347
H76   H     H_    0.108350 0.086011 0.832517 0.259263
C133  C     C_3   0.713652 0.652187 0.474340 -0.989752
H77   H     H_    0.668015 0.627209 0.509524 0.258151
H78   H     H_    0.753082 0.606106 0.456151 0.247358
H79   H     H_    0.747377 0.693137 0.508645 0.245877
C134  C     C_3   0.868262 0.099825 0.205416 -0.990293
H80   H     H_    0.887263 0.159482 0.196749 0.251330
H81   H     H_    0.895552 0.079357 0.257565 0.242677
H82   H     H_    0.888814 0.063042 0.159003 0.258400
C135  C     C_3   0.100943 0.114405 0.216844 -1.013449
H83   H     H_    0.158078 0.088386 0.224671 0.251231
H84   H     H_    0.066878 0.101564 0.267236 0.246783
H85   H     H_    0.071313 0.087116 0.168689 0.269114
C136  C     C_3   0.070039 0.811937 0.164364 -0.886397
H86   H     H_    0.075584 0.750912 0.180823 0.264509
H87   H     H_    0.036740 0.841236 0.208634 0.249926
H88   H     H_    0.036901 0.815335 0.111579 0.238664
C137  C     C_3   0.241946 0.868957 0.043046 -0.946216
H89   H     H_    0.197616 0.902375 0.013152 0.251913
H90   H     H_    0.281434 0.909214 0.072214 0.242323
H91   H     H_    0.274471 0.837987 0.999369 0.278100
C138  C     C_3   0.103116 0.272769 0.076940 -0.981630
H92   H     H_    0.052143 0.239099 0.059441 0.253680
H93   H     H_    0.084560 0.328574 0.100597 0.254955
H94   H     H_    0.134681 0.283209 0.025222 0.260659
C139  C     C_3   0.669752 0.073359 0.116177 -0.944813
H95   H     H_    0.691472 0.014525 0.106441 0.255003
H96   H     H_    0.622908 0.071220 0.157620 0.246271
H97   H     H_    0.645774 0.088685 0.061365 0.263076
C140  C     C_3   0.555228 0.673186 0.325008 -0.923882
H98   H     H_    0.556401 0.732705 0.303442 0.269671
H99   H     H_    0.531409 0.635989 0.280078 0.241927
H100  H     H_    0.515947 0.670390 0.373304 0.243828
C141  C     C_3   0.308667 0.133290 0.903598 -0.943262
H101  H     H_    0.281431 0.086722 0.936144 0.259848
H102  H     H_    0.357705 0.109235 0.872533 0.246757
H103  H     H_    0.331506 0.176586 0.943580 0.259903
C142  C     C_3   0.163834 0.550947 0.773377 -0.887276
H104  H     H_    0.193784 0.550353 0.719059 0.213281
H105  H     H_    0.207257 0.531195 0.812324 0.299335
H106  H     H_    0.116316 0.508619 0.772186 0.271212
C143  C     C_3   0.695385 0.860586 0.919567 -0.943471
H107  H     H_    0.724272 0.903367 0.956212 0.253356
H108  H     H_    0.652409 0.890295 0.884592 0.244778
H109  H     H_    0.664302 0.819676 0.955752 0.258977
C144  C     C_3   0.926557 0.336410 0.893746 -0.950694
H110  H     H_    0.985520 0.316827 0.905611 0.259683
H111  H     H_    0.928445 0.384190 0.853154 0.244802
H112  H     H_    0.907705 0.358773 0.948168 0.262465
C145  C     C_3   0.983520 0.264902 0.762650 -0.916122
H113  H     H_    0.030530 0.263624 0.803827 0.242356
H114  H     H_    0.002730 0.232289 0.713467 0.277132
H115  H     H_    0.973997 0.325426 0.746190 0.246930
C146  C     C_3   0.776203 0.952591 0.808272 -0.919235
H116  H     H_    0.790766 0.984009 0.860479 0.248809
H117  H     H_    0.807030 0.980272 0.761552 0.259884
H118  H     H_    0.714245 0.958802 0.796630 0.245755
C147  C     C_3   0.071459 0.623449 0.665202 -0.872762
H119  H     H_    0.036955 0.575919 0.688698 0.247677
H120  H     H_    0.032080 0.652045 0.626969 0.317770
H121  H     H_    0.119293 0.598291 0.633347 0.217752
C148  C     C_3   0.257490 0.041130 0.776032 -0.910081
H122  H     H_    0.247238 0.004941 0.825749 0.254137
H123  H     H_    0.233421 0.010456 0.727065 0.281467
H124  H     H_    0.319904 0.047003 0.766975 0.237539
C149  C     C_3   0.636904 0.768521 0.434649 -0.860045
H125  H     H_    0.585168 0.752987 0.466797 0.236495
H126  H     H_    0.675095 0.802887 0.471373 0.262582
H127  H     H_    0.620379 0.805837 0.387361 0.264415
C150  C     C_3   0.754990 0.017004 0.240105 -0.893677
H128  H     H_    0.766706 0.971922 0.197875 0.234320
H129  H     H_    0.788886 0.001642 0.289640 0.265479
H130  H     H_    0.693590 0.015732 0.254985 0.258462
C151  C     C_3   0.028448 0.240498 0.215561 -0.905425
H131  H     H_    0.989329 0.226511 0.168849 0.245078
H132  H     H_    0.001886 0.220000 0.267627 0.282636
H133  H     H_    0.033925 0.303928 0.219599 0.246651
C152  C     C_3   0.140794 0.938733 0.152162 -1.013982
H134  H     H_    0.108309 0.956075 0.101736 0.257543
H135  H     H_    0.108978 0.957966 0.202191 0.260228
H136  H     H_    0.197024 0.968327 0.152988 0.256287
C153  C     C_3   0.173683 0.741822 0.056405 -0.963741
H137  H     H_    0.128344 0.758048 0.016064 0.251249
H138  H     H_    0.222745 0.717867 0.026084 0.256472
H139  H     H_    0.152133 0.696743 0.094391 0.273982
C154  C     C_3   0.196472 0.162338 0.092599 -0.940473
H140  H     H_    0.156903 0.121722 0.064068 0.250568
H141  H     H_    0.234718 0.188146 0.050500 0.259937
H142  H     H_    0.233578 0.130018 0.131619 0.253411
C155  C     C_3   0.783823 0.152783 0.076080 -0.979888
H143  H     H_    0.813985 0.102799 0.051527 0.261433
H144  H     H_    0.745729 0.177015 0.032933 0.262914
H145  H     H_    0.825961 0.197623 0.092255 0.254632
C156  C     C_3   0.636204 0.557713 0.360107 -0.965343
H146  H     H_    0.602337 0.542762 0.410155 0.256834
H147  H     H_    0.610596 0.528079 0.310963 0.243848
H148  H     H_    0.695046 0.535130 0.366551 0.239374
C157  C     C_3   0.189052 0.215004 0.896583 -0.952572
H149  H     H_    0.154025 0.175040 0.930196 0.254277
H150  H     H_    0.218627 0.256322 0.934175 0.255010
H151  H     H_    0.151020 0.249116 0.860097 0.254261
C158  C     C_3   0.080721 0.630236 0.863150 -0.946081
H152  H     H_    0.020826 0.620931 0.844865 0.257279
H153  H     H_    0.090705 0.580080 0.899241 0.271095
H154  H     H_    0.083951 0.684148 0.896275 0.234330
C159  C     C_3   0.803106 0.763150 0.921161 -0.916588
H155  H     H_    0.841141 0.796829 0.958786 0.243037
H156  H     H_    0.765171 0.727185 0.956151 0.246345
H157  H     H_    0.838074 0.723336 0.887057 0.255857
C160  C     C_3   0.854874 0.216300 0.929598 -0.979683
H158  H     H_    0.906438 0.189612 0.954538 0.260599
H159  H     H_    0.827254 0.252562 0.972393 0.262451
H160  H     H_    0.813769 0.170900 0.912295 0.256044
F1    F     F_    0.408513 0.766267 0.923365 -0.748420
F2    F     F_    0.239323 0.424778 0.881576 -0.752479
F3    F     F_    0.589251 0.231982 0.914994 -0.746463
F4    F     F_    0.751708 0.560317 0.861021 -0.733084
F5    F     F_    0.429690 0.239167 0.122383 -0.731188
F6    F     F_    0.249781 0.561823 0.143172 -0.722431
F7    F     F_    0.559975 0.748402 0.146909 -0.736264
F8    F     F_    0.765843 0.417325 0.101124 -0.746396
F9    F     F_    0.928087 0.261722 0.380727 -0.749185
F10   F     F_    0.734823 0.927890 0.398344 -0.739154
F11   F     F_    0.050127 0.755809 0.349389 -0.725476
F12   F     F_    0.264409 0.079888 0.392457 -0.743681
F13   F     F_    0.932339 0.738419 0.612465 -0.753820
F14   F     F_    0.741813 0.069675 0.626232 -0.746487
F15   F     F_    0.076026 0.266054 0.600804 -0.744035
F16   F     F_    0.261743 0.930750 0.612779 -0.759148

loop_
_geom_bond_atom_site_label_1
_geom_bond_atom_site_label_2
_geom_bond_distance
_ccdc_geom_bond_type
C48   C63   1.374724 A    
C160  H158  1.110668 S    
C64   C95   1.393138 S    
C47   F15   1.350693 S    
C25   C137  1.548161 S    
C37   N21   1.335547 A    
N31   Ni7   1.903313 S    
C155  H143  1.110468 S    
C154  H140  1.110399 S    
C141  H103  1.110524 S    
N6    Ni2   1.897916 S    
C10   C122  1.497173 S    
C14   C62   1.358092 A    
C127  H61   1.104388 S    
N9    N26   1.406644 A    
C145  H114  1.101449 S    
C2    C50   1.361209 A    
N32   Ni6   1.909174 S    
C16   C64   1.373338 A    
N13   N30   1.402193 A    
N5    Ni3   1.912311 S    
C6    C54   1.369348 A    
C51   C82   1.397417 S    
C3    N3    1.334008 A    
C27   C70   1.533395 S    
C5    C117  1.495638 S    
C104  H8    1.083057 S    
N22   Ni4   1.898401 S    
C31   C159  1.546735 S    
C29   C68   1.501436 S    
C46   C61   1.375223 A    
C17   C145  1.540682 S    
C98   H2    1.083454 S    
C148  H123  1.106770 S    
C77   C93   1.399715 A    
C132  H74   1.097956 S    
C74   C90   1.400754 A    
C102  H6    1.077550 S    
N12   N25   1.402187 A    
C159  H156  1.111095 S    
C124  H51   1.102032 S    
C25   C153  1.529473 S    
C45   C64   1.354318 A    
C52   C83   1.456920 S    
C34   F2    1.343595 S    
C116  H26   1.089989 S    
C44   N28   1.340869 A    
C56   C87   1.432852 S    
C150  H130  1.109552 S    
C128  H62   1.108201 S    
N19   Ni1   1.912557 S    
C106  H10   1.083894 S    
C32   C65   1.532337 S    
C38   N22   1.336475 A    
C11   N11   1.331509 A    
C136  H88   1.110259 S    
C97   H1    1.083947 S    
N3    N20   1.406645 A    
C148  H122  1.110394 S    
C157  H151  1.108428 S    
C20   C77   1.520505 S    
C85   C109  1.394915 A    
C100  H4    1.083280 S    
C101  H5    1.083489 S    
C160  H160  1.110208 S    
C138  H93   1.109374 S    
C154  H142  1.110097 S    
C90   C98   1.389229 A    
C155  H145  1.109811 S    
C136  H87   1.110605 S    
C146  H118  1.109951 S    
N7    N24   1.402193 A    
C104  C105  1.378683 A    
C149  H127  1.109851 S    
C98   C111  1.384212 A    
C144  H112  1.101680 S    
C99   C110  1.379339 A    
C21   C28   1.563091 S    
N2    N19   1.402185 A    
C22   C27   1.555933 S    
C142  H105  1.088373 S    
C105  H9    1.079728 S    
C111  H15   1.083466 S    
C58   C89   1.393273 S    
N2    Ni2   1.898152 S    
C82   C106  1.397042 A    
C115  H23   1.103326 S    
C4    N4    1.330730 A    
C5    N5    1.328997 A    
C96   C104  1.385617 A    
C119  H35   1.096623 S    
C132  H76   1.110018 S    
C36   C51   1.358648 A    
C33   F1    1.352750 S    
C113  H19   1.106830 S    
C15   C63   1.364868 A    
C39   N23   1.332655 A    
C40   C55   1.381723 A    
C158  H152  1.108865 S    
N15   Ni5   1.903332 S    
C152  H136  1.110417 S    
C143  H109  1.110254 S    
C149  H125  1.110158 S    
C21   C76   1.506626 S    
C124  H52   1.111073 S    
C133  H77   1.110308 S    
C126  H56   1.108173 S    
C15   C127  1.496500 S    
C128  H64   1.109571 S    
C35   C50   1.378112 A    
C136  H86   1.110095 S    
C117  H30   1.109857 S    
C110  H14   1.083445 S    
C16   C128  1.497161 S    
C11   C59   1.357346 A    
C135  H83   1.108749 S    
C41   N25   1.337182 A    
C152  H135  1.109500 S    
C87   C111  1.410941 A    
C88   C112  1.400026 A    
C149  H126  1.108647 S    
C45   N29   1.313875 A    
C115  H24   1.102646 S    
C65   C80   1.383096 A    
C4    C116  1.487639 S    
C129  H65   1.109611 S    
C67   C78   1.373787 A    
C78   C94   1.406356 A    
C23   C74   1.502972 S    
C95   C103  1.395212 A    
N29   Ni5   1.912644 S    
C140  H98   1.109593 S    
C20   C132  1.540049 S    
C121  H42   1.109970 S    
C152  H134  1.110290 S    
C47   C62   1.364614 A    
N3    Ni3   1.912393 S    
N10   N27   1.402185 A    
N23   Ni3   1.903313 S    
C114  H21   1.105778 S    
C46   F14   1.346088 S    
C12   C60   1.358749 A    
C108  H12   1.083840 S    
C109  H13   1.084153 S    
C36   F4    1.348015 S    
C43   F11   1.347905 S    
C40   N24   1.341951 A    
C125  H53   1.101923 S    
C25   C72   1.523829 S    
C144  H110  1.108833 S    
C34   N18   1.325765 A    
C24   C136  1.547755 S    
C24   C73   1.495501 S    
C76   C92   1.389751 A    
C99   H3    1.083506 S    
C151  H133  1.111508 S    
C66   C82   1.389687 A    
N9    Ni5   1.903071 S    
C123  H47   1.107885 S    
C89   C97   1.391292 A    
C35   N19   1.347536 A    
N11   Ni7   1.912393 S    
C137  H90   1.110830 S    
C70   C86   1.417647 A    
N14   N31   1.406638 A    
C151  H131  1.105549 S    
C158  H154  1.110186 S    
N4    Ni4   1.908927 S    
C50   C81   1.448138 S    
C17   C129  1.547856 S    
C42   N26   1.325717 A    
C113  H18   1.099882 S    
C54   C85   1.403832 S    
C123  H48   1.098359 S    
C133  H79   1.107282 S    
C20   C148  1.543748 S    
C102  C107  1.380447 A    
C46   N30   1.335408 A    
C134  H82   1.110040 S    
C15   N15   1.338308 A    
C49   C84   1.407773 S    
C141  H102  1.108334 S    
C1    N1    1.337242 A    
C121  H41   1.107885 S    
C131  H73   1.109942 S    
N26   Ni8   1.898159 S    
C130  H69   1.110769 S    
C53   C88   1.407345 S    
C107  H11   1.079936 S    
C22   C75   1.508056 S    
C86   C110  1.413355 A    
C55   C86   1.445154 S    
C7    N7    1.327863 A    
C6    C118  1.496614 S    
C8    N8    1.335820 A    
C120  H38   1.099296 S    
C129  H67   1.109986 S    
N13   Ni7   1.912311 S    
C91   C99   1.385505 A    
C24   C152  1.535953 S    
C17   C80   1.502563 S    
C140  H100  1.110138 S    
C43   C58   1.358324 A    
C19   C78   1.512557 S    
C100  C109  1.379430 A    
C103  C106  1.378784 A    
C66   C79   1.356279 A    
C14   C126  1.497412 S    
C67   C83   1.419473 A    
C159  H155  1.110298 S    
C9    N9    1.344166 A    
N15   N32   1.402194 A    
C124  H50   1.105866 S    
C125  H55   1.111162 S    
C84   C108  1.400795 A    
N1    N18   1.406644 A    
C12   N12   1.327357 A    
C13   N13   1.330073 A    
C63   C94   1.443491 S    
C68   C84   1.384415 A    
C126  H58   1.111120 S    
C2    C114  1.481897 S    
C61   C96   1.426677 S    
C6    N6    1.332970 A    
C123  H49   1.111183 S    
C3    C51   1.371872 A    
C153  H137  1.110264 S    
C37   F5    1.346969 S    
C150  H129  1.101145 S    
N25   Ni7   1.903585 S    
C38   C53   1.369383 A    
C69   C76   1.371143 A    
C112  H16   1.084497 S    
N16   N29   1.406637 A    
N27   Ni5   1.912557 S    
C97   C112  1.375770 A    
C157  H150  1.109325 S    
C28   C69   1.504440 S    
C146  H117  1.110945 S    
C160  H159  1.105863 S    
C138  H92   1.110020 S    
C37   C56   1.365509 A    
C48   N32   1.326899 A    
C30   C158  1.554362 S    
C12   C124  1.497821 S    
C39   C54   1.362984 A    
C68   C77   1.356415 A    
C155  H144  1.106051 S    
C23   C26   1.555749 S    
C154  H141  1.108345 S    
C113  H17   1.101334 S    
N4    N17   1.402187 A    
C35   F3    1.349020 S    
C116  H27   1.091478 S    
C131  H72   1.099892 S    
C18   C146  1.543815 S    
C47   N31   1.329422 A    
C122  H44   1.109239 S    
C40   F8    1.347414 S    
C79   C95   1.388812 A    
C80   C96   1.400358 A    
N17   Ni3   1.903585 S    
C120  H40   1.091141 S    
C142  H104  1.108894 S    
C94   C102  1.398292 A    
C34   C49   1.356309 A    
C139  H97   1.101982 S    
C31   C66   1.510058 S    
C73   C89   1.379176 A    
C132  H75   1.109247 S    
C16   N16   1.331925 A    
C33   C52   1.384100 A    
N11   N28   1.406645 A    
N28   Ni6   1.909230 S    
C159  H157  1.110224 S    
C29   C157  1.539846 S    
C116  H28   1.079307 S    
N30   Ni8   1.898401 S    
C18   C79   1.509945 S    
C9    C57   1.368929 A    
N7    Ni1   1.903332 S    
C59   C90   1.422601 S    
C30   C142  1.553500 S    
C146  H116  1.110438 S    
C57   C92   1.408112 S    
C19   C131  1.550511 S    
C19   C147  1.546295 S    
C103  H7    1.080215 S    
C27   C139  1.556053 S    
C92   C100  1.399928 A    
C93   C101  1.396809 A    
C135  H85   1.109646 S    
C120  H39   1.108933 S    
N20   Ni2   1.909230 S    
C128  H63   1.102295 S    
C119  H37   1.106945 S    
C153  H139  1.109567 S    
C23   C151  1.544361 S    
C117  H29   1.096001 S    
C134  H80   1.103029 S    
C71   C74   1.379108 A    
N1    Ni1   1.903071 S    
C3    C115  1.496061 S    
C118  H32   1.109058 S    
C72   C88   1.406180 A    
N21   Ni1   1.912644 S    
C22   C134  1.544451 S    
C126  H57   1.105073 S    
C147  H119  1.110300 S    
C138  H94   1.098102 S    
C17   C32   1.554685 S    
C143  H108  1.109155 S    
C18   C31   1.564220 S    
C13   C125  1.501304 S    
C19   C30   1.561601 S    
C70   C75   1.381767 A    
C32   C144  1.554697 S    
C118  H33   1.105145 S    
C4    C52   1.357204 A    
N16   Ni8   1.908984 S    
C2    N2    1.328073 A    
C145  H113  1.103919 S    
C8    C56   1.376171 A    
C44   C59   1.371060 A    
C60   C91   1.420620 S    
C75   C91   1.400876 A    
C114  H20   1.102168 S    
C33   N17   1.338833 A    
C148  H124  1.110531 S    
C139  H95   1.108243 S    
C131  H71   1.110464 S    
C142  H106  1.110619 S    
C27   C155  1.528949 S    
C115  H25   1.107315 S    
C44   F12   1.347586 S    
C28   C156  1.542547 S    
C62   C93   1.402626 S    
C10   C58   1.374721 A    
C18   C130  1.541501 S    
C23   C135  1.539315 S    
C101  C108  1.385404 A    
C127  H60   1.094091 S    
C156  H147  1.111205 S    
C151  H132  1.106125 S    
N12   Ni8   1.908927 S    
C139  H96   1.110574 S    
C7    C119  1.479731 S    
C137  H89   1.110123 S    
C36   N20   1.326564 A    
C39   F7    1.344664 S    
C10   N10   1.329370 A    
C158  H153  1.104815 S    
C8    C120  1.486941 S    
C42   C57   1.350567 A    
C14   N14   1.325374 A    
C32   C160  1.528291 S    
C72   C73   1.370479 A    
N8    N21   1.406637 A    
C133  H78   1.109708 S    
C29   C141  1.541874 S    
C26   C154  1.547233 S    
C42   F10   1.349622 S    
C117  H31   1.109019 S    
C145  H115  1.110161 S    
C147  H120  1.093737 S    
C141  H101  1.110474 S    
C41   C60   1.371733 A    
N18   Ni4   1.898159 S    
C21   C149  1.545083 S    
C135  H84   1.109050 S    
C118  H34   1.109552 S    
C26   C71   1.522026 S    
C134  H81   1.109764 S    
C28   C140  1.546146 S    
N10   Ni6   1.898152 S    
C147  H121  1.106791 S    
C30   C67   1.534655 S    
C119  H36   1.107944 S    
C127  H59   1.104291 S    
C153  H138  1.101332 S    
C65   C81   1.414996 A    
C20   C29   1.561041 S    
C129  H66   1.109813 S    
C9    C121  1.493000 S    
C69   C85   1.389014 A    
C24   C25   1.554505 S    
C83   C107  1.409630 A    
C140  H99   1.110510 S    
C71   C87   1.397176 A    
C121  H43   1.091893 S    
C81   C105  1.413821 A    
C130  H70   1.110228 S    
N14   Ni6   1.897916 S    
C13   C61   1.364593 A    
C43   N27   1.326289 A    
N6    N23   1.406637 A    
C38   F6    1.351034 S    
C143  H107  1.110474 S    
C122  H46   1.109656 S    
C1    C49   1.374840 A    
C22   C150  1.541741 S    
C48   F16   1.346358 S    
C5    C53   1.361841 A    
C125  H54   1.099554 S    
C7    C55   1.366228 A    
N5    N22   1.402193 A    
C26   C138  1.543272 S    
N8    Ni4   1.908984 S    
C144  H111  1.110010 S    
C11   C123  1.495784 S    
C21   C133  1.537481 S    
C1    C113  1.491221 S    
C114  H22   1.105254 S    
C150  H128  1.108755 S    
C137  H91   1.109648 S    
C45   F13   1.348159 S    
C156  H146  1.110291 S    
C41   F9    1.347794 S    
C156  H148  1.110230 S    
C157  H149  1.109530 S    
C130  H68   1.104032 S    
C122  H45   1.106350 S    
N24   Ni2   1.909174 S    
C31   C143  1.542112 S    
