data_mof_unit_54963.cif
_audit_creation_date              2012-10-26T20:07:07-0400
_audit_creation_method            fapswitch 2.2
_symmetry_space_group_name_H-M    P1
_symmetry_Int_Tables_number       1
_space_group_crystal_system       triclinic
_cell_length_a                    10.953014
_cell_length_b                    9.563739
_cell_length_c                    27.776688
_cell_angle_alpha                 89.96662
_cell_angle_beta                  92.323506
_cell_angle_gamma                 89.989233
_cell_volume                      2907.26441099

loop_
_atom_site_label
_atom_site_type_symbol
_atom_type_description
_atom_site_fract_x
_atom_site_fract_y
_atom_site_fract_z
_atom_type_partial_charge
C1    C     C_R   0.262503 0.500000 0.503006 0.596733
C2    C     C_R   0.466298 0.366593 0.871324 0.029342
C3    C     C_R   0.499212 0.499844 0.355190 0.062786
C4    C     C_R   0.501699 0.499421 0.644821 0.063596
C5    C     C_R   0.472866 0.367636 0.974263 -0.016788
C6    C     C_R   0.532227 0.618501 0.025400 -0.016420
C7    C     C_R   0.529757 0.617177 0.974055 0.030559
C8    C     C_R   0.477581 0.368323 0.025618 0.030070
C9    C     C_R   0.499779 0.491558 0.948742 0.030893
C10   C     C_R   0.506166 0.494311 0.050925 0.030711
C11   C     C_R   0.440991 0.246655 0.947389 -0.107755
C12   C     C_R   0.737486 0.499983 0.496972 0.596706
C13   C     C_R   0.560749 0.740463 0.052275 -0.107558
C14   C     C_R   0.437638 0.244725 0.897292 0.249355
C15   C     C_R   0.563549 0.742445 0.102354 0.249646
C16   C     C_R   0.499076 0.500044 0.407788 0.576835
C17   C     C_R   0.500950 0.499957 0.592212 0.576840
C18   C     C_R   0.454952 0.246552 0.052861 -0.120089
C19   C     C_R   0.556302 0.737854 0.946826 -0.119988
C20   C     C_R   0.063025 0.372191 0.504486 0.213095
C21   C     C_R   0.937008 0.627644 0.495217 0.199974
C22   C     C_R   0.937015 0.372154 0.495574 0.213144
C23   C     C_R   0.508675 0.495816 0.102330 -0.065530
C24   C     C_R   0.062897 0.627691 0.504486 0.199501
C25   C     C_R   0.871696 0.499910 0.494390 -0.064891
C26   C     C_R   0.128278 0.499964 0.505523 -0.065325
C27   C     C_R   0.425180 0.074163 0.468348 0.369084
C28   C     C_R   0.574911 0.925745 0.531604 0.370721
C29   C     C_R   0.574807 0.074036 0.531656 0.369162
C30   C     C_R   0.425115 0.925874 0.468389 0.370755
C31   C     C_R   0.485001 0.373949 0.178266 0.414689
C32   C     C_R   0.522761 0.611341 0.821459 0.413639
C33   C     C_R   0.534486 0.616601 0.179274 0.429679
C34   C     C_R   0.496758 0.490150 0.897339 -0.065669
C35   C     C_R   0.466065 0.370739 0.820315 0.433725
C36   C     C_R   0.613377 0.518615 0.282422 -0.003337
C37   C     C_R   0.388797 0.516574 0.717967 -0.003454
C38   C     C_R   0.610302 0.521102 0.332526 0.217251
C39   C     C_R   0.390961 0.520038 0.667834 0.218316
C40   C     C_R   0.390112 0.477500 0.327111 -0.048061
C41   C     C_R   0.611321 0.476758 0.672582 -0.046607
C42   C     C_R   0.395687 0.473841 0.276783 -0.045935
C43   C     C_R   0.606559 0.471877 0.722918 -0.047476
C44   C     C_R   0.506408 0.494908 0.254444 0.180348
C45   C     C_R   0.483347 0.372322 0.127835 0.027014
C46   C     C_R   0.496252 0.492295 0.745463 0.185385
C47   C     C_3   0.266843 0.459541 0.349270 -0.242969
C48   C     C_3   0.181864 0.582519 0.336158 -0.313300
C49   C     C_3   0.065541 0.576707 0.364396 -0.351076
C50   C     C_3   0.734260 0.459771 0.650083 -0.243450
C51   C     C_3   0.819228 0.582459 0.663480 -0.309437
C52   C     C_3   0.934908 0.578208 0.634826 -0.352766
C53   C     C_R   0.524548 0.612992 0.871864 0.028017
C54   C     C_R   0.457064 0.249158 0.102716 -0.066813
C55   C     C_R   0.554028 0.735273 0.896981 -0.067054
C56   C     C_R   0.536246 0.620119 0.128312 0.031282
Cl1   Cl    Cl    0.326809 0.161760 0.426615 -0.449389
Cl2   Cl    Cl    0.867500 0.790652 0.480178 -0.325318
Cl3   Cl    Cl    0.867453 0.208860 0.481021 -0.329634
Cl4   Cl    Cl    0.132250 0.790822 0.519347 -0.325933
Cl5   Cl    Cl    0.673640 0.837777 0.573087 -0.457132
Cl6   Cl    Cl    0.673044 0.161491 0.573428 -0.450016
Cl7   Cl    Cl    0.326552 0.838063 0.426856 -0.457152
Cl8   Cl    Cl    0.253109 0.549718 0.634607 -0.582470
Cl9   Cl    Cl    0.747618 0.550298 0.366156 -0.581927
Cl10  Cl    Cl    0.395354 0.083599 0.870256 -0.507829
Cl11  Cl    Cl    0.604988 0.903806 0.129398 -0.511415
Cl12  Cl    Cl    0.132672 0.208998 0.519238 -0.329581
Cu1   Cu    Cu3+1 0.500000 0.640660 0.500000 1.198831
Cu2   Cu    Cu3+1 0.500000 0.359340 0.500000 1.182046
H1    H     H_    0.313426 0.456122 0.254647 0.145999
H2    H     H_    0.579906 0.837450 0.962492 0.120980
H3    H     H_    0.016461 0.476829 0.357149 0.207220
H4    H     H_    0.088039 0.585495 0.403559 0.177063
H5    H     H_    0.004947 0.665195 0.353439 0.230353
H6    H     H_    0.229353 0.682919 0.344191 0.241122
H7    H     H_    0.156421 0.580099 0.297032 0.173428
H8    H     H_    0.224675 0.360363 0.335973 0.201001
H9    H     H_    0.275743 0.451236 0.389081 0.183814
H10   H     H_    0.984083 0.477948 0.641289 0.208128
H11   H     H_    0.911539 0.589160 0.595796 0.177559
H12   H     H_    0.688963 0.453356 0.744894 0.139808
H13   H     H_    0.995739 0.666099 0.646112 0.230110
H14   H     H_    0.771383 0.683062 0.656066 0.242638
H15   H     H_    0.845495 0.578448 0.702519 0.176456
H16   H     H_    0.776743 0.360234 0.662935 0.199322
H17   H     H_    0.724819 0.452813 0.610255 0.183027
H18   H     H_    0.437543 0.153102 0.121598 0.213582
H19   H     H_    0.575896 0.830674 0.878111 0.209278
H20   H     H_    0.303683 0.532878 0.735694 0.167255
H21   H     H_    0.699044 0.534841 0.265076 0.172562
H22   H     H_    0.416499 0.149835 0.964097 0.142821
H23   H     H_    0.582068 0.838387 0.035616 0.141726
H24   H     H_    0.435689 0.145836 0.037173 0.121524
N1    N     N_R   0.509460 0.494897 0.202798 -0.414225
N2    N     N_R   0.494262 0.491547 0.796983 -0.416190
N3    N     N_R   0.500000 0.852070 0.500000 -0.275355
N4    N     N_R   0.500000 0.147930 0.500000 -0.277429
O1    O     O_R   0.319640 0.618740 0.500000 -0.432601
O2    O     O_2   0.549492 0.728616 0.796923 -0.436580
O3    O     O_2   0.438931 0.256004 0.793868 -0.371936
O4    O     O_2   0.555401 0.733351 0.205454 -0.378484
O5    O     O_R   0.680360 0.381260 0.500000 -0.441086
O6    O     O_R   0.680360 0.618740 0.500000 -0.432564
O7    O     O_R   0.319640 0.381260 0.500000 -0.440969
O8    O     O_R   0.500020 0.618770 0.430260 -0.453726
O9    O     O_R   0.499980 0.381230 0.569740 -0.468932
O10   O     O_R   0.499980 0.618770 0.569740 -0.454041
O11   O     O_R   0.500020 0.381230 0.430260 -0.469024
O12   O     O_2   0.462708 0.255253 0.202746 -0.433822

loop_
_geom_bond_atom_site_label_1
_geom_bond_atom_site_label_2
_ccdc_geom_bond_type
C28   N3    A    
C2    C35   A    
C40   C47   S    
C27   N4    A    
C23   C45   A    
C48   H6    S    
C47   H9    S    
C1    O1    A    
C23   C56   A    
C35   N2    A    
C39   Cl8   S    
C30   N3    A    
C37   H20   S    
C28   C29   A    
C24   C26   A    
C5    C11   A    
Cu2   O9    S    
C17   O9    A    
C11   C14   A    
C4    C41   A    
C41   C50   S    
C11   H22   S    
C3    C38   A    
C22   C25   A    
C49   H5    S    
C16   O8    A    
C28   Cl5   S    
C2    C34   A    
C33   C56   A    
C40   C42   A    
C30   Cl7   S    
C27   C30   A    
C41   C43   A    
C51   H15   S    
C19   H2    S    
Cu1   Cu2   S    
C42   C44   A    
C33   N1    A    
Cu1   O10   S    
C16   O11   A    
C53   C55   A    
C51   C52   S    
C12   O5    A    
C27   Cl1   S    
C17   O10   A    
C22   Cl3   S    
C50   H16   S    
Cu2   O5    S    
C8    C18   A    
C33   O4    S    
C13   H23   S    
C48   H7    S    
C52   H13   S    
C5    C9    A    
Cu2   O11   S    
C47   C48   S    
C38   Cl9   S    
C24   Cl4   S    
C15   Cl11  S    
C50   C51   S    
C14   Cl10  S    
C50   H17   S    
C4    C17   S    
Cu1   O1    S    
C36   H21   S    
C8    C10   A    
C48   C49   S    
C32   N2    A    
C20   C22   A    
C45   C54   A    
C7    C19   A    
C13   C15   A    
C9    C34   A    
C18   H24   S    
C49   H3    S    
C36   C44   A    
C32   C53   A    
Cu1   O6    S    
C19   C55   A    
C7    C9    A    
C21   C25   A    
C29   Cl6   S    
C20   Cl12  S    
C35   O3    S    
Cu2   O7    S    
C3    C40   A    
C5    C8    A    
Cu1   O8    S    
C12   O6    A    
C6    C7    A    
C10   C23   A    
C4    C39   A    
C12   C25   S    
C15   C56   A    
C36   C38   A    
C21   Cl2   S    
C55   H19   S    
C44   N1    S    
C6    C13   A    
C54   H18   S    
C1    C26   S    
C20   C26   A    
C31   N1    A    
C42   H1    S    
C31   O12   S    
C29   N4    A    
C52   H11   S    
C2    C14   A    
C43   C46   A    
C6    C10   A    
C18   C54   A    
C32   O2    S    
C46   N2    S    
C34   C53   A    
C37   C39   A    
C31   C45   A    
C21   C24   A    
C43   H12   S    
C49   H4    S    
C47   H8    S    
C37   C46   A    
C52   H10   S    
C51   H14   S    
C3    C16   S    
Cu2   N4    S    
C1    O7    A    
Cu1   N3    S    
