data_mof_unit_20426.cif
_audit_creation_date              2012-12-10T18:31:51-0500
_audit_creation_method            fapswitch 2.2
_symmetry_space_group_name_H-M    P1
_symmetry_Int_Tables_number       1
_space_group_crystal_system       triclinic
_cell_length_a                    10.685486
_cell_length_b                    14.93741
_cell_length_c                    15.253087
_cell_angle_alpha                 81.176194
_cell_angle_beta                  90.08248
_cell_angle_gamma                 104.196512
_cell_volume                      2330.64830798

loop_
_atom_site_label
_atom_site_type_symbol
_atom_type_description
_atom_site_fract_x
_atom_site_fract_y
_atom_site_fract_z
_atom_type_partial_charge
C1    C     C_R   0.482784 0.441110 0.662944 0.840711
C2    C     C_3   0.121324 0.502203 0.499361 0.131237
C3    C     C_3   0.076312 0.519052 0.401989 -0.102318
C4    C     C_3   0.097797 0.582038 0.549646 -0.076550
C5    C     C_R   0.483903 0.403892 0.757314 -0.049048
C6    C     C_R   0.568161 0.595538 0.244254 -0.211165
C7    C     C_R   0.418723 0.280135 0.882676 -0.155042
C8    C     C_R   0.418177 0.312258 0.792005 -0.235725
C9    C     C_R   0.552961 0.462163 0.813188 -0.230017
C10   C     C_R   0.553996 0.432008 0.904705 0.053217
C11   C     C_R   0.482978 0.340113 0.940247 0.088309
C12   C     C_R   0.741425 0.499714 0.502470 0.879690
C13   C     C_R   0.612947 0.494614 0.962079 -0.009468
C14   C     C_R   0.579040 0.471346 0.053206 -0.048707
C15   C     C_R   0.524613 0.375596 0.089290 0.443650
C16   C     C_R   0.475082 0.310828 0.032502 -0.037991
C17   C     C_R   0.701735 0.580685 0.931202 -0.264487
C18   C     C_R   0.742589 0.647815 0.986530 0.116542
C19   C     C_R   0.687163 0.632548 0.073180 -0.020827
C20   C     C_R   0.600886 0.544680 0.104586 0.001584
C21   C     C_R   0.713538 0.701984 0.129426 0.543994
C22   C     C_R   0.661126 0.680975 0.216915 -0.025970
C23   C     C_R   0.524553 0.559215 0.337136 0.916977
C24   C     C_R   0.531897 0.533494 0.184481 -0.229588
C25   C     C_R   0.732601 0.851914 0.603630 -0.284623
C26   C     C_R   0.680306 0.757958 0.600109 0.002874
C27   C     C_R   0.513158 0.793910 0.509331 -0.009308
C28   C     C_R   0.564452 0.890818 0.506647 0.001587
C29   C     C_R   0.676094 0.918781 0.556166 0.091251
C30   C     C_R   0.508401 0.960498 0.459079 -0.122069
C31   C     C_R   0.553873 0.054605 0.474830 -0.113463
C32   C     C_R   0.677746 0.081120 0.510505 0.603454
C33   C     C_R   0.734283 0.013267 0.554288 -0.334101
C34   C     C_R   0.257896 0.500172 0.499706 0.870700
C35   C     C_R   0.413683 0.942378 0.393817 0.529714
C36   C     C_R   0.350569 0.010968 0.360149 -0.256821
C37   C     C_R   0.379971 0.097764 0.388063 0.006584
C38   C     C_R   0.478448 0.119979 0.448714 -0.115591
C39   C     C_R   0.311605 0.162918 0.354866 -0.323215
C40   C     C_R   0.338357 0.249271 0.383594 0.217933
C41   C     C_R   0.491560 0.205111 0.483575 0.615717
C42   C     C_3   0.896692 0.407749 0.553050 -0.429109
C43   C     C_3   0.039979 0.407563 0.550344 -0.475027
C44   C     C_3   0.929056 0.513475 0.403863 -0.116134
C45   C     C_3   0.954099 0.581061 0.550046 -0.455379
C46   C     C_3   0.878059 0.501423 0.501911 0.117552
H1    H     H_    0.840662 0.347616 0.523289 0.257914
H2    H     H_    0.131055 0.589842 0.370183 0.157187
H3    H     H_    0.450714 0.473993 0.202642 0.215809
H4    H     H_    0.364566 0.209462 0.907718 0.159594
H5    H     H_    0.362974 0.266520 0.749670 0.142014
H6    H     H_    0.599746 0.533113 0.784486 0.149995
H7    H     H_    0.860711 0.397571 0.623256 0.180678
H8    H     H_    0.744559 0.596235 0.864767 0.132129
H9    H     H_    0.826055 0.034993 0.585023 0.164810
H10   H     H_    0.276382 0.995303 0.312262 0.157926
H11   H     H_    0.818949 0.872330 0.640557 0.137462
H12   H     H_    0.727756 0.705972 0.631773 0.122184
H13   H     H_    0.426556 0.765120 0.477424 0.212899
H14   H     H_    0.073176 0.396084 0.619462 0.164651
H15   H     H_    0.238504 0.147516 0.306199 0.149418
H16   H     H_    0.052061 0.347621 0.518922 0.211039
H17   H     H_    0.876109 0.450640 0.375983 0.151484
H18   H     H_    0.939519 0.649904 0.518740 0.190610
H19   H     H_    0.916628 0.569986 0.620029 0.153056
H20   H     H_    0.125221 0.566259 0.619882 0.152313
N1    N     N_R   0.573860 0.731700 0.552730 -0.116396
N2    N     N_R   0.426060 0.268290 0.447230 -0.153687
O1    O     O_R   0.462770 0.383110 0.605620 -0.588493
O2    O     O_R   0.510160 0.531900 0.639510 -0.623416
O3    O     O_R   0.661510 0.425600 0.483070 -0.590296
O4    O     O_R   0.708900 0.574390 0.516960 -0.637871
O5    O     O_R   0.489840 0.468100 0.360490 -0.577635
O6    O     O_R   0.537230 0.616890 0.394380 -0.621668
O7    O     O_R   0.291100 0.425610 0.483040 -0.596827
O8    O     O_R   0.338490 0.574400 0.516930 -0.606995
Zn1   Zn    Zn3+2 0.468350 0.400660 0.477370 0.993831
Zn2   Zn    Zn3+2 0.531650 0.599340 0.522630 0.932820
N3    N     N_3   0.176308 0.675896 0.512617 -0.431138
H21   H     H_    0.170404 0.721683 0.557048 0.180056
H22   H     H_    0.140781 0.701688 0.452709 0.200387
N4    N     N_3   0.900167 0.594978 0.348674 -0.482617
H23   H     H_    0.924423 0.593990 0.282473 0.190707
H24   H     H_    0.956982 0.656818 0.365951 0.190747
N5    N     N_3   0.412590 0.215898 0.068982 -0.469935
H25   H     H_    0.478992 0.186836 0.106488 0.206714
H26   H     H_    0.336391 0.216446 0.111683 0.207622
N6    N     N_3   0.707051 0.746828 0.276112 -0.423474
H27   H     H_    0.749749 0.714766 0.329614 0.223877
H28   H     H_    0.629050 0.767893 0.299715 0.203060
N7    N     N_3   0.837377 0.732072 0.952606 -0.397496
H29   H     H_    0.920527 0.713810 0.933450 0.177636
H30   H     H_    0.801731 0.764912 0.895926 0.169011
O9    O     O_3   0.517708 0.343367 0.179749 -0.627488
C47   C     C_3   0.641559 0.337345 0.207905 -0.312092
H31   H     H_    0.711076 0.407241 0.199161 0.169624
H32   H     H_    0.679049 0.288741 0.172695 0.143774
H33   H     H_    0.634014 0.309042 0.279847 0.194618
O10   O     O_3   0.798767 0.787910 0.102308 -0.572224
C48   C     C_3   0.726586 0.853657 0.073414 -0.298760
H34   H     H_    0.667382 0.864564 0.128902 0.152830
H35   H     H_    0.663780 0.832553 0.018000 0.148928
H36   H     H_    0.794707 0.921736 0.048113 0.189406
O11   O     O_3   0.563554 0.224352 0.556678 -0.547383
C49   C     C_3   0.492886 0.171807 0.633498 -0.295227
H37   H     H_    0.488858 0.096206 0.637908 0.144190
H38   H     H_    0.393114 0.181769 0.636277 0.134578
H39   H     H_    0.542937 0.195849 0.692549 0.194834
N8    N     N_3   0.271305 0.317135 0.347336 -0.366973
H40   H     H_    0.172631 0.285776 0.357697 0.143457
H41   H     H_    0.290458 0.331915 0.278758 0.194861
O12   O     O_3   0.750003 0.172748 0.496942 -0.571986
C50   C     C_3   0.806799 0.193242 0.410420 -0.384976
H42   H     H_    0.879862 0.152484 0.404542 0.167275
H43   H     H_    0.856845 0.268377 0.396848 0.170303
H44   H     H_    0.733468 0.180519 0.358868 0.156902
O13   O     O_3   0.385024 0.859709 0.359223 -0.639136
C51   C     C_3   0.442308 0.875838 0.273081 -0.368206
H45   H     H_    0.547799 0.908997 0.272626 0.160759
H46   H     H_    0.393977 0.919310 0.225408 0.172063
H47   H     H_    0.429910 0.807592 0.249606 0.194171
N9    N     N_3   0.106722 0.453205 0.348295 -0.460988
H48   H     H_    0.045248 0.387045 0.367517 0.176997
H49   H     H_    0.088262 0.474820 0.282064 0.172643

loop_
_geom_bond_atom_site_label_1
_geom_bond_atom_site_label_2
_ccdc_geom_bond_type
C33   H9    S    
O2    Zn2   S    
O1    Zn1   S    
C19   C20   A    
C15   O9    S    
C47   H33   S    
C7    C8    A    
C9    H6    S    
C45   C46   S    
C7    C11   A    
C49   H38   S    
C30   C35   A    
C1    C5    S    
C18   N7    S    
C28   C29   A    
C19   C21   A    
O8    Zn2   S    
C44   N4    S    
N8    H41   S    
C42   H7    S    
C30   C31   A    
C21   O10   S    
C15   C16   A    
C6    C22   A    
C29   C33   A    
C3    H2    S    
N2    Zn1   S    
C18   C19   A    
C42   C46   S    
C20   C24   A    
C51   H45   S    
O11   C49   S    
O4    Zn2   S    
C47   H31   S    
C22   N6    S    
C9    C10   A    
C3    N9    S    
C34   O7    A    
C50   H44   S    
C2    C34   S    
C12   O4    A    
C21   C22   A    
N1    Zn2   S    
C25   H11   S    
C23   O5    A    
O12   C50   S    
C44   C46   S    
C41   N2    A    
C4    C45   S    
N5    H26   S    
C44   H17   S    
C25   C29   A    
C39   H15   S    
C49   H39   S    
C3    C44   S    
C40   N2    A    
C14   C20   A    
C4    N3    S    
C12   C46   S    
N7    H29   S    
N3    H22   S    
C25   C26   A    
N5    H25   S    
C48   H36   S    
C1    O1    A    
C35   C36   A    
C2    C4    S    
C5    C9    A    
C37   C38   A    
C36   H10   S    
N7    H30   S    
O7    Zn1   S    
C11   C16   A    
C31   C32   A    
C2    C43   S    
C6    C24   A    
C48   H35   S    
C17   C18   A    
C26   H12   S    
C8    H5    S    
C43   H14   S    
C38   C41   A    
C12   O3    A    
N6    H28   S    
N4    H24   S    
C45   H19   S    
C16   N5    S    
C35   O13   S    
C42   C43   S    
C26   N1    A    
C23   O6    A    
N9    H49   S    
O3    Zn1   S    
C50   H42   S    
C24   H3    S    
C36   C37   A    
C32   O12   S    
C7    H4    S    
C10   C13   A    
C5    C8    A    
C47   H32   S    
C31   C38   A    
C40   N8    S    
C49   H37   S    
C45   H18   S    
O13   C51   S    
C1    O2    A    
C41   O11   S    
C13   C17   A    
C32   C33   A    
C28   C30   A    
C2    C3    S    
C37   C39   A    
C27   H13   S    
O10   C48   S    
C4    H20   S    
C6    C23   S    
C48   H34   S    
C42   H1    S    
O9    C47   S    
C51   H46   S    
C27   N1    A    
C10   C11   A    
N3    H21   S    
C39   C40   A    
N6    H27   S    
N4    H23   S    
O6    Zn2   S    
N8    H40   S    
C27   C28   A    
O5    Zn1   S    
C14   C15   A    
N9    H48   S    
C13   C14   A    
C17   H8    S    
C51   H47   S    
C43   H16   S    
C34   O8    A    
C50   H43   S    
