data_mof_unit_52744.cif
_audit_creation_date              2013-03-05T16:14:16-0500
_audit_creation_method            fapswitch 2.2
_symmetry_space_group_name_H-M    P1
_symmetry_Int_Tables_number       1
_space_group_crystal_system       triclinic
_cell_length_a                    10.777164
_cell_length_b                    10.642722
_cell_length_c                    9.844812
_cell_angle_alpha                 89.524697
_cell_angle_beta                  91.129835
_cell_angle_gamma                 89.887824
_cell_volume                      1128.92287183

loop_
_atom_site_label
_atom_site_type_symbol
_atom_site_description
_atom_site_fract_x
_atom_site_fract_y
_atom_site_fract_z
_atom_type_partial_charge
O1    O     O_R   0.499990 0.316750 0.614620 -0.638683
O2    O     O_R   0.500010 0.683250 0.385380 -0.638734
O3    O     O_R   0.499990 0.316780 0.385290 -0.612068
O4    O     O_R   0.500010 0.683220 0.614710 -0.605885
C1    C     C_R   0.504020 0.260247 0.500592 0.944915
C2    C     C_R   0.495884 0.739779 0.499373 0.968036
O5    O     O_R   0.316760 0.500000 0.614660 -0.612762
O6    O     O_R   0.683240 0.500000 0.385340 -0.618865
O7    O     O_R   0.316760 0.500020 0.385330 -0.623500
O8    O     O_R   0.683240 0.499980 0.614670 -0.621592
C3    C     C_R   0.259916 0.497392 0.498328 0.906537
C4    C     C_R   0.740120 0.497768 0.501733 0.923163
Zn1   Zn    Zn3+2 0.500000 0.499980 0.653120 0.974137
Zn2   Zn    Zn3+2 0.500000 0.500020 0.346880 0.971270
H1    H     H_    0.225413 0.375002 0.878098 0.149220
H2    H     H_    0.768593 0.375619 0.120456 0.192095
C5    C     C_R   0.187871 0.521252 0.021621 -0.130975
C6    C     C_R   0.837535 0.304847 0.933034 -0.122669
H3    H     H_    0.216863 0.596256 0.954586 0.163450
H4    H     H_    0.830684 0.207462 0.964481 0.176485
C7    C     C_R   0.146354 0.548999 0.151548 -0.157345
C8    C     C_R   0.880886 0.335207 0.804294 -0.194795
H5    H     H_    0.141916 0.645987 0.183587 0.145154
H6    H     H_    0.908102 0.260401 0.737025 0.154927
C9    C     C_R   0.110414 0.451857 0.239647 0.109379
C10   C     C_R   0.890041 0.461282 0.762528 0.117473
C11   C     C_R   0.113519 0.325919 0.194894 0.244431
C12   C     C_R   0.855725 0.557800 0.851933 0.265770
C13   C     C_R   0.154301 0.299721 0.063686 -0.201937
C14   C     C_R   0.811933 0.525862 0.981229 -0.215713
H7    H     H_    0.157014 0.203811 0.027995 0.152521
H8    H     H_    0.784441 0.598739 0.050643 0.139690
C15   C     C_R   0.192108 0.396807 0.978087 -0.149842
C16   C     C_R   0.803321 0.399949 0.021370 -0.127036
C17   C     C_R   0.931257 0.490168 0.379387 -0.185341
C18   C     C_R   0.068831 0.494366 0.620741 -0.224108
H9    H     H_    0.878569 0.488720 0.284846 0.162147
H10   H     H_    0.121620 0.495733 0.715191 0.163786
C19   C     C_R   0.872655 0.493141 0.504592 -0.063957
C20   C     C_R   0.127409 0.492638 0.495596 -0.069895
C21   C     C_R   0.942130 0.488535 0.627359 0.019347
C22   C     C_R   0.057956 0.482672 0.373348 0.016692
C23   C     C_R   0.582945 0.062122 0.412472 0.342968
C24   C     C_R   0.416011 0.938008 0.586819 0.334855
C25   C     C_R   0.573142 0.933234 0.409865 -0.304949
C26   C     C_R   0.425848 0.066930 0.589452 -0.321474
H11   H     H_    0.632836 0.879801 0.344112 0.192813
H12   H     H_    0.365971 0.120467 0.654923 0.191265
C27   C     C_R   0.492192 0.872288 0.497384 -0.208374
C28   C     C_R   0.507146 0.127801 0.502280 -0.201067
C29   C     C_R   0.502429 0.610315 0.070900 -0.093917
C30   C     C_R   0.497782 0.389671 0.929094 -0.071587
H13   H     H_    0.504526 0.698796 0.123942 0.152753
H14   H     H_    0.495912 0.301182 0.876061 0.148656
C31   C     C_R   0.502297 0.610294 0.927266 -0.069821
C32   C     C_R   0.497282 0.389705 0.072732 -0.040956
H15   H     H_    0.504285 0.698826 0.872859 0.164704
H16   H     H_    0.495068 0.301175 0.127128 0.163784
N1    N     N_R   0.499970 0.499970 0.857200 -0.089190
N2    N     N_R   0.500030 0.500030 0.142800 -0.088696
N3    N     N_2   0.070622 0.226144 0.278932 -0.287728
H17   H     H_    0.031419 0.151699 0.227229 0.247713
C33   C     C_3   0.153170 0.187735 0.389779 -0.734536
H18   H     H_    0.181902 0.088245 0.376888 0.240408
H19   H     H_    0.103779 0.196142 0.487176 0.252257
H20   H     H_    0.238504 0.246027 0.395115 0.221897
N4    N     N_2   0.859853 0.685919 0.810280 -0.323114
H21   H     H_    0.783846 0.736763 0.840800 0.223799
C34   C     C_3   0.974927 0.748726 0.844797 -0.705514
H22   H     H_    0.971644 0.846830 0.805594 0.259587
H23   H     H_    0.054447 0.700573 0.797844 0.272001
H24   H     H_    0.989229 0.750747 0.956910 0.222559
N5    N     N_R   0.672851 0.123808 0.328804 0.200547
O9    O     O_R   0.741546 0.213555 0.378216 -0.430529
O10   O     O_R   0.698638 0.078767 0.210091 -0.443373
N6    N     N_R   0.325794 0.876339 0.670105 0.200994
O11   O     O_R   0.258491 0.785378 0.621022 -0.430689
O12   O     O_R   0.298409 0.922284 0.787971 -0.432968

loop_
_geom_bond_atom_site_label_1
_geom_bond_atom_site_label_2
_geom_bond_distance
_ccdc_geom_bond_type
C24   C27   1.405344 A    
C23   N5    1.439898 S    
C33   H19   1.110008 S    
C31   N1    1.366725 A    
C11   C13   1.402611 A    
N5    O9    1.301275 A    
C19   C21   1.409598 A    
O2    C2    1.279227 A    
O5    C3    1.288656 A    
O1    C1    1.279343 A    
C17   H9    1.080914 S    
N6    O12   1.301933 A    
C34   H22   1.110384 S    
C13   C15   1.394468 A    
C24   N6    1.439931 S    
O4    Zn1   1.983414 S    
C34   H23   1.108420 S    
C17   C22   1.370115 A    
C11   N3    1.424160 S    
H2    C16   1.081338 S    
C24   C26   1.376792 A    
C29   C31   1.414018 A    
C20   C22   1.409550 A    
C33   H20   1.110980 S    
N5    O10   1.301722 A    
C18   C21   1.369818 A    
C3    C20   1.428778 S    
C5    C15   1.396372 A    
C30   H14   1.080622 S    
C25   H11   1.085080 S    
C26   H12   1.085158 S    
C14   C16   1.397737 A    
N4    H21   1.031865 S    
C18   C20   1.395630 A    
C12   N4    1.421641 S    
N6    O11   1.301331 A    
O4    C2    1.280686 A    
C5    C7    1.397080 A    
C32   N2    1.366793 A    
N4    C34   1.445920 S    
C34   H24   1.111816 S    
C17   C19   1.396599 A    
O7    Zn2   2.018077 S    
C30   N1    1.366190 A    
O7    C3    1.280639 A    
C25   C27   1.395268 A    
O6    C4    1.288855 A    
N3    C33   1.449928 S    
C31   H15   1.080409 S    
C6    C16   1.393735 A    
O3    Zn2   1.983412 S    
O8    C4    1.280536 A    
C7    H5    1.083078 S    
C8    H6    1.083483 S    
C1    C28   1.409884 S    
O1    Zn1   1.989643 S    
C7    C9    1.403943 A    
O6    Zn2   2.003430 S    
C6    C8    1.395050 A    
O3    C1    1.280238 A    
O8    Zn1   2.018075 S    
C9    C22   1.481724 S    
C23   C28   1.405034 A    
Zn1   N1    2.009135 S    
C9    C11   1.414879 A    
Zn2   N2    2.009135 S    
C26   C28   1.395166 A    
C10   C12   1.411729 A    
C4    C19   1.428825 S    
C12   C14   1.405584 A    
C23   C25   1.376405 A    
C14   H8    1.082701 S    
C18   H10   1.080677 S    
C5    H3    1.082005 S    
C32   H16   1.080417 S    
C6    H4    1.082302 S    
C2    C27   1.410701 S    
N3    H17   1.031914 S    
O2    Zn2   1.989643 S    
C33   H18   1.111597 S    
O5    Zn1   2.003432 S    
C13   H7    1.082818 S    
C8    C10   1.404337 A    
C29   N2    1.366173 A    
C29   H13   1.080615 S    
H1    C15   1.081232 S    
C30   C32   1.414213 A    
C10   C21   1.481134 S    
