data_mof_unit_5551.cif
_audit_creation_date              2012-12-11T16:43:12-0500
_audit_creation_method            fapswitch 2.2
_symmetry_space_group_name_H-M    P1
_symmetry_Int_Tables_number       1
_space_group_crystal_system       triclinic
_cell_length_a                    6.928083
_cell_length_b                    23.257639
_cell_length_c                    25.822241
_cell_angle_alpha                 104.754269
_cell_angle_beta                  90.40123
_cell_angle_gamma                 90.37161
_cell_volume                      4023.32109034

loop_
_atom_site_label
_atom_site_type_symbol
_atom_type_description
_atom_site_fract_x
_atom_site_fract_y
_atom_site_fract_z
_atom_type_partial_charge
O1    O     O_R   0.505750 0.453350 0.547660 -0.539928
O2    O     O_R   0.170990 0.432220 0.437590 -0.541288
O3    O     O_R   0.005600 0.546650 0.452340 -0.538784
C1    C     C_R   0.339747 0.415146 0.417616 0.710430
O4    O     O_R   0.175720 0.446240 0.546340 -0.543273
O5    O     O_R   0.010370 0.560770 0.561860 -0.538764
C2    C     C_R   0.344933 0.434163 0.562836 0.690177
O6    O     O_R   0.500990 0.439230 0.438140 -0.538359
O7    O     O_3   0.340820 0.537560 0.504970 -0.367476
V1    V     V_3+5 0.064050 0.493030 0.499080 1.397588
O8    O     O_R   0.680940 0.567780 0.562410 -0.542654
C3    C     C_R   0.850862 0.584285 0.582687 0.713772
O9    O     O_R   0.676210 0.553760 0.453660 -0.541948
C4    C     C_R   0.844798 0.565818 0.437111 0.691243
V2    V     V_3+5 0.564640 0.506970 0.500920 1.398844
O10   O     O_3   0.837740 0.462440 0.495030 -0.369411
C5    C     C_R   0.787321 0.893968 0.131038 -0.134565
H1    H     H_    0.661561 0.919499 0.125992 0.120610
C6    C     C_R   0.780050 0.859600 0.168214 -0.116510
H2    H     H_    0.648401 0.859309 0.190425 0.135848
C7    C     C_R   0.938395 0.825287 0.176321 0.014276
C8    C     C_R   0.110194 0.827619 0.147061 0.014717
C9    C     C_R   0.115467 0.862691 0.109792 -0.203558
H3    H     H_    0.246984 0.864669 0.087803 0.153694
C10   C     C_R   0.954980 0.896023 0.101348 -0.080955
C11   C     C_R   0.964782 0.725867 0.198298 -0.080324
H4    H     H_    0.015055 0.706280 0.158100 0.119778
C12   C     C_R   0.950856 0.690153 0.234394 -0.149055
H5    H     H_    0.991749 0.643868 0.221405 0.117959
C13   C     C_R   0.882728 0.713718 0.286577 0.069335
C14   C     C_R   0.827187 0.773654 0.301727 -0.144396
H6    H     H_    0.774266 0.792948 0.341703 0.116650
C15   C     C_R   0.845180 0.809728 0.265993 -0.142020
H7    H     H_    0.805565 0.856107 0.279152 0.116038
C16   C     C_R   0.917015 0.786497 0.214104 0.111214
C17   C     C_R   0.703871 0.673878 0.354705 -0.144301
H8    H     H_    0.578471 0.699334 0.349198 0.113920
C18   C     C_R   0.694310 0.637956 0.390782 -0.164156
H9    H     H_    0.561702 0.636908 0.412496 0.123556
C19   C     C_R   0.854434 0.604218 0.398971 -0.054166
C20   C     C_R   0.023674 0.607023 0.369813 -0.162840
H10   H     H_    0.149535 0.581568 0.374923 0.121782
C21   C     C_R   0.031921 0.642126 0.333103 -0.140414
H11   H     H_    0.164148 0.643370 0.311254 0.114495
C22   C     C_R   0.872401 0.676060 0.325256 0.092018
C23   C     C_R   0.031314 0.639279 0.665055 -0.212027
C24   C     C_R   0.865250 0.633391 0.632235 -0.085448
C25   C     C_R   0.714676 0.674506 0.647062 -0.224070
C26   C     C_R   0.730299 0.721422 0.693603 0.092348
C27   C     C_R   0.896672 0.726606 0.726448 0.054255
C28   C     C_R   0.047184 0.685173 0.712212 0.086932
C29   C     C_R   0.582736 0.763405 0.707858 -0.182742
C30   C     C_R   0.598367 0.809607 0.754589 -0.192420
C31   C     C_R   0.762117 0.814753 0.787836 0.089827
C32   C     C_R   0.912625 0.773318 0.773601 0.053915
C33   C     C_R   0.078997 0.778503 0.806447 0.089121
C34   C     C_R   0.226556 0.736518 0.792192 -0.173783
C35   C     C_R   0.210929 0.690317 0.745461 -0.185944
C36   C     C_R   0.777996 0.860652 0.834989 -0.214410
C37   C     C_R   0.944063 0.866542 0.867808 -0.084916
C38   C     C_R   0.094625 0.825422 0.852986 -0.217935
H12   H     H_    0.147649 0.607618 0.654262 0.126473
H13   H     H_    0.586559 0.670523 0.622003 0.128163
H14   H     H_    0.454398 0.760294 0.683034 0.135111
H15   H     H_    0.481602 0.841140 0.764894 0.131834
H16   H     H_    0.661665 0.892314 0.845778 0.124282
H17   H     H_    0.222742 0.829405 0.878045 0.131954
H18   H     H_    0.354894 0.739628 0.817017 0.140158
H19   H     H_    0.327696 0.658784 0.735155 0.135761
C39   C     C_R   0.288305 0.170338 0.140074 -0.207520
C40   C     C_R   0.456356 0.135356 0.131096 -0.084302
C41   C     C_R   0.605025 0.147300 0.169905 -0.224704
C42   C     C_R   0.584407 0.192453 0.217639 0.094973
C43   C     C_R   0.415478 0.227253 0.226076 0.052904
C44   C     C_R   0.267762 0.216418 0.186893 0.086285
C45   C     C_R   0.728778 0.203117 0.257427 -0.181935
C46   C     C_R   0.707932 0.248400 0.304566 -0.194840
C47   C     C_R   0.541616 0.283678 0.313041 0.088683
C48   C     C_R   0.393899 0.272844 0.273859 0.053136
C49   C     C_R   0.224965 0.307642 0.282299 0.092910
C50   C     C_R   0.080593 0.296977 0.242510 -0.177492
C51   C     C_R   0.101444 0.251696 0.195369 -0.188257
C52   C     C_R   0.521069 0.329755 0.359861 -0.213123
C53   C     C_R   0.353010 0.364733 0.368844 -0.085466
C54   C     C_R   0.204338 0.352789 0.330036 -0.223381
H20   H     H_    0.173074 0.161786 0.110400 0.130992
H21   H     H_    0.734188 0.120422 0.163642 0.122154
H22   H     H_    0.858816 0.176688 0.251937 0.136291
H23   H     H_    0.822773 0.256057 0.334302 0.133720
H24   H     H_    0.636296 0.338303 0.389537 0.128400
H25   H     H_    0.075163 0.379662 0.336305 0.123817
H26   H     H_    0.950551 0.323404 0.248001 0.138896
H27   H     H_    0.986602 0.244038 0.165634 0.137665
C55   C     C_R   0.275087 0.113935 0.876375 -0.180682
H28   H     H_    0.144186 0.093131 0.885783 0.121220
C56   C     C_R   0.263216 0.149775 0.840440 -0.068255
H29   H     H_    0.124331 0.154890 0.822718 0.135718
C57   C     C_R   0.428861 0.177669 0.826733 0.129564
C58   C     C_R   0.607397 0.168113 0.849377 -0.138364
H30   H     H_    0.737614 0.189145 0.839816 0.152558
C59   C     C_R   0.619594 0.131945 0.885165 -0.166445
H31   H     H_    0.759277 0.125731 0.901933 0.128847
C60   C     C_R   0.453358 0.104514 0.899272 -0.055131
C61   C     C_R   0.554451 0.210772 0.747849 -0.218382
H32   H     H_    0.670779 0.179137 0.744144 0.138394
C62   C     C_R   0.542454 0.245586 0.711013 -0.145864
H33   H     H_    0.649916 0.239813 0.679905 0.122348
C63   C     C_R   0.391557 0.286383 0.713600 -0.004798
C64   C     C_R   0.253595 0.291632 0.754205 -0.221257
H34   H     H_    0.138057 0.323539 0.758058 0.146318
C65   C     C_R   0.265460 0.256961 0.791207 0.628354
C66   C     C_R   0.415924 0.215733 0.788270 -0.039923
C67   C     C_R   0.199515 0.336159 0.654118 -0.141407
H35   H     H_    0.067552 0.317865 0.665810 0.101430
C68   C     C_R   0.188088 0.371676 0.617788 -0.163980
H36   H     H_    0.047391 0.380278 0.602994 0.119738
C69   C     C_R   0.356070 0.395646 0.600823 -0.054959
C70   C     C_R   0.535642 0.382996 0.621087 -0.165835
H37   H     H_    0.668139 0.400857 0.609241 0.122252
C71   C     C_R   0.546958 0.347570 0.657403 -0.135205
H38   H     H_    0.687369 0.339716 0.672826 0.105755
C72   C     C_R   0.379124 0.323718 0.674485 0.128501
O11   O     O_R   0.308350 0.060850 0.061810 -0.539552
O12   O     O_R   0.633860 0.053770 0.953650 -0.543884
O13   O     O_R   0.798960 0.939210 0.938150 -0.538603
C73   C     C_R   0.464691 0.065870 0.937130 0.693467
O14   O     O_R   0.638360 0.067800 0.062400 -0.541270
O15   O     O_R   0.803500 0.953330 0.047670 -0.537958
C74   C     C_R   0.469599 0.084919 0.082342 0.710639
O16   O     O_R   0.303810 0.046730 0.952290 -0.540099
O17   O     O_3   0.468430 0.962490 0.995010 -0.366067
V3    V     V_3+5 0.745300 0.006960 0.000930 1.406436
O18   O     O_R   0.132880 0.946160 0.046390 -0.542602
C75   C     C_R   0.964269 0.934144 0.062939 0.703893
O19   O     O_R   0.128380 0.932130 0.937650 -0.543415
C76   C     C_R   0.958462 0.915658 0.917349 0.713966
V4    V     V_3+5 0.244670 0.992930 0.999140 1.407572
O20   O     O_3   0.971670 0.037510 0.005000 -0.369576
C77   C     C_2   0.288864 0.796317 0.155927 0.703651
O21   O     O_2   0.398963 0.777450 0.118739 -0.556436
O22   O     O_R   0.334473 0.789614 0.206909 -0.667411
H39   H     H_    0.459004 0.767137 0.207540 0.298082
F1    F     F_    0.132918 0.265220 0.830837 -0.696387

loop_
_geom_bond_atom_site_label_1
_geom_bond_atom_site_label_2
_ccdc_geom_bond_type
C32   C33   A    
O18   V4    S    
C59   H31   S    
C69   C70   A    
C42   C43   A    
C2    C69   S    
C13   C22   S    
C65   C66   A    
C1    O6    A    
C61   C62   A    
C50   C51   A    
C54   H25   S    
O19   C76   A    
C46   C47   A    
C33   C34   A    
C46   H23   S    
C11   H4    S    
C23   H12   S    
C17   H8    S    
C6    C7    A    
C64   C65   A    
C36   H16   S    
O5    C3    A    
C18   H9    S    
C62   H33   S    
C73   O16   A    
V3    O20   S    
V2    O10   S    
C63   C64   A    
O12   V3    S    
C20   H10   S    
C60   C73   S    
O14   V3    S    
C5    C6    A    
C70   H37   S    
C50   H26   S    
O8    V2    S    
C47   C52   A    
C67   C72   A    
C52   C53   A    
C68   C69   A    
C56   C57   A    
C9    H3    S    
C14   C15   A    
C39   C40   A    
O1    V2    S    
C30   H15   S    
O7    V1    S    
C45   H22   S    
C65   F1    S    
C36   C37   A    
C59   C60   A    
C51   H27   S    
O9    C4    A    
O11   C74   A    
C20   C21   A    
C3    C24   S    
O15   V3    S    
C61   H32   S    
C71   C72   A    
C27   C28   A    
O4    C2    A    
C31   C36   A    
C8    C9    A    
C57   C66   S    
C43   C44   A    
C45   C46   A    
C29   H14   S    
C61   C66   A    
C47   C48   A    
C41   C42   A    
C25   H13   S    
C30   C31   A    
C23   C28   A    
C37   C38   A    
O2    C1    A    
C21   H11   S    
O14   C74   A    
C49   C54   A    
O17   V4    S    
O15   C75   A    
C40   C74   S    
C38   H17   S    
C24   C25   A    
C1    C53   S    
C77   O21   D    
C26   C29   A    
C56   H29   S    
C5    H1    S    
C71   H38   S    
C17   C22   A    
C44   C51   A    
C28   C35   A    
C23   C24   A    
C53   C54   A    
C55   C56   A    
C10   C75   S    
C21   C22   A    
O3    C4    A    
O13   C76   A    
C19   C20   A    
C58   C59   A    
C55   C60   A    
C26   C27   A    
O6    V2    S    
C43   C48   A    
O9    V2    S    
O18   C75   A    
C42   C45   A    
C34   H18   S    
O17   V3    S    
O2    V1    S    
C41   H21   S    
C29   C30   A    
O12   C73   A    
C67   H35   S    
O19   V4    S    
C52   H24   S    
C37   C76   S    
C31   C32   A    
C12   H5    S    
O1    C2    A    
C14   H6    S    
C63   C72   S    
C49   C50   A    
O5    V1    S    
O8    C3    A    
C35   H19   S    
C7    C16   S    
V4    O20   S    
O11   V4    S    
C11   C12   A    
C27   C32   A    
C58   H30   S    
C5    C10   A    
C6    H2    S    
C17   C18   A    
O7    V2    S    
O4    V1    S    
O3    V1    S    
V1    O10   S    
O22   H39   S    
C18   C19   A    
C77   O22   S    
O13   V3    S    
C34   C35   A    
C13   C14   A    
C62   C63   A    
C25   C26   A    
C8    C77   S    
C12   C13   A    
C15   C16   A    
C15   H7    S    
C9    C10   A    
C55   H28   S    
C70   C71   A    
C4    C19   S    
C48   C49   A    
C11   C16   A    
C40   C41   A    
C57   C58   A    
C64   H34   S    
C39   C44   A    
C33   C38   A    
C7    C8    A    
O16   V4    S    
C68   H36   S    
C67   C68   A    
C39   H20   S    
