data_mof_unit_33648.cif
_audit_creation_date              2012-12-10T19:11:33-0500
_audit_creation_method            fapswitch 2.2
_symmetry_space_group_name_H-M    P1
_symmetry_Int_Tables_number       1
_space_group_crystal_system       triclinic
_cell_length_a                    7.879125
_cell_length_b                    9.079824
_cell_length_c                    17.436291
_cell_angle_alpha                 90.002547
_cell_angle_beta                  86.447563
_cell_angle_gamma                 89.979925
_cell_volume                      1245.0139168

loop_
_atom_site_label
_atom_site_type_symbol
_atom_type_description
_atom_site_fract_x
_atom_site_fract_y
_atom_site_fract_z
_atom_type_partial_charge
C1    C     C_R   0.499985 0.779571 0.500007 0.839349
C2    C     C_R   0.500015 0.220429 0.499993 0.839349
C3    C     C_1   0.499980 0.934512 0.500002 -0.126232
C4    C     C_1   0.500020 0.065488 0.499998 -0.126232
C5    C     C_R   0.478269 0.497143 0.650081 0.851098
C6    C     C_R   0.521731 0.502857 0.349919 0.851097
C7    C     C_R   0.466559 0.488376 0.734448 -0.230407
C8    C     C_R   0.533441 0.511623 0.265552 -0.230407
C9    C     C_R   0.613152 0.504056 0.775853 0.135253
C10   C     C_R   0.386848 0.495943 0.224147 0.135253
C11   C     C_R   0.604048 0.463593 0.853124 0.143482
C12   C     C_R   0.395952 0.536404 0.146876 0.143482
C13   C     C_R   0.447771 0.477465 0.895125 -0.038577
C14   C     C_R   0.552229 0.522532 0.104875 -0.038577
C15   C     C_R   0.299595 0.488403 0.855148 0.167928
C16   C     C_R   0.700405 0.511594 0.144852 0.167928
C17   C     C_R   0.309677 0.463289 0.775837 0.128993
C18   C     C_R   0.690323 0.536709 0.224162 0.128993
C19   C     C_2   0.437622 0.472942 0.979630 -0.089779
C20   C     C_2   0.562378 0.527054 0.020369 -0.089779
Cu1   Cu    Cu3+1 0.330920 0.500000 0.500000 1.075812
Cu2   Cu    Cu3+1 0.669080 0.500000 0.500000 1.075812
H1    H     H_    0.676225 0.572499 0.991037 0.203439
H2    H     H_    0.323776 0.427497 0.008963 0.203439
N1    N     N_1   0.923170 0.500000 0.500010 -0.014618
N2    N     N_1   0.076830 0.500000 0.499990 -0.014618
O1    O     O_R   0.357240 0.711600 0.500000 -0.575819
O2    O     O_R   0.642760 0.288400 0.500000 -0.575819
O3    O     O_R   0.642760 0.711600 0.500000 -0.570543
O4    O     O_R   0.357240 0.288400 0.500000 -0.570543
O5    O     O_R   0.340660 0.500000 0.613590 -0.562667
O6    O     O_R   0.659340 0.500000 0.386410 -0.562667
O7    O     O_R   0.626230 0.500000 0.613600 -0.562204
O8    O     O_R   0.373770 0.500000 0.386400 -0.562203
I1    I     I_    0.080288 0.589194 0.907479 -0.201978
I2    I     I_    0.919712 0.410802 0.092522 -0.201977
I3    I     I_    0.233024 0.707452 0.113075 -0.184266
I4    I     I_    0.766975 0.292544 0.886924 -0.184266
I5    I     I_    0.805997 0.656994 0.739095 -0.197908
I6    I     I_    0.194003 0.343005 0.260906 -0.197909
I7    I     I_    0.891229 0.655699 0.272242 -0.190353
I8    I     I_    0.108771 0.344299 0.727757 -0.190354

loop_
_geom_bond_atom_site_label_1
_geom_bond_atom_site_label_2
_ccdc_geom_bond_type
C11   I4    S    
C6    O6    A    
Cu1   N2    S    
C15   C17   A    
Cu2   O3    S    
C14   C20   S    
Cu1   O5    S    
Cu1   O4    S    
Cu2   O6    S    
C2    C4    S    
C19   C20   D    
C20   H1    S    
C2    O4    A    
C1    O3    A    
C19   H2    S    
Cu1   O1    S    
Cu2   O2    S    
Cu1   Cu2   S    
C16   I2    S    
C11   C13   A    
C10   C12   A    
C7    C17   A    
C15   I1    S    
C12   C14   A    
C5    C7    S    
C9    C11   A    
C13   C15   A    
C14   C16   A    
C2    O2    A    
C13   C19   S    
C3    C4    T    
C7    C9    A    
C9    I5    S    
C16   C18   A    
C18   I7    S    
C12   I3    S    
C1    O1    A    
Cu2   O7    S    
C17   I8    S    
C10   I6    S    
C6    C8    S    
Cu1   O8    S    
C1    C3    S    
N1    N2    T    
C8    C10   A    
C8    C18   A    
C6    O8    A    
C5    O5    A    
Cu2   N1    S    
C5    O7    A    
