data_mof_unit_49049.cif
_audit_creation_date              2012-12-10T18:50:51-0500
_audit_creation_method            fapswitch 2.2
_symmetry_space_group_name_H-M    P1
_symmetry_Int_Tables_number       1
_space_group_crystal_system       triclinic
_cell_length_a                    10.631576
_cell_length_b                    9.969986
_cell_length_c                    15.787751
_cell_angle_alpha                 89.852546
_cell_angle_beta                  92.17541
_cell_angle_gamma                 90.064887
_cell_volume                      1672.23644627

loop_
_atom_site_label
_atom_site_type_symbol
_atom_type_description
_atom_site_fract_x
_atom_site_fract_y
_atom_site_fract_z
_atom_type_partial_charge
C1    C     C_R   0.260558 0.499975 0.499669 1.054302
C2    C     C_3   0.641465 0.512261 0.955876 -0.298671
C3    C     C_3   0.631898 0.536043 0.055130 0.587750
C4    C     C_1   0.500832 0.499573 0.824666 0.137743
C5    C     C_1   0.494451 0.502180 0.175290 0.074810
C6    C     C_1   0.497113 0.500860 0.250350 -0.037289
C7    C     C_R   0.061144 0.431205 0.435193 0.275747
C8    C     C_R   0.069077 0.569345 0.564476 0.284228
C9    C     C_R   0.929934 0.437292 0.433046 0.285071
C10   C     C_R   0.938125 0.563103 0.567138 0.274436
C11   C     C_R   0.871715 0.500145 0.500216 -0.208628
C12   C     C_R   0.127714 0.500062 0.499803 -0.204111
C13   C     C_R   0.568341 0.070827 0.560386 0.409674
C14   C     C_R   0.568362 0.928888 0.560372 0.393275
C15   C     C_R   0.499525 0.500179 0.338782 0.924637
C16   C     C_R   0.431591 0.929153 0.439587 0.415602
C17   C     C_R   0.431630 0.071072 0.439576 0.403673
C18   C     C_R   0.739196 0.500056 0.500382 1.065118
C19   C     C_R   0.500400 0.499841 0.661236 0.923311
C20   C     C_3   0.398296 0.618894 0.046590 -0.131555
C21   C     C_3   0.449453 0.355436 0.049494 -0.334621
C22   C     C_3   0.433602 0.363923 0.947161 0.274039
C23   C     C_3   0.416623 0.627450 0.945241 0.177292
C24   C     C_1   0.500682 0.499496 0.749623 -0.008755
C25   C     C_3   0.492074 0.502881 0.083188 -0.029469
C26   C     C_3   0.499646 0.500513 0.916619 -0.036174
N1    N     N_R   0.499970 0.857200 0.499980 -0.278838
N2    N     N_R   0.499970 0.142800 0.499980 -0.277168
O1    O     O_R   0.316750 0.614620 0.499990 -0.625141
O2    O     O_R   0.316750 0.385380 0.499990 -0.628857
O3    O     O_R   0.499990 0.614720 0.377140 -0.611648
O4    O     O_R   0.499990 0.385280 0.377140 -0.618472
O5    O     O_R   0.683220 0.614710 0.500000 -0.630312
O6    O     O_R   0.683220 0.385290 0.500000 -0.623067
O7    O     O_R   0.499980 0.614620 0.622860 -0.616315
O8    O     O_R   0.499980 0.385380 0.622860 -0.614427
Zn1   Zn    Zn3+2 0.499980 0.653120 0.500000 1.006997
Zn2   Zn    Zn3+2 0.499980 0.346880 0.500000 1.007490
O9    O     O_3   0.295843 0.624435 0.904036 -0.793167
H1    H     H_    0.302485 0.630720 0.841632 0.357614
O10   O     O_3   0.306294 0.366750 0.917327 -0.703019
H2    H     H_    0.250890 0.407112 0.958518 0.381895
O11   O     O_3   0.358759 0.867215 0.377306 -0.644310
H3    H     H_    0.343301 0.774578 0.395085 0.380444
O12   O     O_3   0.358835 0.133262 0.377298 -0.663159
H4    H     H_    0.343736 0.225700 0.395131 0.398106
C27   C     C_2   0.261695 0.589556 0.069818 0.295214
H5    H     H_    0.184265 0.588291 0.023332 0.173198
O13   O     O_2   0.233732 0.578253 0.143935 -0.558511
C28   C     C_2   0.329559 0.304131 0.089676 0.476022
H6    H     H_    0.301358 0.341261 0.150466 0.132777
O14   O     O_2   0.270251 0.210069 0.058638 -0.503698
C29   C     C_2   0.544766 0.250060 0.083817 0.378854
H7    H     H_    0.603428 0.270903 0.139745 0.172889
O15   O     O_2   0.544808 0.134201 0.058924 -0.515409
C30   C     C_2   0.413884 0.757573 0.088263 0.706171
H8    H     H_    0.367470 0.843382 0.058236 0.091416
O16   O     O_2   0.467326 0.774715 0.157204 -0.503960
C31   C     C_2   0.477101 0.234390 0.904918 0.592019
H9    H     H_    0.434424 0.140388 0.923483 0.158312
O17   O     O_2   0.547164 0.231774 0.845530 -0.528335
C32   C     C_2   0.476019 0.759070 0.913399 0.410605
H10   H     H_    0.458360 0.788689 0.847779 0.116962
O18   O     O_2   0.546220 0.830096 0.956767 -0.503867
O19   O     O_3   0.659628 0.671410 0.074850 -0.729790
H11   H     H_    0.684363 0.677275 0.136052 0.393002
O20   O     O_3   0.721343 0.456286 0.100815 -0.840658
H12   H     H_    0.806408 0.490211 0.087800 0.349595
C33   C     C_2   0.721557 0.624862 0.917957 0.637111
H13   H     H_    0.797437 0.669970 0.956081 0.113320
O21   O     O_2   0.711077 0.657801 0.843457 -0.536454
C34   C     C_2   0.717532 0.385647 0.937690 0.428107
H14   H     H_    0.723478 0.303144 0.982220 0.141557
O22   O     O_2   0.770856 0.372054 0.870906 -0.465198
O23   O     O_3   0.126777 0.362756 0.374962 -0.748160
H15   H     H_    0.074681 0.286721 0.353646 0.372402
O24   O     O_3   0.142141 0.638766 0.624045 -0.746094
H16   H     H_    0.092334 0.714295 0.645748 0.364346
O25   O     O_3   0.856177 0.386685 0.366426 -0.739026
H17   H     H_    0.904996 0.388514 0.314255 0.365927
O26   O     O_3   0.872540 0.613490 0.634060 -0.725911
H18   H     H_    0.927744 0.611862 0.685995 0.380583
O27   O     O_3   0.641145 0.132756 0.622684 -0.631748
H19   H     H_    0.656544 0.225420 0.604940 0.382397
O28   O     O_3   0.641242 0.866653 0.622623 -0.635347
H20   H     H_    0.656870 0.774337 0.604683 0.403301

loop_
_geom_bond_atom_site_label_1
_geom_bond_atom_site_label_2
_ccdc_geom_bond_type
C11   C18   S    
O10   H2    S    
C20   C30   S    
O26   H18   S    
C15   O4    A    
C27   O13   D    
O24   H16   S    
O7    Zn1   S    
C17   O12   S    
C19   O8    A    
C5    C6    T    
C4    C24   T    
C22   O10   S    
C20   C25   S    
C30   H8    S    
O2    Zn2   S    
C9    O25   S    
C23   C26   S    
C33   O21   D    
O23   H15   S    
C6    C15   S    
C23   C32   S    
C27   H5    S    
C29   H7    S    
C16   C17   A    
C28   O14   D    
C13   N2    A    
O4    Zn2   S    
C14   N1    A    
C2    C33   S    
C32   O18   D    
C16   N1    A    
C31   H9    S    
C21   C22   S    
C3    O19   S    
C1    C12   S    
C2    C34   S    
C21   C28   S    
C29   O15   D    
C7    C12   A    
C31   O17   D    
O20   H12   S    
C3    C25   S    
C34   O22   D    
O9    H1    S    
C7    O23   S    
O28   H20   S    
O5    Zn1   S    
O3    Zn1   S    
O11   H3    S    
C32   H10   S    
C18   O6    A    
O27   H19   S    
C20   C23   S    
N2    Zn2   S    
C8    C12   A    
C1    O1    A    
C28   H6    S    
C2    C26   S    
C9    C11   A    
C16   O11   S    
C5    C25   S    
C8    O24   S    
C22   C31   S    
C7    C9    A    
C21   C25   S    
O6    Zn2   S    
C17   N2    A    
C3    O20   S    
C14   O28   S    
C34   H14   S    
C4    C26   S    
C15   O3    A    
C13   O27   S    
C10   O26   S    
O8    Zn2   S    
C19   C24   S    
C19   O7    A    
C21   C29   S    
N1    Zn1   S    
C23   O9    S    
C1    O2    A    
C30   O16   D    
C2    C3    S    
C33   H13   S    
C18   O5    A    
C20   C27   S    
C10   C11   A    
O25   H17   S    
O12   H4    S    
C8    C10   A    
O19   H11   S    
C22   C26   S    
O1    Zn1   S    
C13   C14   A    
