data_mof_unit_32994.cif
_audit_creation_date              2012-12-10T16:46:44-0500
_audit_creation_method            fapswitch 2.2
_symmetry_space_group_name_H-M    P1
_symmetry_Int_Tables_number       1
_space_group_crystal_system       triclinic
_cell_length_a                    15.853203
_cell_length_b                    8.687368
_cell_length_c                    7.49215
_cell_angle_alpha                 102.794266
_cell_angle_beta                  95.095571
_cell_angle_gamma                 92.217292
_cell_volume                      1000.43224946

loop_
_atom_site_label
_atom_site_type_symbol
_atom_type_description
_atom_site_fract_x
_atom_site_fract_y
_atom_site_fract_z
_atom_type_partial_charge
C1    C     C_R   0.499761 0.200263 0.454486 0.898000
C2    C     C_3   0.958484 0.448484 0.688709 0.012542
C3    C     C_3   0.917282 0.494304 0.510787 0.196207
C4    C     C_3   0.954911 0.658650 0.499167 -0.396072
C5    C     C_3   0.052889 0.659702 0.510667 -0.414763
C6    C     C_1   0.824776 0.496521 0.504526 -0.062747
C7    C     C_1   0.175172 0.494806 0.501341 -0.106270
C8    C     C_1   0.250779 0.497627 0.501458 -0.171850
C9    C     C_2   0.496473 0.032941 0.433396 -0.405837
C10   C     C_2   0.522664 0.966667 0.572031 -0.007765
C11   C     C_R   0.340401 0.499660 0.500841 0.813277
C12   C     C_R   0.507286 0.799768 0.546339 0.822383
C13   C     C_R   0.659578 0.500018 0.499201 0.833966
C14   C     C_3   0.057146 0.435965 0.679931 0.012452
C15   C     C_3   0.037938 0.379458 0.329493 -0.430940
C16   C     C_3   0.940601 0.372231 0.339075 -0.029494
C17   C     C_1   0.749104 0.498195 0.499382 -0.109117
C18   C     C_3   0.083001 0.490897 0.505570 0.216057
Cu1   Cu    Cu3+1 0.509300 0.517380 0.684380 0.994877
Cu2   Cu    Cu3+1 0.490700 0.482620 0.315620 0.981149
H1    H     H_    0.930052 0.328292 0.683343 0.169995
H2    H     H_    0.093246 0.516490 0.800057 0.175324
H3    H     H_    0.930394 0.685717 0.366401 0.186694
H4    H     H_    0.466558 0.962414 0.303110 0.165402
H5    H     H_    0.434850 0.375872 0.948603 0.231743
H6    H     H_    0.565178 0.624087 0.051378 0.236046
H7    H     H_    0.051791 0.427592 0.209129 0.171598
H8    H     H_    0.062690 0.259559 0.307999 0.195651
H9    H     H_    0.909198 0.403740 0.215804 0.150122
H10   H     H_    0.081537 0.743294 0.637932 0.170719
H11   H     H_    0.074965 0.704185 0.393329 0.181901
H12   H     H_    0.934062 0.753930 0.608100 0.204318
N1    N     N_2   0.476670 0.456430 0.038530 -0.203098
N2    N     N_2   0.523330 0.543570 0.961470 -0.199821
O1    O     O_R   0.506050 0.286130 0.619770 -0.559485
O2    O     O_R   0.490330 0.256780 0.308370 -0.570621
O3    O     O_R   0.387300 0.514690 0.655770 -0.587294
O4    O     O_R   0.371580 0.485340 0.344370 -0.579816
O5    O     O_R   0.509670 0.743220 0.691630 -0.561749
O6    O     O_R   0.493950 0.713870 0.380230 -0.601044
O7    O     O_R   0.628420 0.514660 0.655630 -0.568250
O8    O     O_R   0.612700 0.485310 0.344230 -0.571833
C19   C     C_3   0.932012 0.549381 0.873001 -0.399624
C20   C     C_3   0.987590 0.697305 0.972641 -0.831998
H13   H     H_    0.046467 0.664888 0.043414 0.227839
H14   H     H_    0.003820 0.774367 0.880596 0.255503
H15   H     H_    0.952413 0.768127 0.080743 0.264313
H16   H     H_    0.865817 0.584274 0.853999 0.226351
H17   H     H_    0.930938 0.470759 0.969379 0.193860
I1    I     I_    0.595815 0.081931 0.826073 -0.275159
C21   C     C_3   0.085153 0.266286 0.683347 -0.433370
C22   C     C_3   0.082831 0.227529 0.871636 -0.864269
H18   H     H_    0.128504 0.308968 0.973660 0.250849
H19   H     H_    0.017967 0.236010 0.916157 0.267060
H20   H     H_    0.101765 0.104696 0.864297 0.250685
H21   H     H_    0.044525 0.175513 0.581346 0.242769
H22   H     H_    0.151226 0.253195 0.646605 0.217922
I2    I     I_    0.889365 0.132692 0.312322 -0.475291

loop_
_geom_bond_atom_site_label_1
_geom_bond_atom_site_label_2
_ccdc_geom_bond_type
C12   O6    A    
C15   C18   S    
Cu2   O8    S    
C19   C20   S    
C22   H20   S    
C9    H4    S    
C21   H22   S    
C11   O4    A    
Cu2   O4    S    
C19   H16   S    
C14   C18   S    
C15   H7    S    
C14   C21   S    
C20   H15   S    
C13   C17   S    
C2    C19   S    
C7    C18   S    
C14   H2    S    
C12   O5    A    
C13   O7    A    
C2    C3    S    
C16   H9    S    
C1    C9    S    
C7    C8    T    
Cu1   O1    S    
C3    C4    S    
C22   H18   S    
C15   H8    S    
C4    H12   S    
Cu1   O5    S    
C2    H1    S    
C8    C11   S    
C2    C14   S    
Cu2   N1    S    
C10   C12   S    
C13   O8    A    
C20   H14   S    
C22   H19   S    
N1    N2    D    
Cu2   O6    S    
C15   C16   S    
C10   I1    S    
Cu1   O7    S    
C21   C22   S    
C20   H13   S    
C1    O1    A    
C21   H21   S    
C9    C10   D    
C3    C6    S    
C11   O3    A    
C6    C17   T    
C19   H17   S    
C16   I2    S    
C5    C18   S    
Cu1   O3    S    
C4    H3    S    
C1    O2    A    
H6    N2    S    
C3    C16   S    
Cu1   Cu2   S    
C5    H10   S    
H5    N1    S    
C4    C5    S    
C5    H11   S    
Cu1   N2    S    
Cu2   O2    S    
