data_mof_unit_41934.cif
_audit_creation_date              2012-12-11T15:56:43-0500
_audit_creation_method            fapswitch 2.2
_symmetry_space_group_name_H-M    P1
_symmetry_Int_Tables_number       1
_space_group_crystal_system       triclinic
_cell_length_a                    14.659744
_cell_length_b                    7.165818
_cell_length_c                    13.5706
_cell_angle_alpha                 90.021343
_cell_angle_beta                  99.88215
_cell_angle_gamma                 89.952793
_cell_volume                      1404.42668553

loop_
_atom_site_label
_atom_site_type_symbol
_atom_type_description
_atom_site_fract_x
_atom_site_fract_y
_atom_site_fract_z
_atom_type_partial_charge
O1    O     O_R   0.336930 0.638190 0.166330 -0.515322
O2    O     O_R   0.663070 0.361810 0.833670 -0.527403
O3    O     O_R   0.163070 0.138190 0.333670 -0.522452
O4    O     O_R   0.836930 0.861810 0.666330 -0.523061
O5    O     O_R   0.147900 0.305430 0.139630 -0.527834
O6    O     O_R   0.852100 0.694570 0.860370 -0.530019
O7    O     O_R   0.352100 0.805430 0.360370 -0.537489
O8    O     O_R   0.647900 0.194570 0.639630 -0.538812
C1    C     C_R   0.115076 0.477603 0.113146 0.743801
C2    C     C_R   0.884922 0.522397 0.886858 0.738640
C3    C     C_R   0.384956 0.977567 0.386825 0.700031
C4    C     C_R   0.615098 0.022441 0.613112 0.705145
O9    O     O_R   0.335280 0.308290 0.154310 -0.553693
O10   O     O_R   0.664720 0.691710 0.845690 -0.532158
O11   O     O_R   0.164720 0.808290 0.345690 -0.531863
O12   O     O_R   0.835280 0.191710 0.654310 -0.532407
O13   O     O_R   0.351790 0.140890 0.348460 -0.540810
O14   O     O_R   0.648210 0.859110 0.651540 -0.533656
O15   O     O_R   0.148210 0.640890 0.151540 -0.530275
O16   O     O_R   0.851790 0.359110 0.848460 -0.530927
C5    C     C_R   0.364683 0.476582 0.133790 0.779968
C6    C     C_R   0.636126 0.523288 0.867115 0.806932
C7    C     C_R   0.136023 0.976915 0.367043 0.808974
C8    C     C_R   0.863855 0.023060 0.632832 0.806719
O17   O     O_3   0.255200 0.472570 0.313680 -0.382884
O18   O     O_3   0.744800 0.527430 0.686320 -0.383055
O19   O     O_3   0.244800 0.972570 0.186320 -0.367873
O20   O     O_3   0.755200 0.027430 0.813680 -0.370487
V1    V     V_3+5 0.249040 0.196590 0.238190 1.462460
V2    V     V_3+5 0.750960 0.803410 0.761810 1.480225
V3    V     V_3+5 0.250960 0.696590 0.261810 1.472085
V4    V     V_3+5 0.749040 0.303410 0.738190 1.464991
C9    C     C_R   0.073677 0.870467 0.520299 0.121601
C10   C     C_R   0.925827 0.128950 0.479228 0.122819
C11   C     C_R   0.514219 0.369970 0.080447 0.135505
C12   C     C_R   0.489685 0.634394 0.923459 0.122592
C13   C     C_R   0.008435 0.886606 0.586446 0.248998
C14   C     C_R   0.991201 0.113064 0.413185 0.250018
C15   C     C_R   0.579892 0.383013 0.015088 0.274261
C16   C     C_R   0.421660 0.616502 0.986381 0.270740
C17   C     C_R   0.933839 0.013323 0.564813 -0.183010
C18   C     C_R   0.065881 0.986530 0.434908 -0.183893
C19   C     C_R   0.567548 0.514452 0.936684 -0.192958
C20   C     C_R   0.434387 0.485885 0.065463 -0.197994
C21   C     C_1   0.533963 0.008274 0.533078 -0.179144
C22   C     C_1   0.466137 0.991784 0.466799 -0.178115
C23   C     C_1   0.966080 0.508193 0.966862 -0.154578
C24   C     C_1   0.033913 0.491806 0.033146 -0.157139
N1    N     N_2   0.149408 0.743162 0.540369 -0.525452
H1    H     H_    0.191454 0.760426 0.608871 0.238971
C25   C     C_3   0.126924 0.550307 0.514858 -0.451092
H2    H     H_    0.191716 0.467298 0.522318 0.185046
H3    H     H_    0.082631 0.490208 0.565396 0.167449
H4    H     H_    0.090318 0.538874 0.436343 0.221609
N2    N     N_2   0.849560 0.254919 0.458662 -0.526726
H5    H     H_    0.807712 0.236495 0.390128 0.242209
C26   C     C_3   0.871087 0.448341 0.483666 -0.454327
H6    H     H_    0.915177 0.508925 0.433061 0.168120
H7    H     H_    0.907530 0.461007 0.562183 0.222275
H8    H     H_    0.805879 0.530085 0.475839 0.184857
N3    N     N_2   0.531563 0.244003 0.162834 -0.534787
H9    H     H_    0.479520 0.150247 0.168270 0.276737
C27   C     C_3   0.573092 0.327185 0.256985 -0.537486
H10   H     H_    0.590928 0.216024 0.314051 0.193055
H11   H     H_    0.524069 0.426014 0.283384 0.183698
H12   H     H_    0.637711 0.402026 0.248689 0.207357
N4    N     N_2   0.479455 0.768021 0.844515 -0.528819
H13   H     H_    0.418669 0.757924 0.793787 0.238425
C28   C     C_3   0.504417 0.957288 0.875550 -0.447532
H14   H     H_    0.575484 0.961408 0.919864 0.228168
H15   H     H_    0.455293 0.015116 0.921506 0.176025
H16   H     H_    0.502853 0.046713 0.808481 0.171641
O21   O     O_3   0.015695 0.783986 0.673951 -0.648262
H17   H     H_    0.074627 0.714558 0.687054 0.294166
O22   O     O_3   0.983911 0.215504 0.325622 -0.647670
H18   H     H_    0.924844 0.284457 0.312361 0.296144
O23   O     O_3   0.658852 0.273192 0.027444 -0.645117
H19   H     H_    0.656906 0.178212 0.079870 0.321409
O24   O     O_3   0.341363 0.722357 0.972950 -0.641110
H20   H     H_    0.335419 0.796919 0.911105 0.293826

loop_
_geom_bond_atom_site_label_1
_geom_bond_atom_site_label_2
_ccdc_geom_bond_type
O17   V3    S    
N2    H5    S    
C27   H11   S    
O1    C5    A    
O19   V1    S    
O13   V1    S    
O21   H17   S    
O3    C7    A    
O15   V3    S    
C12   N4    S    
C21   C22   T    
O7    C3    A    
C7    C18   S    
C9    C18   A    
C15   O23   S    
O9    V1    S    
C14   C18   A    
O4    C8    A    
C26   H7    S    
C9    N1    S    
O1    V3    S    
O2    V4    S    
C28   H15   S    
C1    O15   A    
C6    C19   S    
C2    O16   A    
N1    C25   S    
O2    C6    A    
O14   V2    S    
O11   C7    A    
C27   H12   S    
C10   N2    S    
O12   C8    A    
C8    C17   S    
N3    H9    S    
C10   C17   A    
O10   V2    S    
O5    V1    S    
C14   O22   S    
O7    V3    S    
N4    H13   S    
O8    V4    S    
C12   C16   A    
O18   V4    S    
C26   H8    S    
C15   C19   A    
O23   H19   S    
C9    C13   A    
O24   H20   S    
C25   H3    S    
C28   H16   S    
C11   C15   A    
O22   H18   S    
O5    C1    A    
C5    C20   S    
C23   C24   T    
O8    C4    A    
N3    C27   S    
C16   O24   S    
O9    C5    A    
C11   N3    S    
C11   C20   A    
O6    V2    S    
N2    C26   S    
O16   V4    S    
C13   O21   S    
C3    O13   A    
C10   C14   A    
C4    C21   S    
C3    C22   S    
O6    C2    A    
O11   V3    S    
O12   V4    S    
C25   H4    S    
O10   C6    A    
O20   V2    S    
C25   H2    S    
O3    V1    S    
C26   H6    S    
C13   C17   A    
C28   H14   S    
C27   H10   S    
C16   C20   A    
C1    C24   S    
N1    H1    S    
C4    O14   A    
C2    C23   S    
C12   C19   A    
N4    C28   S    
O4    V2    S    
