data_mof_unit_34468.cif
_audit_creation_date              2012-12-11T14:23:17-0500
_audit_creation_method            fapswitch 2.2
_symmetry_space_group_name_H-M    P1
_symmetry_Int_Tables_number       1
_space_group_crystal_system       triclinic
_cell_length_a                    11.018317
_cell_length_b                    11.007335
_cell_length_c                    18.782392
_cell_angle_alpha                 90.607592
_cell_angle_beta                  89.715221
_cell_angle_gamma                 60.260717
_cell_volume                      1977.69530964

loop_
_atom_site_label
_atom_site_type_symbol
_atom_type_description
_atom_site_fract_x
_atom_site_fract_y
_atom_site_fract_z
_atom_type_partial_charge
C1    C     C_R   0.243846 0.642357 0.612027 0.575542
C2    C     C_R   0.557531 0.182432 0.716885 0.382771
C3    C     C_R   0.566703 0.188806 0.788919 0.370737
C4    C     C_R   0.653993 0.624000 0.599991 0.599504
C5    C     C_R   0.941584 0.101569 0.805568 -0.055900
C6    C     C_R   0.054479 0.070104 0.759634 0.223896
C7    C     C_R   0.042145 0.060288 0.686707 -0.106951
C8    C     C_R   0.916037 0.087036 0.658311 -0.089917
C9    C     C_R   0.667441 0.165284 0.672712 -0.025978
C10   C     C_R   0.202863 0.644822 0.839820 0.010653
C11   C     C_R   0.193673 0.540182 0.800015 -0.044930
C12   C     C_3   0.679281 0.555778 0.798139 -0.260623
C13   C     C_R   0.190952 0.545243 0.724344 0.027876
C14   C     C_R   0.255082 0.726432 0.732619 -0.131398
C15   C     C_R   0.254057 0.720763 0.806571 0.366042
C16   C     C_R   0.628862 0.225312 0.601566 0.560231
C17   C     C_R   0.182437 0.433415 0.834381 -0.000628
C18   C     C_R   0.146404 0.348067 0.797097 -0.007628
C19   C     C_R   0.137822 0.354087 0.723400 -0.046703
C20   C     C_R   0.159887 0.451473 0.687065 -0.005015
C21   C     C_R   0.217215 0.645130 0.689911 -0.030147
C22   C     C_R   0.724068 0.703600 0.182135 0.003842
C23   C     C_3   0.703116 0.680593 0.810326 -0.012537
C24   C     C_R   0.815035 0.572834 0.215141 0.013054
C25   C     C_R   0.765496 0.539959 0.275568 -0.005576
C26   C     C_R   0.592632 0.786636 0.292698 -0.079783
C27   C     C_R   0.613109 0.809593 0.221848 -0.109496
C28   C     C_R   0.217483 0.651441 0.402401 0.553945
C29   C     C_R   0.940869 0.463432 0.184259 -0.152390
C30   C     C_R   0.976188 0.324711 0.191996 -0.095526
C31   C     C_R   0.897830 0.293990 0.238059 0.359386
C32   C     C_R   0.805187 0.397091 0.284689 -0.063047
C33   C     C_R   0.667245 0.650919 0.319736 0.059488
C34   C     C_3   0.670826 0.654112 0.674632 0.054995
C35   C     C_R   0.681155 0.092637 0.182937 0.066362
C36   C     C_R   0.605557 0.236718 0.198578 0.060359
C37   C     C_R   0.583149 0.280063 0.270311 -0.028763
C38   C     C_R   0.729977 0.037618 0.307015 -0.113487
C39   C     C_R   0.750023 0.995072 0.236279 -0.116988
C40   C     C_R   0.641589 0.619221 0.391335 0.552116
C41   C     C_R   0.561491 0.338314 0.144627 -0.140040
C42   C     C_R   0.504100 0.479020 0.162317 -0.077412
C43   C     C_R   0.480579 0.521234 0.233328 0.365246
C44   C     C_R   0.510528 0.424548 0.286570 -0.099034
C45   C     C_3   0.818077 0.633079 0.687597 0.085388
C46   C     C_R   0.644890 0.178740 0.323950 0.043145
C47   C     C_R   0.155429 0.678464 0.183836 0.012794
C48   C     C_R   0.159968 0.787362 0.223576 0.108233
C49   C     C_R   0.125009 0.800359 0.296318 0.012710
C50   C     C_R   0.163613 0.562427 0.293560 -0.152627
C51   C     C_R   0.165483 0.563472 0.219664 -0.176183
C52   C     C_R   0.619829 0.223895 0.397108 0.514540
C53   C     C_R   0.208772 0.876800 0.195871 0.353036
C54   C     C_R   0.204864 0.983220 0.238838 -0.014385
C55   C     C_R   0.143420 0.010599 0.306164 -0.065966
C56   C     C_3   0.651652 0.545535 0.719321 -0.268897
C57   C     C_R   0.094618 0.925300 0.332836 -0.038319
C58   C     C_R   0.148263 0.678543 0.332831 -0.001680
C59   C     C_R   0.704383 0.100247 0.895364 0.555850
C60   C     C_R   0.728149 0.691374 0.886664 0.563940
C61   C     C_R   0.123216 0.701375 0.907298 0.575678
C62   C     C_R   0.701314 0.043079 0.110701 0.492138
C63   C     C_R   0.736137 0.718071 0.104992 0.545110
C64   C     C_3   0.576000 0.816148 0.781748 -0.195895
C65   C     C_R   0.096899 0.709036 0.112037 0.540618
C66   C     C_3   0.562358 0.804151 0.700651 -0.206254
C67   C     C_R   0.694164 0.151821 0.821858 -0.072738
C68   C     C_3   0.831611 0.660872 0.767049 -0.207180
C69   C     C_R   0.811869 0.126263 0.778090 -0.103491
C70   C     C_R   0.798198 0.127324 0.702569 -0.049737
Cl1   Cl    Cl    0.215467 0.038588 0.791877 -0.599293
Cl2   Cl    Cl    0.307269 0.841283 0.116064 -0.558440
Cl3   Cl    Cl    0.857163 0.741617 0.632056 -0.689715
Cr1   Cr    Cr6+3 0.392940 0.397950 0.502230 1.047076
Cr2   Cr    Cr6+3 0.398400 0.708500 0.501260 1.027097
Cr3   Cr    Cr6+3 0.708640 0.393530 0.496460 1.001019
Cr4   Cr    Cr6+3 0.937880 0.938320 0.007620 1.094021
Cr5   Cr    Cr6+3 0.625560 0.937220 0.994510 1.110074
Cr6   Cr    Cr6+3 0.938080 0.625010 0.001190 0.986054
F1    F     F_    0.436506 0.196981 0.690738 -0.588492
F2    F     F_    0.449767 0.220416 0.826905 -0.591760
F3    F     F_    0.304345 0.786644 0.847676 -0.596688
F4    F     F_    0.905870 0.167512 0.235595 -0.659705
F5    F     F_    0.437788 0.654884 0.251786 -0.656412
H1    H     H_    0.587871 0.909063 0.793268 0.181566
H2    H     H_    0.201020 0.414013 0.890658 0.171707
H3    H     H_    0.113850 0.287264 0.827593 0.169400
H4    H     H_    0.106795 0.288659 0.694435 0.128814
H5    H     H_    0.140924 0.457509 0.630697 0.165127
H6    H     H_    0.512136 0.871414 0.324362 0.130612
H7    H     H_    0.000889 0.481898 0.145513 0.172001
H8    H     H_    0.544132 0.910073 0.198514 0.139528
H9    H     H_    0.056629 0.244023 0.158549 0.138947
H10   H     H_    0.454768 0.830482 0.687834 0.159445
H11   H     H_    0.756318 0.364035 0.322701 0.177033
H12   H     H_    0.724352 0.436520 0.700551 0.140770
H13   H     H_    0.780434 0.961072 0.348318 0.105846
H14   H     H_    0.579444 0.310211 0.088704 0.166929
H15   H     H_    0.818791 0.885691 0.223039 0.081972
H16   H     H_    0.481034 0.554223 0.120778 0.197701
H17   H     H_    0.491414 0.463619 0.340818 0.160963
H18   H     H_    0.184996 0.466670 0.319705 0.144044
H19   H     H_    0.183348 0.471168 0.190438 0.118618
H20   H     H_    0.579795 0.883223 0.673147 0.208749
H21   H     H_    0.248474 0.046091 0.219726 0.104061
H22   H     H_    0.133919 0.097791 0.337760 0.103384
H23   H     H_    0.924845 0.572446 0.788414 0.118545
H24   H     H_    0.048036 0.948092 0.385704 0.125152
H25   H     H_    0.844499 0.754449 0.774090 0.157669
H26   H     H_    0.772987 0.456968 0.814635 0.131959
H27   H     H_    0.588777 0.568756 0.830679 0.175717
H28   H     H_    0.543880 0.563073 0.712939 0.126419
H29   H     H_    0.894185 0.523114 0.673751 0.135347
H30   H     H_    0.956416 0.111579 0.861522 0.183663
H31   H     H_    0.130889 0.031925 0.651665 0.143123
H32   H     H_    0.912673 0.072911 0.601421 0.152774
H33   H     H_    0.288065 0.793000 0.708413 0.165163
H34   H     H_    0.480411 0.832883 0.809278 0.268269
O1    O     O_R   0.507340 0.255690 0.581430 -0.434888
O2    O     O_R   0.837290 0.593240 0.915240 -0.526589
O3    O     O_R   0.065320 0.635310 0.931580 -0.550565
O4    O     O_R   0.280360 0.527380 0.578910 -0.496983
O5    O     O_R   0.068470 0.828620 0.091850 -0.461898
O6    O     O_R   0.799150 0.057200 0.079350 -0.472094
O7    O     O_R   0.585220 0.080180 0.076770 -0.532798
O8    O     O_R   0.627170 0.809480 0.067050 -0.448313
O9    O     O_R   0.816200 0.596410 0.076500 -0.511746
O10   O     O_R   0.045770 0.638240 0.081070 -0.554710
O11   O     O_3   0.833840 0.833520 0.001110 -0.330501
O12   O     O_R   0.524510 0.695820 0.424050 -0.481984
O13   O     O_R   0.260600 0.739610 0.584580 -0.532317
O14   O     O_R   0.532370 0.695050 0.573830 -0.513691
O15   O     O_R   0.744850 0.503430 0.576380 -0.516872
O16   O     O_R   0.699080 0.276500 0.571950 -0.532466
O17   O     O_R   0.498860 0.256520 0.419860 -0.524385
O18   O     O_R   0.272490 0.528150 0.429140 -0.510896
O19   O     O_R   0.252110 0.740440 0.423010 -0.510569
O20   O     O_R   0.736370 0.504260 0.414810 -0.541924
O21   O     O_R   0.691220 0.277270 0.422180 -0.524698
O22   O     O_3   0.499990 0.499990 0.499980 -0.275443
O23   O     O_R   0.089570 0.825450 0.930590 -0.417409
O24   O     O_R   0.818700 0.054260 0.929860 -0.529408
O25   O     O_R   0.606310 0.077010 0.915520 -0.427323
O26   O     O_R   0.646730 0.806540 0.917560 -0.471359

loop_
_geom_bond_atom_site_label_1
_geom_bond_atom_site_label_2
_ccdc_geom_bond_type
Cr6   O10   S    
C34   C56   S    
C5    H30   S    
C41   C42   A    
C19   C20   A    
C16   O16   A    
C34   C66   S    
C12   H26   S    
C64   H34   S    
C7    C8    A    
C4    O14   A    
C53   C54   A    
C1    C21   S    
Cr1   O1    S    
Cr6   O3    S    
C12   C23   S    
C26   C27   A    
C14   C21   A    
C61   O3    A    
C36   C37   A    
C9    C16   S    
C30   H9    S    
Cr5   O26   S    
Cr2   O22   S    
C30   C31   A    
C51   H19   S    
Cr6   O11   S    
C46   C52   S    
C52   O21   A    
C49   C57   A    
C45   Cl3   S    
C18   C19   A    
C7    H31   S    
Cr4   O24   S    
C5    C69   A    
C59   C67   S    
C22   C63   S    
C24   C29   A    
C11   C17   A    
C35   C36   A    
C59   O24   A    
Cr1   O18   S    
C3    F2    S    
C47   C48   A    
C68   H23   S    
C54   H21   S    
Cr2   O12   S    
C66   H10   S    
C25   C32   A    
C59   O25   A    
Cr1   O17   S    
C43   F5    S    
C36   C41   A    
C48   C53   A    
C38   H13   S    
C62   O6    A    
Cr2   O13   S    
C50   C51   A    
C15   F3    S    
Cr3   O22   S    
C23   C60   S    
C4    C34   S    
C33   C40   S    
C55   H22   S    
C17   H2    S    
C50   C58   A    
C65   O10   A    
C66   H20   S    
C38   C39   A    
C9    C70   A    
C19   H4    S    
Cr2   O19   S    
C16   O1    A    
Cr3   O16   S    
C47   C51   A    
Cr1   O22   S    
C49   C58   A    
C40   O20   A    
C67   C69   A    
C64   C66   S    
C23   C68   S    
C2    C9    A    
C35   C39   A    
C43   C44   A    
C29   C30   A    
Cr4   O5    S    
C42   H16   S    
C26   C33   A    
C39   H15   S    
C31   C32   A    
C14   C15   A    
C44   H17   S    
C14   H33   S    
Cr6   O2    S    
C57   H24   S    
C45   C68   S    
C17   C18   A    
C31   F4    S    
C13   C21   A    
C27   H8    S    
C34   C45   S    
Cr4   O11   S    
C24   C25   A    
Cr5   O7    S    
C12   C56   S    
C61   O23   A    
C23   C64   S    
Cr1   O4    S    
C50   H18   S    
Cr3   O20   S    
C22   C27   A    
C55   C57   A    
C22   C24   A    
C10   C61   S    
C42   C43   A    
Cr5   O8    S    
C64   H1    S    
C29   H7    S    
Cr2   O14   S    
Cr3   O21   S    
C56   H12   S    
C40   O12   A    
C54   C55   A    
C48   C49   A    
C13   C20   A    
C28   O18   A    
Cr5   O11   S    
C3    C67   A    
C28   O19   A    
C6    Cl1   S    
C1    O13   A    
C62   O7    A    
Cr3   O15   S    
C6    C7    A    
C28   C58   S    
C26   H6    S    
C20   H5    S    
C8    C70   A    
C18   H3    S    
C10   C15   A    
C37   C44   A    
C2    C3    A    
Cr6   O9    S    
Cr4   O6    S    
Cr5   O25   S    
C60   O26   A    
C11   C13   A    
C5    C6    A    
C47   C65   S    
C60   O2    A    
C35   C62   S    
C68   H25   S    
C65   O5    A    
C69   C70   A    
Cr4   O23   S    
C38   C46   A    
C63   O8    A    
C2    F1    S    
C10   C11   A    
C8    H32   S    
C45   H29   S    
C32   H11   S    
C52   O17   A    
C41   H14   S    
C37   C46   A    
C53   Cl2   S    
C56   H28   S    
C12   H27   S    
C63   O9    A    
C1    O4    A    
C25   C33   A    
C4    O15   A    
