data_mof_unit_28148.cif
_audit_creation_date              2012-12-10T17:22:12-0500
_audit_creation_method            fapswitch 2.2
_symmetry_space_group_name_H-M    P1
_symmetry_Int_Tables_number       1
_space_group_crystal_system       triclinic
_cell_length_a                    15.879472
_cell_length_b                    10.779929
_cell_length_c                    9.618609
_cell_angle_alpha                 89.943027
_cell_angle_beta                  90.037637
_cell_angle_gamma                 92.583946
_cell_volume                      1644.83423061

loop_
_atom_site_label
_atom_site_type_symbol
_atom_type_description
_atom_site_fract_x
_atom_site_fract_y
_atom_site_fract_z
_atom_type_partial_charge
C1    C     C_R   0.498056 0.262752 0.500089 0.898002
C2    C     C_3   0.949143 0.433965 0.629181 -0.545089
C3    C     C_3   0.917241 0.502004 0.498412 -0.152880
C4    C     C_3   0.955426 0.637366 0.501542 0.359987
C5    C     C_3   0.053220 0.637337 0.499068 0.416062
C6    C     C_1   0.824940 0.501802 0.499554 0.161119
C7    C     C_1   0.175178 0.501191 0.499683 0.115908
C8    C     C_1   0.250716 0.500403 0.499956 -0.138406
C9    C     C_R   0.355923 0.119600 0.619729 -0.125256
C10   C     C_R   0.288466 0.049975 0.677202 -0.129630
C11   C     C_R   0.288505 0.920909 0.676805 -0.084819
C12   C     C_R   0.340370 0.499624 0.500019 0.766508
C13   C     C_R   0.356041 0.860684 0.619083 -0.103004
C14   C     C_R   0.425569 0.929360 0.561452 0.017747
C15   C     C_R   0.425458 0.060523 0.561694 0.018845
C16   C     C_R   0.493929 0.128690 0.500233 -0.331876
C17   C     C_R   0.560026 0.068508 0.437341 0.555490
C18   C     C_R   0.560406 0.940389 0.437863 0.506543
C19   C     C_R   0.494314 0.870746 0.500177 -0.308818
C20   C     C_R   0.612167 0.664761 0.143490 -0.088070
C21   C     C_R   0.666996 0.745434 0.071438 -0.086120
C22   C     C_R   0.666885 0.745689 0.928194 -0.206604
C23   C     C_R   0.498694 0.737145 0.499985 0.870659
C24   C     C_R   0.612029 0.665162 0.856103 -0.135199
C25   C     C_R   0.554992 0.581193 0.925176 0.212432
C26   C     C_R   0.555020 0.581070 0.074590 0.178504
C27   C     C_R   0.447665 0.422719 0.073848 -0.013558
C28   C     C_R   0.447696 0.422722 0.926090 -0.030370
C29   C     C_R   0.659638 0.500483 0.499988 0.837264
C30   C     C_3   0.046693 0.433520 0.629123 -0.465393
C31   C     C_3   0.047171 0.434430 0.367563 0.279530
C32   C     C_3   0.949136 0.434510 0.366679 1.101297
C33   C     C_1   0.749351 0.501266 0.499990 -0.072625
C34   C     C_3   0.082944 0.501983 0.498910 -0.109753
Cu1   Cu    Cu3+1 0.499990 0.499990 0.640660 0.954414
Cu2   Cu    Cu3+1 0.500010 0.500010 0.359340 0.999868
H1    H     H_    0.922515 0.336726 0.632174 0.264623
H2    H     H_    0.071670 0.478996 0.725424 0.275079
H3    H     H_    0.235655 0.867147 0.720367 0.193474
H4    H     H_    0.709967 0.808230 0.127470 0.228348
H5    H     H_    0.067404 0.336878 0.367712 0.134371
N1    N     N_R   0.500800 0.501210 0.147910 -0.202033
N2    N     N_R   0.500820 0.501290 0.852040 -0.200346
O1    O     O_R   0.499990 0.319640 0.618810 -0.582206
O2    O     O_R   0.500000 0.319660 0.381240 -0.546283
O3    O     O_R   0.379430 0.499990 0.618840 -0.590153
O4    O     O_R   0.379440 0.500020 0.381260 -0.569598
O5    O     O_R   0.500000 0.680340 0.618760 -0.610549
O6    O     O_R   0.500010 0.680360 0.381190 -0.580306
O7    O     O_R   0.620560 0.499980 0.618740 -0.600282
O8    O     O_R   0.620570 0.500010 0.381160 -0.566764
H6    H     H_    0.927425 0.480747 0.724976 0.239075
F1    F     F_    0.926758 0.705036 0.389738 -0.590006
F2    F     F_    0.625710 0.134638 0.378697 -0.590887
H7    H     H_    0.352332 0.219547 0.619659 0.123557
H8    H     H_    0.235592 0.096371 0.721092 0.150005
H9    H     H_    0.352517 0.760328 0.618602 0.145796
F3    F     F_    0.626978 0.883972 0.381234 -0.649249
H10   H     H_    0.404732 0.359272 0.128847 0.140949
H11   H     H_    0.066842 0.335947 0.630472 0.202441
H12   H     H_    0.617484 0.672087 0.252979 0.232547
H13   H     H_    0.709739 0.808709 0.872170 0.184454
H14   H     H_    0.617380 0.672951 0.746509 0.204485
H15   H     H_    0.404805 0.359241 0.871066 0.136324
F4    F     F_    0.079724 0.490816 0.248181 -0.605324
F5    F     F_    0.916645 0.312863 0.364662 -0.642583
F6    F     F_    0.921286 0.492751 0.247570 -0.541329
F7    F     F_    0.085761 0.701471 0.613489 -0.668623
H16   H     H_    0.077313 0.686577 0.404406 0.194951
H17   H     H_    0.934496 0.683974 0.597964 0.163333

loop_
_geom_bond_atom_site_label_1
_geom_bond_atom_site_label_2
_ccdc_geom_bond_type
C32   F6    S    
C19   C23   S    
C9    H7    S    
C4    F1    S    
C22   H13   S    
Cu1   N2    S    
C9    C10   A    
C20   H12   S    
C28   N2    A    
Cu2   N1    S    
Cu1   Cu2   S    
C27   N1    A    
C6    C33   T    
C2    C30   S    
C8    C12   S    
C3    C6    S    
Cu2   O8    S    
C5    C34   S    
C25   N2    A    
Cu1   O7    S    
C4    H17   S    
C17   C18   A    
C9    C15   A    
C31   C34   S    
C7    C8    T    
C1    C16   S    
C27   H10   S    
C21   C22   A    
C24   C25   A    
C11   H3    S    
Cu1   O1    S    
C11   C13   A    
C2    H1    S    
C1    O2    A    
C16   C17   A    
C21   H4    S    
C2    H6    S    
C12   O4    A    
Cu1   O5    S    
C28   H15   S    
C12   O3    A    
C2    C3    S    
C24   H14   S    
C29   O7    A    
C5    F7    S    
C3    C32   S    
C7    C34   S    
C22   C24   A    
C23   O6    A    
C13   H9    S    
C10   C11   A    
C30   C34   S    
C31   H5    S    
C3    C4    S    
C29   C33   S    
Cu2   O2    S    
C10   H8    S    
C20   C21   A    
C26   N1    A    
Cu2   O4    S    
C32   F5    S    
C18   C19   A    
C29   O8    A    
C27   C28   A    
C31   F4    S    
C14   C15   A    
C14   C19   A    
C5    H16   S    
C23   O5    A    
C1    O1    A    
C30   H2    S    
C25   C26   A    
C13   C14   A    
Cu1   O3    S    
C17   F2    S    
C18   F3    S    
C31   C32   S    
Cu2   O6    S    
C15   C16   A    
C4    C5    S    
C20   C26   A    
C30   H11   S    
