data_mof_unit_39623.cif
_audit_creation_date              2012-12-10T17:05:42-0500
_audit_creation_method            fapswitch 2.2
_symmetry_space_group_name_H-M    P1
_symmetry_Int_Tables_number       1
_space_group_crystal_system       triclinic
_cell_length_a                    15.905612
_cell_length_b                    10.953606
_cell_length_c                    9.868405
_cell_angle_alpha                 110.846827
_cell_angle_beta                  99.221686
_cell_angle_gamma                 90.161092
_cell_volume                      1582.64965625

loop_
_atom_site_label
_atom_site_type_symbol
_atom_type_description
_atom_site_fract_x
_atom_site_fract_y
_atom_site_fract_z
_atom_type_partial_charge
C1    C     C_R   0.493025 0.253269 0.441319 0.819426
C2    C     C_3   0.964383 0.502100 0.655097 -0.076312
C3    C     C_3   0.916603 0.498269 0.500291 0.122293
C4    C     C_3   0.948296 0.623235 0.477476 -0.424101
C5    C     C_3   0.047557 0.637447 0.508945 -0.044028
C6    C     C_1   0.824189 0.498336 0.499499 -0.058287
C7    C     C_1   0.175815 0.501342 0.500034 -0.060945
C8    C     C_1   0.251193 0.501248 0.500590 -0.208990
C9    C     C_2   0.486392 0.111772 0.410569 0.000352
C10   C     C_2   0.463085 0.071350 0.514603 -0.216797
C11   C     C_2   0.500773 0.886436 0.586018 -0.343587
C12   C     C_R   0.340429 0.500462 0.500284 0.819963
C13   C     C_2   0.449772 0.933351 0.495277 0.196290
C14   C     C_2   0.492840 0.524490 0.082151 -0.011457
C15   C     C_2   0.487420 0.495749 0.917568 -0.038017
C16   C     C_R   0.502398 0.746222 0.558260 0.846902
C17   C     C_R   0.659583 0.499709 0.499766 0.823779
C18   C     C_3   0.061072 0.477267 0.640287 -0.061739
C19   C     C_3   0.035610 0.384697 0.349338 0.252225
C20   C     C_3   0.940238 0.370052 0.375810 -0.032422
C21   C     C_1   0.748852 0.498944 0.499486 -0.204667
C22   C     C_3   0.083238 0.499475 0.497624 0.127787
Cu1   Cu    Cu3+1 0.514650 0.521810 0.644910 0.934191
Cu2   Cu    Cu3+1 0.485350 0.478190 0.355090 0.933024
H1    H     H_    0.936472 0.417187 0.674164 0.133619
H2    H     H_    0.922276 0.620655 0.365619 0.180545
H3    H     H_    0.453130 0.142288 0.619572 0.137916
H4    H     H_    0.546334 0.952299 0.677269 0.117726
H5    H     H_    0.441338 0.420262 0.840030 0.145505
H6    H     H_    0.524303 0.615310 0.161143 0.123467
H7    H     H_    0.059935 0.372095 0.616162 0.127821
H8    H     H_    0.942592 0.294747 0.427494 0.097478
H9    H     H_    0.065608 0.701649 0.625811 0.202864
H10   H     H_    0.923398 0.712151 0.552644 0.158037
N1    N     N_2   0.463320 0.445430 0.137380 -0.123187
N2    N     N_2   0.536720 0.554500 0.862620 -0.127557
O1    O     O_R   0.507820 0.332330 0.577400 -0.591078
O2    O     O_R   0.483070 0.295500 0.332660 -0.575143
O3    O     O_R   0.391820 0.518430 0.622420 -0.579929
O4    O     O_R   0.367070 0.481600 0.377680 -0.570525
O5    O     O_R   0.516930 0.704500 0.667340 -0.577218
O6    O     O_R   0.492180 0.667670 0.422600 -0.576703
O7    O     O_R   0.632930 0.518400 0.622320 -0.568104
O8    O     O_R   0.608180 0.481570 0.377580 -0.567724
C23   C     C_3   0.130820 0.521837 0.782538 -0.331632
C24   C     C_3   0.166170 0.664973 0.847360 -0.830371
H11   H     H_    0.192676 0.694438 0.765590 0.249960
H12   H     H_    0.118376 0.732989 0.893993 0.240924
H13   H     H_    0.219450 0.676112 0.939520 0.233171
H14   H     H_    0.108320 0.494409 0.868873 0.197789
H15   H     H_    0.186576 0.461772 0.757382 0.191050
C25   C     C_3   0.946168 0.627037 0.784479 -0.299646
C26   C     C_3   0.951261 0.609331 0.932732 -0.900230
H16   H     H_    0.918672 0.514822 0.918639 0.247021
H17   H     H_    0.017858 0.616323 0.989490 0.258182
H18   H     H_    0.918545 0.689025 0.006483 0.236978
H19   H     H_    0.986081 0.714156 0.797298 0.193042
H20   H     H_    0.879867 0.653669 0.758727 0.197660
C27   C     C_3   0.374976 0.853249 0.382596 -0.810845
H21   H     H_    0.334385 0.916674 0.336950 0.215686
H22   H     H_    0.396893 0.776802 0.289075 0.234340
H23   H     H_    0.334656 0.806564 0.435085 0.219118
C28   C     C_3   0.507502 0.019147 0.265471 -0.379224
C29   C     C_3   0.600841 0.041747 0.255462 -0.863226
H24   H     H_    0.614544 0.143409 0.262203 0.259929
H25   H     H_    0.643569 0.023424 0.346009 0.248934
H26   H     H_    0.614868 0.973877 0.148744 0.236118
H27   H     H_    0.497097 0.914876 0.250552 0.216441
H28   H     H_    0.465499 0.035477 0.172876 0.201449
C30   C     C_3   0.596114 0.662692 0.967293 -0.148137
C31   C     C_3   0.672098 0.696616 0.907705 -0.749991
H29   H     H_    0.711038 0.610720 0.871065 0.252333
H30   H     H_    0.652988 0.736764 0.820228 0.263692
H31   H     H_    0.713952 0.774574 0.998349 0.179228
H32   H     H_    0.560255 0.751389 0.009355 0.154737
H33   H     H_    0.627800 0.636246 0.060916 0.143059
C32   C     C_3   0.413727 0.326358 0.039909 -0.537917
H34   H     H_    0.387878 0.276034 0.105192 0.221886
H35   H     H_    0.357830 0.349486 0.971938 0.152051
H36   H     H_    0.454329 0.258891 0.968714 0.168548
C33   C     C_3   0.039525 0.426528 0.211756 -0.345090
C34   C     C_3   0.032773 0.319790 0.057097 -0.930066
H37   H     H_    0.091813 0.266024 0.045797 0.243797
H38   H     H_    0.977555 0.248859 0.028768 0.260095
H39   H     H_    0.025555 0.366732 0.973498 0.241466
H40   H     H_    0.990270 0.494415 0.202630 0.211374
H41   H     H_    0.102090 0.479675 0.228799 0.194924
C35   C     C_3   0.080361 0.249571 0.312447 -0.361054
C36   C     C_3   0.105175 0.186600 0.427382 -0.958911
H42   H     H_    0.156033 0.247159 0.517402 0.259165
H43   H     H_    0.048858 0.163477 0.469379 0.248485
H44   H     H_    0.133267 0.092627 0.373529 0.248438
H45   H     H_    0.038722 0.173750 0.219209 0.213672
H46   H     H_    0.140864 0.260559 0.273643 0.220641
C37   C     C_3   0.868837 0.302055 0.238813 -0.339014
C38   C     C_3   0.827633 0.384104 0.151122 -0.809582
H47   H     H_    0.810722 0.480635 0.222825 0.250866
H48   H     H_    0.867824 0.396998 0.075252 0.245750
H49   H     H_    0.767367 0.331102 0.080927 0.232303
H50   H     H_    0.891653 0.212058 0.163281 0.182107
H51   H     H_    0.815999 0.264983 0.278339 0.189852
C39   C     C_3   0.084793 0.716585 0.425937 -0.424297
C40   C     C_3   0.075522 0.863450 0.498078 -0.882510
H52   H     H_    0.007234 0.884259 0.498042 0.254751
H53   H     H_    0.111009 0.901501 0.612920 0.248924
H54   H     H_    0.102462 0.915034 0.434968 0.251935
H55   H     H_    0.153790 0.702603 0.425510 0.217538
H56   H     H_    0.052404 0.687904 0.310299 0.209643

loop_
_geom_bond_atom_site_label_1
_geom_bond_atom_site_label_2
_ccdc_geom_bond_type
C10   H3    S    
C2    C18   S    
Cu2   O6    S    
C37   C38   S    
C3    C6    S    
C33   C34   S    
C5    C39   S    
C7    C8    T    
C23   C24   S    
C24   H13   S    
C23   H14   S    
C32   H36   S    
C23   H15   S    
C38   H49   S    
Cu1   O7    S    
C24   H11   S    
C35   H45   S    
C5    C22   S    
C19   C20   S    
C38   H48   S    
Cu2   O2    S    
Cu1   Cu2   S    
C39   H56   S    
C30   C31   S    
C36   H43   S    
C9    C10   D    
C33   H40   S    
C1    O1    A    
C26   H17   S    
C27   H21   S    
C9    C28   S    
C14   H6    S    
N2    C30   S    
C15   H5    S    
C24   H12   S    
C32   H35   S    
C25   H20   S    
C4    H10   S    
C27   H22   S    
Cu2   N1    S    
C29   H26   S    
C28   H28   S    
C39   H55   S    
C19   C22   S    
C1    C9    S    
C19   C35   S    
C14   N1    D    
C31   H30   S    
C37   H50   S    
C32   H34   S    
C6    C21   T    
N1    C32   S    
C17   C21   S    
C5    H9    S    
C29   H25   S    
C12   O4    A    
C17   O7    A    
C11   C16   S    
C8    C12   S    
C38   H47   S    
C3    C20   S    
C40   H53   S    
C36   H44   S    
C33   H41   S    
C2    C25   S    
C1    O2    A    
C20   C37   S    
C34   H37   S    
C34   H38   S    
C30   H33   S    
Cu2   O8    S    
C3    C4    S    
C7    C22   S    
C18   C23   S    
C16   O6    A    
C15   N2    D    
C30   H32   S    
C25   C26   S    
C20   H8    S    
C26   H18   S    
C28   H27   S    
C27   H23   S    
C18   C22   S    
C4    C5    S    
C10   C13   S    
C31   H31   S    
C4    H2    S    
C26   H16   S    
C13   C27   S    
C34   H39   S    
Cu1   O5    S    
C29   H24   S    
C12   O3    A    
C2    C3    S    
C17   O8    A    
C31   H29   S    
Cu1   O1    S    
C11   C13   D    
C2    H1    S    
C11   H4    S    
Cu1   O3    S    
Cu2   O4    S    
C40   H54   S    
C39   C40   S    
C25   H19   S    
C28   C29   S    
C35   C36   S    
Cu1   N2    S    
C40   H52   S    
C35   H46   S    
C14   C15   S    
C18   H7    S    
C36   H42   S    
C19   C33   S    
C16   O5    A    
C37   H51   S    
