data_mof_unit_17618.cif
_audit_creation_date              2012-10-26T20:19:12-0400
_audit_creation_method            fapswitch 2.2
_symmetry_space_group_name_H-M    P1
_symmetry_Int_Tables_number       1
_space_group_crystal_system       triclinic
_cell_length_a                    15.06068
_cell_length_b                    13.003309
_cell_length_c                    11.663838
_cell_angle_alpha                 99.763481
_cell_angle_beta                  93.363768
_cell_angle_gamma                 90.327222
_cell_volume                      2246.98303041

loop_
_atom_site_label
_atom_site_type_symbol
_atom_type_description
_atom_site_fract_x
_atom_site_fract_y
_atom_site_fract_z
_atom_type_partial_charge
C1    C     C_R   0.498495 0.299076 0.478700 0.548798
C2    C     C_R   0.510639 0.876635 0.644539 -0.134045
C3    C     C_R   0.504721 0.139242 0.566295 -0.131265
C4    C     C_R   0.494156 0.860765 0.433695 -0.129578
C5    C     C_R   0.503710 0.031230 0.555916 0.047940
C6    C     C_R   0.494907 0.968785 0.444075 0.048242
C7    C     C_R   0.413093 0.405881 0.022995 -0.174060
C8    C     C_R   0.587480 0.593383 0.976912 -0.180693
C9    C     C_R   0.421705 0.414441 0.145008 0.048164
C10   C     C_R   0.578604 0.585148 0.854947 0.037741
C11   C     C_R   0.538216 0.539681 0.156335 0.042721
C12   C     C_R   0.501269 0.700928 0.521298 0.552360
C13   C     C_R   0.462029 0.460014 0.843624 0.043934
C14   C     C_R   0.532018 0.533584 0.033681 0.006587
C15   C     C_R   0.468430 0.465854 0.966246 0.006678
C16   C     C_R   0.328585 0.499513 0.500691 0.549312
C17   C     C_R   0.671376 0.500641 0.499356 0.550311
C18   C     C_R   0.818941 0.537393 0.601961 -0.123400
C19   C     C_R   0.180916 0.462011 0.397984 -0.123440
C20   C     C_R   0.768066 0.500839 0.498620 -0.023552
C21   C     C_R   0.231838 0.497411 0.501664 -0.024920
C22   C     C_R   0.809585 0.462889 0.396080 -0.137303
C23   C     C_R   0.036681 0.420148 0.293563 0.268538
C24   C     C_R   0.190312 0.530449 0.605556 -0.135580
C25   C     C_R   0.902080 0.459900 0.396755 -0.028721
C26   C     C_R   0.097803 0.529897 0.606036 -0.030638
C27   C     C_R   0.953409 0.495183 0.501375 0.002314
C28   C     C_R   0.046471 0.493836 0.501593 0.001731
C29   C     C_R   0.911620 0.533702 0.605118 0.031922
C30   C     C_R   0.088235 0.458444 0.396939 0.032086
C31   C     C_R   0.943786 0.422454 0.294236 -0.120874
C32   C     C_R   0.056047 0.566444 0.708965 -0.115440
C33   C     C_3   0.068410 0.280760 0.153071 -0.002686
C34   C     C_R   0.963113 0.567503 0.709738 0.266995
C35   C     C_3   0.147516 0.225157 0.202799 -0.270763
C36   C     C_3   0.143878 0.108159 0.156314 -0.476303
C37   C     C_3   0.926212 0.543162 0.892004 0.004556
C38   C     C_3   0.840649 0.476736 0.879331 -0.268313
C39   C     C_3   0.834201 0.416841 0.980170 -0.477614
C40   C     C_R   0.502032 0.814312 0.533593 0.001256
C41   C     C_R   0.497131 0.185700 0.466395 -0.000050
C42   C     C_R   0.487062 0.015307 0.344366 -0.139434
C43   C     C_R   0.511477 0.984719 0.655631 -0.137931
C44   C     C_R   0.488163 0.123394 0.355457 -0.138507
Cu1   Cu    Cu3+1 0.506660 0.507730 0.615930 0.931413
Cu2   Cu    Cu3+1 0.493340 0.492270 0.384070 0.934523
H1    H     H_    0.785834 0.568864 0.679889 0.160085
H2    H     H_    0.511571 0.186891 0.652263 0.120555
H3    H     H_    0.516853 0.841983 0.722720 0.130826
H4    H     H_    0.481978 0.158059 0.277282 0.127924
H5    H     H_    0.480166 0.968252 0.258149 0.103634
H6    H     H_    0.518249 0.031783 0.741852 0.102851
H7    H     H_    0.413516 0.407934 0.790797 0.114993
H8    H     H_    0.586722 0.591772 0.209158 0.116128
H9    H     H_    0.621663 0.631485 0.812023 0.123697
H10   H     H_    0.378734 0.367982 0.187924 0.117081
H11   H     H_    0.068620 0.265210 0.056438 0.150250
H12   H     H_    0.213880 0.436220 0.318286 0.164677
H13   H     H_    0.004575 0.247231 0.175345 0.116797
H14   H     H_    0.210609 0.258398 0.178758 0.159416
H15   H     H_    0.147040 0.237532 0.299387 0.159564
H16   H     H_    0.081954 0.072884 0.180952 0.152665
H17   H     H_    0.201888 0.070348 0.194169 0.151145
H18   H     H_    0.146146 0.093438 0.059901 0.147629
H19   H     H_    0.931136 0.591919 0.980180 0.167335
H20   H     H_    0.985560 0.491889 0.887167 0.125692
H21   H     H_    0.781974 0.528009 0.877367 0.171154
H22   H     H_    0.839123 0.420253 0.796264 0.158994
H23   H     H_    0.363509 0.352886 0.973597 0.086551
H24   H     H_    0.893113 0.366611 0.986462 0.151886
H25   H     H_    0.773301 0.366666 0.965862 0.150113
H26   H     H_    0.829839 0.472411 0.063112 0.146520
H27   H     H_    0.637308 0.646061 0.026262 0.089236
H28   H     H_    0.769962 0.434732 0.316106 0.124304
H29   H     H_    0.229925 0.558334 0.685595 0.128603
H30   H     H_    0.904350 0.395515 0.214130 0.103547
H31   H     H_    0.095403 0.595889 0.788728 0.117956
H32   H     H_    0.487435 0.813109 0.347725 0.122601
N1    N     N_R   0.516670 0.519360 0.790130 -0.229887
N2    N     N_R   0.483330 0.480640 0.209870 -0.229985
O1    O     O_R   0.504720 0.354460 0.582000 -0.508899
O2    O     O_3   0.922906 0.611863 0.809781 -0.583721
O3    O     O_R   0.495280 0.645540 0.418000 -0.506862
O4    O     O_R   0.493480 0.341410 0.386200 -0.510123
O5    O     O_R   0.506520 0.658590 0.613800 -0.506970
O6    O     O_R   0.375880 0.506510 0.597910 -0.506788
O7    O     O_R   0.624120 0.493490 0.402090 -0.506668
O8    O     O_R   0.364640 0.493450 0.402110 -0.507836
O9    O     O_R   0.635360 0.506550 0.597890 -0.512458
O10   O     O_3   0.077067 0.390100 0.189598 -0.587222

loop_
_geom_bond_atom_site_label_1
_geom_bond_atom_site_label_2
_ccdc_geom_bond_type
C25   C31   A    
C13   N1    A    
C26   C32   A    
C16   C21   S    
C27   C29   A    
C35   C36   S    
C18   H1    S    
Cu1   Cu2   S    
C1    O4    A    
C12   O5    A    
C19   C21   A    
C24   C26   A    
C5    C6    A    
C11   C14   A    
C43   H6    S    
C1    O1    A    
C3    H2    S    
C17   C20   S    
C32   H31   S    
C4    C40   A    
C22   C25   A    
C37   H19   S    
C8    C14   A    
C39   H26   S    
C36   H17   S    
Cu1   O9    S    
C13   H7    S    
C42   H5    S    
C7    C15   A    
C5    C43   A    
C33   H13   S    
C16   O6    A    
C42   C44   A    
C36   H16   S    
Cu2   O8    S    
C19   H12   S    
C23   C30   A    
C17   O9    A    
C35   H15   S    
C9    H10   S    
C29   C34   A    
C12   O3    A    
C35   H14   S    
C9    N2    A    
C23   C31   A    
C12   C40   S    
Cu1   O5    S    
C4    H32   S    
C37   C38   S    
C2    H3    S    
C2    C43   A    
C37   H20   S    
C23   O10   S    
Cu1   N1    S    
C18   C29   A    
C10   H9    S    
C11   H8    S    
Cu2   O4    S    
C1    C41   S    
C20   C22   A    
C13   C15   A    
C41   C44   A    
C37   O2    S    
C4    C6    A    
C22   H28   S    
Cu2   O7    S    
C44   H4    S    
C7    C9    A    
C3    C41   A    
C33   H11   S    
C17   O7    A    
Cu1   O1    S    
C38   H22   S    
C3    C5    A    
C7    H23   S    
C10   N1    A    
C24   H29   S    
C25   C27   A    
C26   C28   A    
C28   C30   A    
Cu1   O6    S    
C33   O10   S    
Cu2   N2    S    
C31   H30   S    
C38   C39   S    
C8    H27   S    
C33   C35   S    
C39   H24   S    
C18   C20   A    
C11   N2    A    
Cu2   O3    S    
C2    C40   A    
C38   H21   S    
C8    C10   A    
C6    C42   A    
C21   C24   A    
C27   C28   A    
C16   O8    A    
C39   H25   S    
C14   C15   A    
C34   O2    S    
C36   H18   S    
C19   C30   A    
C32   C34   A    
