data_mof_unit_12950.cif
_audit_creation_date              2013-03-05T16:04:38-0500
_audit_creation_method            fapswitch 2.2
_symmetry_space_group_name_H-M    P1
_symmetry_Int_Tables_number       1
_space_group_crystal_system       triclinic
_cell_length_a                    9.518735
_cell_length_b                    10.830686
_cell_length_c                    15.494981
_cell_angle_alpha                 89.935739
_cell_angle_beta                  74.404504
_cell_angle_gamma                 90.354835
_cell_volume                      1538.59823331

loop_
_atom_site_label
_atom_site_type_symbol
_atom_site_description
_atom_site_fract_x
_atom_site_fract_y
_atom_site_fract_z
_atom_type_partial_charge
O1    O     O_R   0.118740 0.319660 0.500000 -0.594212
O2    O     O_R   0.881260 0.680340 0.500000 -0.594217
O3    O     O_R   0.881170 0.319630 0.500010 -0.554666
O4    O     O_R   0.118830 0.680370 0.499990 -0.554631
C1    C     C_R   0.999923 0.262215 0.498776 0.831022
C2    C     C_R   0.000074 0.737784 0.501229 0.830984
O5    O     O_R   0.055570 0.500030 0.629830 -0.574730
O6    O     O_R   0.944430 0.499970 0.370170 -0.574819
O7    O     O_R   0.818000 0.500000 0.629840 -0.593519
O8    O     O_R   0.182000 0.500000 0.370160 -0.593506
C3    C     C_R   0.918212 0.502257 0.672078 0.811798
C4    C     C_R   0.081782 0.497742 0.327922 0.811866
Cu1   Cu    Cu3+1 0.140660 0.500020 0.500000 0.968095
Cu2   Cu    Cu3+1 0.859340 0.499980 0.500000 0.968041
C5    C     C_R   0.873030 0.515705 0.769769 -0.068747
C6    C     C_R   0.126920 0.484353 0.230228 -0.068854
C7    C     C_R   0.916715 0.595813 0.906170 0.177899
C8    C     C_R   0.083036 0.404557 0.093792 0.177949
C9    C     C_R   0.967780 0.564322 0.815711 -0.177051
C10   C     C_R   0.032070 0.435929 0.184279 -0.177299
C11   C     C_R   0.729144 0.489242 0.815770 -0.207023
C12   C     C_R   0.270814 0.510751 0.184209 -0.207187
C13   C     C_R   0.674472 0.513483 0.907797 0.042064
C14   C     C_R   0.325343 0.486727 0.092142 0.042078
C15   C     C_R   0.767146 0.576249 0.952349 0.012226
C16   C     C_R   0.232594 0.424094 0.047580 0.012289
C17   C     C_R   0.528210 0.481056 0.955017 0.023844
C18   C     C_R   0.471558 0.519219 0.044893 0.023756
C19   C     C_R   0.561529 0.591554 0.084416 -0.275509
C20   C     C_R   0.438153 0.408840 0.915471 -0.275447
C21   C     C_R   0.706432 0.618309 0.040709 0.315794
C22   C     C_R   0.293229 0.382144 0.959183 0.315754
H1    H     H_    0.340134 0.545057 0.223428 0.150197
H2    H     H_    0.659966 0.454699 0.776546 0.150099
H3    H     H_    0.919245 0.416946 0.219443 0.165845
H4    H     H_    0.080597 0.583362 0.780558 0.165865
H5    H     H_    0.521192 0.634197 0.148988 0.171675
H6    H     H_    0.478379 0.366283 0.850864 0.171607
C23   C     C_R   0.901630 0.061646 0.461615 0.158893
C24   C     C_R   0.098329 0.938354 0.538417 0.158887
C25   C     C_R   0.903076 0.933483 0.463981 -0.269313
C26   C     C_R   0.096876 0.066517 0.536063 -0.269319
H7    H     H_    0.829014 0.882375 0.434753 0.164637
H8    H     H_    0.170909 0.117626 0.565309 0.164624
C27   C     C_R   0.000940 0.871612 0.501692 -0.045319
C28   C     C_R   0.999043 0.128387 0.498326 -0.045315
C29   C     C_R   0.548027 0.427812 0.558900 -0.002315
C30   C     C_R   0.451972 0.572188 0.441100 -0.002264
H9    H     H_    0.582964 0.369767 0.605987 0.128083
H10   H     H_    0.417037 0.630233 0.394013 0.128133
C31   C     C_R   0.399192 0.427939 0.558936 -0.013255
C32   C     C_R   0.600808 0.572061 0.441064 -0.013302
H11   H     H_    0.321985 0.370129 0.606081 0.146180
H12   H     H_    0.678014 0.629871 0.393919 0.146133
N1    N     N_R   0.352080 0.500030 0.499980 -0.165658
N2    N     N_R   0.647920 0.499970 0.500020 -0.165641
N3    N     N_R   0.785665 0.696556 0.085938 0.145730
O9    O     O_R   0.820039 0.808330 0.056592 -0.321429
O10   O     O_R   0.793408 0.667204 0.165976 -0.391921
N4    N     N_R   0.213893 0.304046 0.913923 0.145692
O11   O     O_R   0.206151 0.333531 0.833908 -0.392022
O12   O     O_R   0.179430 0.192254 0.943198 -0.321438
N5    N     N_3   0.018595 0.646622 0.949992 -0.511128
H13   H     H_    0.104446 0.584543 0.942812 0.226054
H14   H     H_    0.061757 0.727978 0.916567 0.245883
N6    N     N_3   0.981063 0.353910 0.049973 -0.511148
H15   H     H_    0.937878 0.272521 0.083340 0.245936
H16   H     H_    0.895240 0.416041 0.057243 0.226031
N7    N     N_3   0.804121 0.123211 0.419817 -0.566946
H17   H     H_    0.826296 0.093070 0.353449 0.227536
H18   H     H_    0.697542 0.096141 0.452813 0.219720
N8    N     N_3   0.195801 0.876786 0.580248 -0.566980
H19   H     H_    0.173294 0.906672 0.646684 0.227498
H20   H     H_    0.302366 0.904114 0.547429 0.219727

loop_
_geom_bond_atom_site_label_1
_geom_bond_atom_site_label_2
_geom_bond_distance
_ccdc_geom_bond_type
C15   C21   1.412540 A    
C30   N1    1.367483 A    
Cu2   N2    2.012366 S    
N5    H14   1.045717 S    
C16   C22   1.412528 A    
C2    C27   1.449456 S    
N6    H16   1.044208 S    
C8    C16   1.425479 A    
C23   C25   1.388793 A    
C5    C9    1.391977 A    
O1    C1    1.292063 A    
C18   C19   1.413164 A    
C14   C16   1.427497 A    
C30   C32   1.416588 A    
C9    H4    1.083934 S    
N3    O10   1.301189 A    
C20   H6    1.076273 S    
N4    O12   1.301233 A    
C26   C28   1.399223 A    
O4    Cu1   1.965619 S    
N7    H18   1.045782 S    
C10   H3    1.083932 S    
C3    C5    1.465868 S    
C4    C6    1.465842 S    
O6    Cu2   1.956249 S    
C13   C17   1.429210 A    
C8    C10   1.397861 A    
C6    C10   1.392026 A    
C24   C26   1.388780 A    
N6    H15   1.045722 S    
Cu1   Cu2   2.677809 S    
C17   C20   1.413247 A    
C25   H7    1.084383 S    
O2    C2    1.292057 A    
C26   H8    1.084357 S    
C32   H12   1.081836 S    
C24   C27   1.407827 A    
C29   H9    1.081746 S    
C29   C31   1.416587 A    
C11   H2    1.074988 S    
N4    O11   1.301205 A    
C31   H11   1.081836 S    
O5    C3    1.295693 A    
O7    Cu2   1.943395 S    
C5    C11   1.391341 A    
O6    C4    1.295640 A    
C23   N7    1.433692 S    
O7    C3    1.293940 A    
O3    Cu2   1.965619 S    
O8    C4    1.293985 A    
C23   C28   1.407870 A    
N8    H20   1.045816 S    
C11   C13   1.405936 A    
C12   C14   1.405917 A    
O4    C2    1.289159 A    
O1    Cu1   1.963249 S    
C22   N4    1.433797 S    
C12   H1    1.075088 S    
C6    C12   1.391330 A    
C24   N8    1.433750 S    
C14   C18   1.429120 A    
N8    H19   1.045665 S    
O3    C1    1.289153 A    
O8    Cu1   1.943397 S    
C8    N6    1.432712 S    
C1    C28   1.449457 S    
C7    C15   1.425489 A    
C21   N3    1.433803 S    
C19   C21   1.391911 A    
C7    N5    1.432701 S    
C20   C22   1.391976 A    
N3    O9    1.301244 A    
C30   H10   1.081745 S    
C7    C9    1.397871 A    
C31   N1    1.366848 A    
C13   C15   1.427550 A    
N7    H17   1.045733 S    
O2    Cu2   1.963249 S    
N5    H13   1.044200 S    
O5    Cu1   1.956249 S    
C19   H5    1.076327 S    
C17   C18   1.414672 A    
C25   C27   1.399213 A    
C32   N2    1.366846 A    
C29   N2    1.367484 A    
Cu1   N1    2.012366 S    
