data_mof_unit_63142.cif
_audit_creation_date              2012-12-10T17:36:22-0500
_audit_creation_method            fapswitch 2.2
_symmetry_space_group_name_H-M    P1
_symmetry_Int_Tables_number       1
_space_group_crystal_system       monoclinic
_cell_length_a                    24.480949
_cell_length_b                    24.480949
_cell_length_c                    32.803012
_cell_angle_alpha                 90.000022
_cell_angle_beta                  90.0
_cell_angle_gamma                 90.0
_cell_volume                      19659.3982796

loop_
_atom_site_label
_atom_site_type_symbol
_atom_type_description
_atom_site_fract_x
_atom_site_fract_y
_atom_site_fract_z
_atom_type_partial_charge
C1    C     C_1   0.500000 0.000000 0.981189 -0.001920
C2    C     C_R   0.822539 0.217792 0.299547 -0.130861
C3    C     C_R   0.142883 0.304818 0.725269 -0.133012
C4    C     C_R   0.357147 0.804788 0.225305 -0.133012
C5    C     C_R   0.642895 0.195171 0.774745 -0.133013
C6    C     C_R   0.142889 0.304823 0.274738 -0.133014
C7    C     C_R   0.857112 0.695177 0.725263 -0.133014
C8    C     C_R   0.304818 0.142883 0.725269 -0.133012
C9    C     C_R   0.695176 0.857110 0.274738 -0.133014
C10   C     C_R   0.142889 0.695176 0.725262 -0.133013
C11   C     C_R   0.857110 0.304824 0.274739 -0.133014
C12   C     C_R   0.695177 0.857112 0.725263 -0.133013
C13   C     C_R   0.217778 0.177447 0.700468 -0.130859
C14   C     C_R   0.304823 0.142889 0.274738 -0.133016
C15   C     C_R   0.804829 0.357105 0.774745 -0.133012
C16   C     C_R   0.195212 0.642853 0.225305 -0.133013
C17   C     C_R   0.148717 0.648717 0.750000 0.005979
C18   C     C_R   0.851282 0.351282 0.250000 0.005979
C19   C     C_R   0.351282 0.148717 0.750000 0.005979
C20   C     C_R   0.648717 0.851282 0.250000 0.005978
C21   C     C_R   0.851282 0.351282 0.750000 0.005980
C22   C     C_R   0.148717 0.648717 0.250000 0.005980
C23   C     C_R   0.648717 0.851282 0.750000 0.005978
C24   C     C_R   0.782208 0.822539 0.299546 -0.130862
C25   C     C_R   0.351282 0.148717 0.250000 0.005979
C26   C     C_R   0.851282 0.648717 0.250000 0.005978
C27   C     C_R   0.148717 0.351282 0.750000 0.005979
C28   C     C_R   0.648717 0.148717 0.250000 0.005978
C29   C     C_R   0.351282 0.851283 0.750000 0.005979
C30   C     C_R   0.148717 0.351282 0.250000 0.005979
C31   C     C_R   0.851282 0.648717 0.750000 0.005978
C32   C     C_R   0.351282 0.851282 0.250000 0.005980
C33   C     C_R   0.648717 0.148717 0.750000 0.005980
C34   C     C_R   0.183076 0.735729 0.725093 0.009911
C35   C     C_R   0.717802 0.322529 0.799561 -0.130858
C36   C     C_R   0.816923 0.264271 0.274908 0.009911
C37   C     C_R   0.264264 0.183070 0.725100 0.009912
C38   C     C_R   0.735729 0.816923 0.274908 0.009911
C39   C     C_R   0.764276 0.316918 0.774915 0.009912
C40   C     C_R   0.235766 0.683039 0.225137 0.009912
C41   C     C_R   0.735730 0.816925 0.725094 0.009911
C42   C     C_R   0.264270 0.183076 0.274907 0.009911
C43   C     C_R   0.816923 0.735729 0.274908 0.009911
C44   C     C_R   0.183070 0.264264 0.725100 0.009912
C45   C     C_R   0.735729 0.183077 0.274908 0.009911
C46   C     C_R   0.282283 0.677385 0.200543 -0.130860
C47   C     C_R   0.264270 0.816924 0.725093 0.009912
C48   C     C_R   0.183076 0.264270 0.274907 0.009911
C49   C     C_R   0.816925 0.735730 0.725094 0.009911
C50   C     C_R   0.316961 0.764234 0.225137 0.009912
C51   C     C_R   0.683082 0.235724 0.774915 0.009912
C52   C     C_R   0.683077 0.235729 0.225092 0.009911
C53   C     C_R   0.316924 0.764270 0.774907 0.009911
C54   C     C_R   0.764271 0.683077 0.225092 0.009911
C55   C     C_R   0.235735 0.316930 0.774900 0.009912
C56   C     C_R   0.264234 0.816961 0.274863 0.009912
C57   C     C_R   0.782211 0.822543 0.700457 -0.130861
C58   C     C_R   0.735724 0.183082 0.725085 0.009912
C59   C     C_R   0.235730 0.316924 0.225093 0.009911
C60   C     C_R   0.764269 0.683075 0.774906 0.009911
C61   C     C_R   0.316930 0.235736 0.774900 0.009912
C62   C     C_R   0.683077 0.764271 0.225092 0.009911
C63   C     C_R   0.235729 0.683076 0.774907 0.009912
C64   C     C_R   0.764271 0.316923 0.225092 0.009911
C65   C     C_R   0.683075 0.764269 0.774906 0.009911
C66   C     C_R   0.316924 0.235730 0.225093 0.009911
C67   C     C_R   0.816918 0.264276 0.725085 0.009912
C68   C     C_R   0.217790 0.177459 0.299544 -0.130862
C69   C     C_R   0.183039 0.735766 0.274863 0.009912
C70   C     C_R   0.229689 0.729689 0.750000 0.061911
C71   C     C_R   0.770311 0.270311 0.250000 0.061911
C72   C     C_R   0.270311 0.229689 0.750000 0.061909
C73   C     C_R   0.729689 0.770311 0.250000 0.061911
C74   C     C_R   0.770311 0.270311 0.750000 0.061907
C75   C     C_R   0.229689 0.729689 0.250000 0.061912
C76   C     C_R   0.729689 0.770311 0.750000 0.061911
C77   C     C_R   0.270311 0.229689 0.250000 0.061911
C78   C     C_R   0.770311 0.729689 0.250000 0.061911
C79   C     C_R   0.822539 0.782208 0.299546 -0.130863
C80   C     C_R   0.229689 0.270311 0.750000 0.061909
C81   C     C_R   0.729689 0.229689 0.250000 0.061911
C82   C     C_R   0.270311 0.770311 0.750000 0.061911
C83   C     C_R   0.229689 0.270311 0.250000 0.061911
C84   C     C_R   0.770311 0.729689 0.750000 0.061911
C85   C     C_R   0.270311 0.770311 0.250000 0.061912
C86   C     C_R   0.729689 0.229689 0.750000 0.061907
C87   C     C_R   0.177447 0.217778 0.700468 -0.130859
C88   C     C_R   0.782208 0.177461 0.299547 -0.130861
C89   C     C_1   0.500000 1.000000 0.018811 -0.001919
C90   C     C_R   0.217791 0.822540 0.700455 -0.130860
C91   C     C_R   0.177459 0.217790 0.299544 -0.130861
C92   C     C_R   0.822543 0.782211 0.700458 -0.130860
C93   C     C_R   0.322615 0.717716 0.200543 -0.130861
C94   C     C_R   0.677471 0.282198 0.799561 -0.130858
C95   C     C_R   0.677461 0.282208 0.200453 -0.130861
C96   C     C_R   0.322540 0.717791 0.799545 -0.130860
C97   C     C_R   0.717792 0.677461 0.200454 -0.130862
C98   C     C_R   0.282222 0.322553 0.799532 -0.130859
C99   C     C_R   0.217717 0.822615 0.299457 -0.130860
C100  C     C_1   1.000000 0.500000 0.981189 -0.001920
C101  C     C_R   0.782198 0.177471 0.700439 -0.130858
C102  C     C_R   0.282210 0.322541 0.200456 -0.130862
C103  C     C_R   0.717788 0.677457 0.799542 -0.130861
C104  C     C_R   0.322553 0.282221 0.799532 -0.130859
C105  C     C_R   0.677461 0.717792 0.200454 -0.130863
C106  C     C_R   0.282209 0.677459 0.799545 -0.130860
C107  C     C_R   0.717792 0.322539 0.200453 -0.130861
C108  C     C_R   0.677457 0.717788 0.799542 -0.130860
C109  C     C_R   0.322541 0.282210 0.200456 -0.130861
C110  C     C_R   0.822529 0.217802 0.700439 -0.130858
C111  C     C_1   1.000000 0.500000 0.018811 -0.001919
C112  C     C_R   0.177385 0.782283 0.299457 -0.130861
C113  C     C_1   0.500000 0.000000 0.899116 -0.008846
C114  C     C_1   0.500000 1.000000 0.100884 -0.008844
C115  C     C_1   1.000000 0.500000 0.899116 -0.008846
C116  C     C_1   1.000000 0.500000 0.100884 -0.008844
C117  C     C_1   1.000000 0.500000 0.399116 -0.008844
C118  C     C_1   1.000000 0.500000 0.600884 -0.008846
C119  C     C_1   0.500000 0.000000 0.399116 -0.008844
C120  C     C_1   0.500000 0.000000 0.600884 -0.008846
C121  C     C_1   0.500000 0.000000 0.936739 -0.037437
C122  C     C_1   1.000000 0.500000 0.481189 -0.001919
C123  C     C_1   0.500000 1.000000 0.063261 -0.037435
C124  C     C_1   1.000000 0.500000 0.936739 -0.037437
C125  C     C_1   1.000000 0.500000 0.063261 -0.037435
C126  C     C_1   1.000000 0.500000 0.436739 -0.037435
C127  C     C_1   1.000000 0.500000 0.563261 -0.037437
C128  C     C_1   0.500000 0.000000 0.436739 -0.037435
C129  C     C_1   0.500000 0.000000 0.563261 -0.037437
C130  C     C_R   0.500000 0.000000 0.646101 0.489327
C131  C     C_R   0.500000 0.000000 0.353899 0.489328
C132  C     C_R   1.000000 0.500000 0.646101 0.489327
C133  C     C_1   1.000000 0.500000 0.518811 -0.001920
C134  C     C_R   1.000000 0.500000 0.353899 0.489328
C135  C     C_R   1.000000 0.500000 0.146101 0.489328
C136  C     C_R   1.000000 0.500000 0.853899 0.489327
C137  C     C_R   0.500000 0.000000 0.146101 0.489328
C138  C     C_R   0.500000 0.000000 0.853899 0.489327
C139  C     C_R   0.606296 0.893704 0.750000 0.514946
C140  C     C_R   0.393704 0.106296 0.250000 0.514945
C141  C     C_R   0.106296 0.606296 0.750000 0.514946
C142  C     C_R   0.893704 0.393704 0.250000 0.514946
C143  C     C_R   0.393704 0.106296 0.750000 0.514947
C144  C     C_1   0.500000 0.000000 0.481189 -0.001919
C145  C     C_R   0.606296 0.893704 0.250000 0.514945
C146  C     C_R   0.893704 0.393704 0.750000 0.514946
C147  C     C_R   0.106296 0.606296 0.250000 0.514946
C148  C     C_R   0.393704 0.893704 0.250000 0.514946
C149  C     C_R   0.606296 0.106296 0.750000 0.514946
C150  C     C_R   0.893704 0.606296 0.250000 0.514945
C151  C     C_R   0.106296 0.393704 0.750000 0.514947
C152  C     C_R   0.606296 0.106296 0.250000 0.514946
C153  C     C_R   0.393704 0.893704 0.750000 0.514946
C154  C     C_R   0.106296 0.393704 0.250000 0.514945
C155  C     C_1   0.500000 0.000000 0.518811 -0.001920
C156  C     C_R   0.893704 0.606296 0.750000 0.514946
C157  C     C_R   0.195176 0.642889 0.774738 -0.133013
C158  C     C_R   0.804824 0.357110 0.225261 -0.133014
C159  C     C_R   0.357117 0.195182 0.774731 -0.133012
C160  C     C_R   0.642890 0.804824 0.225262 -0.133016
C161  C     C_R   0.857105 0.304829 0.725255 -0.133013
C162  C     C_R   0.142853 0.695212 0.274695 -0.133012
C163  C     C_R   0.642888 0.804823 0.774737 -0.133014
C164  C     C_R   0.357111 0.195177 0.225262 -0.133014
C165  C     C_R   0.804824 0.642890 0.225262 -0.133014
C166  C     C_R   0.177459 0.782209 0.700455 -0.130860
C167  C     C_R   0.195182 0.357117 0.774731 -0.133012
C168  C     C_R   0.642890 0.195176 0.225261 -0.133014
C169  C     C_R   0.357111 0.804824 0.774738 -0.133013
C170  C     C_R   0.195177 0.357111 0.225262 -0.133016
C171  C     C_R   0.804823 0.642888 0.774737 -0.133013
C172  C     C_R   0.304788 0.857147 0.274695 -0.133013
C173  C     C_R   0.695171 0.142895 0.725255 -0.133012
C174  C     C_R   0.695176 0.142890 0.274739 -0.133014
C175  C     C_R   0.304824 0.857111 0.725262 -0.133013
C176  C     C_R   0.857110 0.695176 0.274738 -0.133016
H1    H     H_    0.141875 0.787361 0.681188 0.110697
H2    H     H_    0.141858 0.212621 0.681207 0.110696
H3    H     H_    0.787360 0.141877 0.318814 0.110696
H4    H     H_    0.212638 0.858124 0.681188 0.110697
H5    H     H_    0.141874 0.212637 0.318811 0.110696
H6    H     H_    0.858128 0.787365 0.681192 0.110697
H7    H     H_    0.358228 0.712535 0.181311 0.110695
H8    H     H_    0.641891 0.287346 0.818833 0.110695
H9    H     H_    0.641877 0.287360 0.181186 0.110696
H10   H     H_    0.358125 0.712638 0.818812 0.110697
H11   H     H_    0.712640 0.641877 0.181187 0.110696
H12   H     H_    0.858123 0.212640 0.318814 0.110696
H13   H     H_    0.287379 0.358142 0.818793 0.110696
H14   H     H_    0.212535 0.858228 0.318689 0.110695
H15   H     H_    0.787346 0.141891 0.681167 0.110695
H16   H     H_    0.287363 0.358126 0.181189 0.110694
H17   H     H_    0.712635 0.641872 0.818808 0.110697
H18   H     H_    0.358142 0.287379 0.818793 0.110696
H19   H     H_    0.641877 0.712640 0.181187 0.110695
H20   H     H_    0.287361 0.641875 0.818812 0.110697
H21   H     H_    0.712640 0.358123 0.181186 0.110696
H22   H     H_    0.641872 0.712635 0.818808 0.110697
H23   H     H_    0.212621 0.141858 0.681207 0.110696
H24   H     H_    0.358126 0.287363 0.181189 0.110696
H25   H     H_    0.858109 0.212654 0.681167 0.110695
H26   H     H_    0.141772 0.787465 0.318689 0.110695
H27   H     H_    0.199816 0.607071 0.793870 0.131455
H28   H     H_    0.800185 0.392927 0.206128 0.131455
H29   H     H_    0.392939 0.199827 0.793858 0.131454
H30   H     H_    0.607072 0.800184 0.206129 0.131452
H31   H     H_    0.892918 0.300194 0.706116 0.131454
H32   H     H_    0.107007 0.699881 0.293793 0.131452
H33   H     H_    0.607069 0.800182 0.793868 0.131455
H34   H     H_    0.787360 0.858123 0.318813 0.110696
H35   H     H_    0.392929 0.199817 0.206130 0.131455
H36   H     H_    0.800185 0.607072 0.206129 0.131455
H37   H     H_    0.199827 0.392939 0.793858 0.131454
H38   H     H_    0.607073 0.199815 0.206128 0.131455
H39   H     H_    0.392929 0.800184 0.793870 0.131455
H40   H     H_    0.199817 0.392929 0.206130 0.131452
H41   H     H_    0.800182 0.607069 0.793868 0.131456
H42   H     H_    0.300119 0.892993 0.293793 0.131452
H43   H     H_    0.699806 0.107081 0.706116 0.131454
H44   H     H_    0.699815 0.107072 0.293872 0.131455
H45   H     H_    0.712654 0.358109 0.818833 0.110695
H46   H     H_    0.300184 0.892929 0.706130 0.131455
H47   H     H_    0.892928 0.699815 0.293871 0.131452
H48   H     H_    0.107061 0.300173 0.706142 0.131454
H49   H     H_    0.392993 0.800119 0.206207 0.131452
H50   H     H_    0.607081 0.199806 0.793884 0.131454
H51   H     H_    0.107071 0.300183 0.293870 0.131455
H52   H     H_    0.892930 0.699818 0.706132 0.131456
H53   H     H_    0.300173 0.107061 0.706142 0.131454
H54   H     H_    0.699815 0.892928 0.293871 0.131455
H55   H     H_    0.107071 0.699816 0.706130 0.131455
H56   H     H_    0.287465 0.641772 0.181311 0.110695
H57   H     H_    0.892927 0.300185 0.293872 0.131455
H58   H     H_    0.699818 0.892930 0.706132 0.131456
H59   H     H_    0.300183 0.107071 0.293870 0.131452
H60   H     H_    0.800194 0.392918 0.793884 0.131454
H61   H     H_    0.199881 0.607007 0.206207 0.131452
H62   H     H_    0.787365 0.858128 0.681192 0.110697
H63   H     H_    0.212637 0.141874 0.318811 0.110694
H64   H     H_    0.858123 0.787360 0.318813 0.110695
O1    O     O_3   0.500000 0.000000 0.750000 -0.415834
O2    O     O_R   0.454070 0.000000 0.333910 -0.531131
O3    O     O_R   1.000000 0.545930 0.666090 -0.531136
O4    O     O_R   1.000000 0.454070 0.333910 -0.531137
O5    O     O_R   0.954070 0.500000 0.166090 -0.531138
O6    O     O_R   0.045930 0.500000 0.833910 -0.531135
O7    O     O_R   0.500000 0.954070 0.166090 -0.531131
O8    O     O_R   0.500000 0.045930 0.833910 -0.531137
O9    O     O_R   0.045930 0.500000 0.166090 -0.531131
O10   O     O_R   0.954070 0.500000 0.833910 -0.531137
O11   O     O_R   0.500000 0.045930 0.166090 -0.531138
O12   O     O_3   0.500000 0.000000 0.250000 -0.415834
O13   O     O_R   0.500000 0.954070 0.833910 -0.531136
O14   O     O_R   0.610280 0.935490 0.728060 -0.543657
O15   O     O_R   0.389720 0.064510 0.271940 -0.543661
O16   O     O_R   0.064510 0.610280 0.728060 -0.543657
O17   O     O_R   0.935490 0.389720 0.271940 -0.543657
O18   O     O_R   0.389720 0.064510 0.728060 -0.543657
O19   O     O_R   0.610280 0.935490 0.271940 -0.543657
O20   O     O_R   0.935490 0.389720 0.728060 -0.543658
O21   O     O_R   0.064510 0.610280 0.271940 -0.543656
O22   O     O_R   0.389720 0.935490 0.271940 -0.543657
O23   O     O_3   1.000000 0.500000 0.750000 -0.415834
O24   O     O_R   0.610280 0.064510 0.728060 -0.543657
O25   O     O_R   0.935490 0.610280 0.271940 -0.543661
O26   O     O_R   0.064510 0.389720 0.728060 -0.543656
O27   O     O_R   0.610280 0.064510 0.271940 -0.543657
O28   O     O_R   0.389720 0.935490 0.728060 -0.543658
O29   O     O_R   0.064510 0.389720 0.271940 -0.543657
O30   O     O_R   0.935490 0.610280 0.728060 -0.543657
O31   O     O_R   0.110280 0.435490 0.228060 -0.543661
O32   O     O_R   0.889720 0.564510 0.771940 -0.543657
O33   O     O_R   0.564510 0.110280 0.228060 -0.543657
O34   O     O_3   1.000000 0.500000 0.250000 -0.415834
O35   O     O_R   0.435490 0.889720 0.771940 -0.543657
O36   O     O_R   0.889720 0.564510 0.228060 -0.543657
O37   O     O_R   0.110280 0.435490 0.771940 -0.543657
O38   O     O_R   0.435490 0.889720 0.228060 -0.543656
O39   O     O_R   0.564510 0.110280 0.771940 -0.543658
O40   O     O_R   0.889720 0.435490 0.771940 -0.543657
O41   O     O_R   0.110280 0.564510 0.228060 -0.543657
O42   O     O_R   0.435490 0.110280 0.771940 -0.543656
O43   O     O_R   0.564510 0.889720 0.228060 -0.543661
O44   O     O_R   0.110280 0.564510 0.771940 -0.543658
O45   O     O_R   0.454070 0.000000 0.666090 -0.531135
O46   O     O_R   0.889720 0.435490 0.228060 -0.543657
O47   O     O_R   0.564510 0.889720 0.771940 -0.543657
O48   O     O_R   0.435490 0.110280 0.228060 -0.543657
O49   O     O_R   0.545930 0.000000 0.333910 -0.531138
O50   O     O_R   1.000000 0.454070 0.666090 -0.531137
O51   O     O_R   1.000000 0.545930 0.333910 -0.531131
O52   O     O_R   0.545930 0.000000 0.666090 -0.531138
Zn1   Zn    Zn3+2 0.500000 0.934510 0.781550 0.942635
Zn2   Zn    Zn3+2 1.000000 0.565490 0.718450 0.942635
Zn3   Zn    Zn3+2 0.565490 0.000000 0.281550 0.942634
Zn4   Zn    Zn3+2 0.434510 0.000000 0.718450 0.942636
Zn5   Zn    Zn3+2 1.000000 0.565490 0.281550 0.942636
Zn6   Zn    Zn3+2 0.000000 0.434510 0.718450 0.942635
Zn7   Zn    Zn3+2 0.434510 0.000000 0.281550 0.942636
Zn8   Zn    Zn3+2 0.565490 0.000000 0.718450 0.942634
Zn9   Zn    Zn3+2 0.500000 0.065490 0.218450 0.942634
Zn10  Zn    Zn3+2 0.065490 0.500000 0.781550 0.942636
Zn11  Zn    Zn3+2 0.934510 0.500000 0.218450 0.942634
Zn12  Zn    Zn3+2 0.500000 0.065490 0.781550 0.942635
Zn13  Zn    Zn3+2 0.500000 0.934510 0.218450 0.942636
Zn14  Zn    Zn3+2 0.934510 0.500000 0.781550 0.942635
Zn15  Zn    Zn3+2 0.065490 0.500000 0.218450 0.942636
Zn16  Zn    Zn3+2 0.000000 0.434510 0.281550 0.942634

loop_
_geom_bond_atom_site_label_1
_geom_bond_atom_site_label_2
_ccdc_geom_bond_type
C3    H48   S    
C176  H47   S    
O26   Zn6   S    
C112  H26   S    
C163  H33   S    
O34   Zn16  S    
C40   C46   A    
C12   C23   A    
C150  O36   A    
O4    Zn16  S    
C115  C136  S    
C25   C164  A    
C114  C137  S    
C48   C91   A    
C111  C125  S    
C27   C151  S    
C60   C103  A    
C117  C126  T    
C65   C108  A    
C36   C71   A    
O42   Zn12  S    
C97   C105  A    
C119  C128  T    
C32   C172  A    
C136  O10   A    
C143  O18   A    
C29   C175  A    
O46   Zn11  S    
C25   C140  S    
C7    C31   A    
C134  O51   A    
C106  H20   S    
C101  C110  A    
C68   H63   S    
C53   C82   A    
C43   C78   A    
C6    H51   S    
C153  O28   A    
C58   C101  A    
C4    H49   S    
C128  C144  S    
C150  O25   A    
C15   C39   A    
C4    C32   A    
C16   C40   A    
C32   C148  S    
C6    C30   A    
C166  H1    S    
C174  H44   S    
C54   C165  A    
C172  H42   S    
C88   H3    S    
O37   Zn10  S    
C97   H11   S    
C66   C77   A    
O21   Zn5   S    
O39   Zn12  S    
C59   C102  A    
O8    Zn12  S    
C45   C81   A    
O32   Zn14  S    
C101  H15   S    
O7    Zn13  S    
C21   C146  S    
C35   H45   S    
C33   C149  S    
C41   C76   A    
C55   C80   A    
C93   H7    S    
C22   C162  A    
C55   C98   A    
O23   Zn2   S    
C70   C82   A    
O17   Zn16  S    
C28   C168  A    
C160  H30   S    
C30   C154  S    
C156  O30   A    
C100  C111  T    
C20   C160  A    
C5    C51   A    
C102  C109  A    
C92   H6    S    
C148  O22   A    
C11   H57   S    
C11   C18   A    
C57   C92   A    
C145  O19   A    
O48   Zn9   S    
C146  O20   A    
O1    Zn4   S    
C31   C156  S    
C116  C135  S    
O12   Zn13  S    
O49   Zn3   S    
C49   C84   A    
C39   C74   A    
O23   Zn6   S    
C168  H38   S    
C24   C79   A    
C5    C33   A    
C15   H60   S    
C119  C131  S    
C62   C73   A    
O31   Zn15  S    
C147  O21   A    
C138  O13   A    
C17   C157  A    
C14   C25   A    
C65   C163  A    
C79   H64   S    
C146  O40   A    
C58   C86   A    
C14   H59   S    
C159  H29   S    
O1    Zn8   S    
O2    Zn7   S    
C169  H39   S    
C90   H4    S    
C3    C44   A    
C8    C19   A    
C131  O49   A    
C136  O6    A    
C120  C129  T    
C139  O14   A    
C69   C162  A    
O34   Zn5   S    
O47   Zn1   S    
C9    H54   S    
O28   Zn4   S    
O41   Zn15  S    
C141  O44   A    
O30   Zn2   S    
C8    H53   S    
C151  O26   A    
C26   C176  A    
C13   C87   A    
C66   C164  A    
C153  O35   A    
C140  O15   A    
O27   Zn3   S    
C134  O4    A    
O38   Zn13  S    
C114  C123  T    
C116  C125  T    
C47   C90   A    
C62   C160  A    
C118  C127  T    
C167  H37   S    
C67   C110  A    
C145  O43   A    
C35   C94   A    
C13   H23   S    
C162  H32   S    
C20   C145  S    
C141  O16   A    
C46   H56   S    
C161  H31   S    
O24   Zn8   S    
C99   H14   S    
C165  H36   S    
C103  H17   S    
C48   C83   A    
C29   C169  A    
C3    C27   A    
C72   C80   A    
O16   Zn2   S    
C28   C174  A    
C31   C171  A    
C9    C38   A    
O11   Zn9   S    
C148  O38   A    
C149  O39   A    
C52   C81   A    
C1    C121  S    
O36   Zn11  S    
O14   Zn8   S    
C113  C121  T    
C42   C77   A    
C64   C158  A    
C104  H18   S    
C56   C99   A    
C47   C175  A    
C71   C81   A    
C26   C165  A    
O12   Zn3   S    
C135  O5    A    
O50   Zn6   S    
C55   C167  A    
O34   Zn11  S    
C76   C84   A    
O9    Zn15  S    
O3    Zn2   S    
C65   C76   A    
C59   C83   A    
C152  O33   A    
O1    Zn1   S    
C137  O7    A    
C69   C112  A    
C170  H40   S    
C52   C95   A    
C17   C141  S    
C64   C71   A    
C30   C170  A    
O35   Zn1   S    
C50   C85   A    
C75   C85   A    
C102  H16   S    
C54   C97   A    
C157  H27   S    
C44   C87   A    
C34   C70   A    
C53   C169  A    
O5    Zn11  S    
O19   Zn3   S    
C56   C172  A    
C53   C96   A    
C60   C171  A    
O12   Zn7   S    
C94   H8    S    
C135  O9    A    
C98   H13   S    
C117  C134  S    
C51   C86   A    
O34   Zn15  S    
O23   Zn10  S    
C96   H10   S    
C44   C80   A    
C45   C88   A    
C107  H21   S    
C24   H34   S    
C4    C50   A    
C142  O17   A    
C35   C39   A    
C12   C41   A    
C18   C158  A    
C43   C176  A    
C67   C161  A    
C9    C20   A    
C26   C150  S    
C61   C104  A    
C139  O47   A    
C140  O48   A    
C63   C106  A    
C171  H41   S    
C95   C107  A    
O1    Zn12  S    
C61   C72   A    
C91   H5    S    
C132  O50   A    
O52   Zn8   S    
C58   C173  A    
C8    C37   A    
C49   C92   A    
C154  O31   A    
C95   H9    S    
C129  C155  S    
O10   Zn14  S    
C16   C22   A    
C115  C124  T    
C127  C133  S    
O23   Zn14  S    
C131  O2    A    
C156  O32   A    
O25   Zn5   S    
C40   C75   A    
C19   C159  A    
C41   C57   A    
C45   C174  A    
C87   H2    S    
C56   C85   A    
O20   Zn6   S    
O45   Zn4   S    
C10   H55   S    
C69   C75   A    
C66   C109  A    
C108  H22   S    
C2    H12   S    
O18   Zn4   S    
C22   C147  S    
O6    Zn10  S    
C37   C72   A    
C130  O52   A    
C113  C138  S    
C109  H24   S    
O12   Zn9   S    
C164  H35   S    
C100  C124  S    
C34   C166  A    
C54   C78   A    
C158  H28   S    
O13   Zn1   S    
C63   C157  A    
C62   C105  A    
C12   H58   S    
O44   Zn10  S    
C6    C48   A    
C110  H25   S    
C120  C130  S    
C23   C139  S    
C11   C36   A    
O33   Zn9   S    
C61   C159  A    
C147  O41   A    
C7    H52   S    
C77   C83   A    
C10   C17   A    
C43   C79   A    
C68   C91   A    
C5    H50   S    
C47   C82   A    
C24   C38   A    
C73   C78   A    
C2    C88   A    
C103  C108  A    
C59   C170  A    
C33   C173  A    
C149  O24   A    
C13   C37   A    
C57   H62   S    
C14   C42   A    
C42   C68   A    
C130  O45   A    
C173  H43   S    
C137  O11   A    
C23   C163  A    
C152  O27   A    
O40   Zn14  S    
C21   C161  A    
C18   C142  S    
C118  C132  S    
C7    C49   A    
C67   C74   A    
C89   C123  S    
C122  C126  S    
C122  C133  T    
O29   Zn16  S    
C132  O3    A    
C63   C70   A    
C10   C34   A    
C74   C86   A    
C142  O46   A    
C16   H61   S    
C28   C152  S    
O22   Zn7   S    
O15   Zn7   S    
C154  O29   A    
C64   C107  A    
C29   C153  S    
C2    C36   A    
C105  H19   S    
C96   C106  A    
C143  O42   A    
C1    C89   T    
C50   C93   A    
C144  C155  T    
C151  O37   A    
C52   C168  A    
C60   C84   A    
C46   C93   A    
C98   C104  A    
C99   C112  A    
C175  H46   S    
O51   Zn5   S    
C19   C143  S    
C138  O8    A    
C51   C94   A    
C15   C21   A    
C90   C166  A    
O43   Zn13  S    
C27   C167  A    
C38   C73   A    
