data_mof_unit_29997.cif
_audit_creation_date              2012-12-10T16:39:31-0500
_audit_creation_method            fapswitch 2.2
_symmetry_space_group_name_H-M    P1
_symmetry_Int_Tables_number       1
_space_group_crystal_system       triclinic
_cell_length_a                    16.796959
_cell_length_b                    16.680553
_cell_length_c                    16.761189
_cell_angle_alpha                 65.872104
_cell_angle_beta                  65.8343
_cell_angle_gamma                 65.59876
_cell_volume                      3736.08331218

loop_
_atom_site_label
_atom_site_type_symbol
_atom_type_description
_atom_site_fract_x
_atom_site_fract_y
_atom_site_fract_z
_atom_type_partial_charge
C1    C     C_R   0.328696 0.929541 0.465003 0.024984
C2    C     C_R   0.692795 0.978332 0.572650 0.054650
C3    C     C_R   0.017651 0.427808 0.308729 0.018959
C4    C     C_R   0.067721 0.535258 0.672017 0.051935
C5    C     C_R   0.468244 0.333603 0.910249 0.060819
C6    C     C_R   0.576451 0.710375 0.943463 0.029270
C7    C     C_R   0.544633 0.038456 0.675095 0.061603
C8    C     C_R   0.466113 0.919009 0.334143 0.068011
C9    C     C_R   0.710818 0.575115 0.943615 0.031657
C10   C     C_R   0.333115 0.468886 0.911648 0.065252
C11   C     C_R   0.080350 0.665750 0.534150 0.036109
C12   C     C_R   0.956155 0.326681 0.456670 0.071551
C13   C     C_R   0.466226 0.942181 0.469621 -0.060027
C14   C     C_R   0.553409 0.979779 0.557705 -0.052469
C15   C     C_R   0.012968 0.444991 0.448452 -0.055930
C16   C     C_R   0.052086 0.532285 0.535219 -0.058130
C17   C     C_R   0.475795 0.475981 0.913134 -0.052194
C18   C     C_R   0.572295 0.571672 0.928600 -0.056352
C19   C     C_R   0.961189 0.180059 0.438603 0.956981
C20   C     C_R   0.041054 0.820079 0.560874 0.888644
C21   C     C_R   0.179547 0.439401 0.958151 0.928374
C22   C     C_R   0.837594 0.575328 0.993149 0.935250
C23   C     C_R   0.439353 0.958727 0.179756 0.976023
C24   C     C_R   0.561826 0.037756 0.820086 0.888808
C25   C     C_R   0.575141 0.837257 0.993841 0.926957
C26   C     C_R   0.439410 0.179429 0.958214 0.952102
C27   C     C_R   0.039361 0.561461 0.820624 0.896494
C28   C     C_R   0.982892 0.429542 0.175393 0.953537
C29   C     C_R   0.825736 0.014109 0.571218 0.972501
C30   C     C_R   0.179393 0.961857 0.437817 0.901559
C31   C     C_R   0.420420 0.930240 0.422740 0.002931
C32   C     C_R   0.596742 0.999875 0.601051 -0.019202
C33   C     C_R   0.994248 0.400840 0.404848 0.001572
C34   C     C_R   0.066569 0.578005 0.580405 -0.001873
C35   C     C_R   0.425576 0.426058 0.912185 -0.013875
C36   C     C_R   0.619053 0.618161 0.940893 0.027979
C37   C     C_R   0.278745 0.934735 0.410563 -0.126847
C38   C     C_R   0.732833 0.011239 0.609497 -0.102760
C39   C     C_R   0.985120 0.391153 0.268342 -0.121483
C40   C     C_R   0.065586 0.588807 0.721449 -0.083109
C41   C     C_R   0.411798 0.279913 0.927497 -0.104347
C42   C     C_R   0.619393 0.750724 0.969964 -0.120726
C43   C     C_R   0.592966 0.049628 0.721880 -0.078004
C44   C     C_R   0.411648 0.930499 0.280413 -0.108402
C45   C     C_R   0.751103 0.618883 0.969730 -0.128367
C46   C     C_R   0.279734 0.412049 0.928166 -0.093328
C47   C     C_R   0.070154 0.719151 0.588469 -0.126884
C48   C     C_R   0.946589 0.279071 0.408016 -0.105852
C49   C     C_R   0.447651 0.060753 0.701214 0.062702
C50   C     C_R   0.563529 0.892694 0.306150 0.038784
C51   C     C_R   0.106376 0.693471 0.436425 0.050594
C52   C     C_R   0.932843 0.301115 0.553645 0.056603
C53   C     C_R   0.758952 0.494102 0.913707 0.033415
C54   C     C_R   0.300110 0.566600 0.890308 0.046532
C55   C     C_R   0.290789 0.926374 0.559464 0.078420
C56   C     C_R   0.744149 0.924366 0.509985 0.038937
C57   C     C_R   0.565406 0.300435 0.887564 0.052478
C58   C     C_R   0.496353 0.759228 0.913163 0.033630
C59   C     C_R   0.072082 0.489849 0.258004 0.048714
C60   C     C_R   0.069017 0.441222 0.710310 0.065903
C61   C     C_R   0.321639 0.931275 0.321669 -0.307804
C62   C     C_R   0.682346 0.047372 0.681668 -0.335440
C63   C     C_R   0.948683 0.319357 0.318554 -0.307785
C64   C     C_R   0.070562 0.677526 0.678281 -0.312825
C65   C     C_R   0.321130 0.321077 0.930660 -0.323776
C66   C     C_R   0.705253 0.705139 0.980378 -0.292814
C67   C     C_R   0.700692 0.916029 0.458148 0.066689
C68   C     C_R   0.327366 0.961786 0.595176 0.109395
C69   C     C_R   0.031786 0.406514 0.674443 0.068274
C70   C     C_R   0.077269 0.543564 0.301296 0.109796
C71   C     C_R   0.445909 0.711070 0.910568 0.111914
C72   C     C_R   0.614455 0.347860 0.894667 0.071406
C73   C     C_R   0.610478 0.898493 0.357014 0.065539
C74   C     C_R   0.406654 0.027286 0.667186 0.073914
C75   C     C_R   0.348150 0.615424 0.896950 0.066352
C76   C     C_R   0.710488 0.444329 0.910003 0.114771
C77   C     C_R   0.964575 0.336100 0.595333 0.067809
C78   C     C_R   0.096468 0.644329 0.390644 0.098697
C79   C     C_R   0.750643 0.877877 0.384392 -0.207946
C80   C     C_R   0.277278 0.990212 0.674551 -0.187423
C81   C     C_R   0.001253 0.328365 0.725146 -0.205875
C82   C     C_R   0.115179 0.617188 0.250870 -0.205218
C83   C     C_R   0.361393 0.757741 0.891459 -0.176274
C84   C     C_R   0.709261 0.312214 0.882538 -0.236940
C85   C     C_R   0.706439 0.871568 0.333315 -0.209287
C86   C     C_R   0.314688 0.027387 0.707028 -0.233136
C87   C     C_R   0.313273 0.710828 0.885001 -0.227198
C88   C     C_R   0.756223 0.359475 0.890329 -0.173986
C89   C     C_R   0.963190 0.296922 0.687764 -0.203716
C90   C     C_R   0.122415 0.668213 0.294745 -0.209325
C91   C     C_R   0.560297 0.930341 0.434925 0.030536
C92   C     C_R   0.459106 0.991659 0.591980 0.031273
C93   C     C_R   0.000563 0.411035 0.542880 0.026186
C94   C     C_R   0.063068 0.567441 0.441266 0.008487
C95   C     C_R   0.434546 0.568555 0.912789 0.029164
C96   C     C_R   0.616280 0.482199 0.919787 0.011246
C97   C     C_R   0.604868 0.943689 0.482482 0.030669
C98   C     C_R   0.417145 0.966644 0.551496 0.012563
C99   C     C_R   0.483015 0.616324 0.920432 0.012534
C100  C     C_R   0.568211 0.434248 0.911723 0.026378
C101  C     C_R   0.026464 0.450878 0.584692 0.028458
C102  C     C_R   0.048916 0.520170 0.396975 0.012769
O1    O     O_R   0.982940 0.138950 0.510160 -0.612791
O2    O     O_R   0.017060 0.861050 0.489840 -0.644704
O3    O     O_R   0.138950 0.510160 0.982940 -0.648793
O4    O     O_R   0.861050 0.489840 0.017060 -0.624629
O5    O     O_R   0.510160 0.982940 0.138950 -0.607706
O6    O     O_R   0.489840 0.017060 0.861050 -0.665282
O7    O     O_R   0.489840 0.861050 0.017060 -0.635253
O8    O     O_R   0.510160 0.138950 0.982940 -0.615447
O9    O     O_R   0.017060 0.489840 0.861050 -0.664034
O10   O     O_R   0.982940 0.510160 0.138950 -0.631940
O11   O     O_R   0.861050 0.017060 0.489840 -0.623515
O12   O     O_R   0.138950 0.982940 0.510160 -0.635392
O13   O     O_R   0.867700 0.025880 0.612340 -0.641428
O14   O     O_R   0.132300 0.974120 0.387660 -0.634166
O15   O     O_R   0.025880 0.612340 0.867700 -0.651505
O16   O     O_R   0.974120 0.387660 0.132300 -0.616637
O17   O     O_R   0.612340 0.867700 0.025880 -0.626412
O18   O     O_R   0.387660 0.132300 0.974120 -0.634330
O19   O     O_R   0.387660 0.974120 0.132300 -0.623979
O20   O     O_R   0.612340 0.025880 0.867700 -0.648486
O21   O     O_R   0.132300 0.387660 0.974120 -0.638386
O22   O     O_R   0.867700 0.612340 0.025880 -0.614543
O23   O     O_R   0.974120 0.132300 0.387660 -0.620416
O24   O     O_R   0.025880 0.867700 0.612340 -0.641727
Zn1   Zn    Zn3+2 0.004880 0.004880 0.583590 0.902341
Zn2   Zn    Zn3+2 0.995120 0.995120 0.416410 0.912872
Zn3   Zn    Zn3+2 0.004880 0.583590 0.004880 0.896588
Zn4   Zn    Zn3+2 0.995120 0.416410 0.995120 0.898937
Zn5   Zn    Zn3+2 0.583590 0.004880 0.004880 0.917037
Zn6   Zn    Zn3+2 0.416410 0.995120 0.995120 0.899334
H1    H     H_    0.281623 0.938025 0.281089 0.195674
H2    H     H_    0.715034 0.066593 0.712333 0.192699
H3    H     H_    0.930000 0.288496 0.285495 0.191949
H4    H     H_    0.065499 0.717940 0.717954 0.193650
H5    H     H_    0.279699 0.279222 0.943344 0.198356
H6    H     H_    0.736777 0.737142 0.999302 0.194739
H7    H     H_    0.271980 0.052131 0.765913 0.126265
H8    H     H_    0.748603 0.844429 0.275777 0.134980
H9    H     H_    0.149837 0.725589 0.252764 0.158215
H10   H     H_    0.937072 0.238987 0.730848 0.122352
H11   H     H_    0.828797 0.328380 0.881741 0.144789
H12   H     H_    0.248393 0.750504 0.870912 0.134960
H13   H     H_    0.207470 0.988315 0.709167 0.130224
H14   H     H_    0.824435 0.854800 0.363397 0.132876
H15   H     H_    0.748348 0.247163 0.867717 0.126198
H16   H     H_    0.331291 0.831041 0.882154 0.147428
H17   H     H_    0.137673 0.637340 0.176983 0.147428
H18   H     H_    0.002183 0.293761 0.795292 0.116634
N1    N     N_3   0.391662 0.126084 0.752512 -0.435698
H19   H     H_    0.348499 0.095849 0.813082 0.189259
H20   H     H_    0.351147 0.181780 0.713811 0.175166
N2    N     N_3   0.613736 0.849274 0.234319 -0.422117
H21   H     H_    0.651012 0.782012 0.261426 0.183273
H22   H     H_    0.659288 0.885308 0.184220 0.194337
N3    N     N_3   0.157880 0.758538 0.382834 -0.455347
H23   H     H_    0.116309 0.819934 0.350763 0.203344
H24   H     H_    0.183523 0.770888 0.422542 0.187084
N4    N     N_3   0.869248 0.248482 0.608668 -0.443168
H25   H     H_    0.813059 0.286972 0.649083 0.174564
H26   H     H_    0.899910 0.187769 0.651947 0.191651
N5    N     N_3   0.853556 0.476328 0.862677 -0.453167
H27   H     H_    0.872684 0.536484 0.834889 0.195747
H28   H     H_    0.893109 0.422581 0.903334 0.220694
N6    N     N_3   0.226894 0.616035 0.848897 -0.434415
H29   H     H_    0.251375 0.657600 0.783638 0.185740
H30   H     H_    0.174252 0.658219 0.887864 0.192670
N7    N     N_3   0.234409 0.867675 0.623482 -0.462045
H31   H     H_    0.169932 0.906869 0.653498 0.200384
H32   H     H_    0.227460 0.829431 0.591753 0.187511
N8    N     N_3   0.835978 0.867778 0.509275 -0.426750
H33   H     H_    0.879350 0.884369 0.443123 0.209386
H34   H     H_    0.838549 0.798980 0.527876 0.179756
N9    N     N_3   0.613769 0.227549 0.844923 -0.440292
H35   H     H_    0.656267 0.174030 0.882881 0.197842
H36   H     H_    0.654484 0.252878 0.779559 0.171800
N10   N     N_3   0.480509 0.853697 0.860235 -0.451611
H37   H     H_    0.540678 0.871981 0.833686 0.195924
H38   H     H_    0.426463 0.894571 0.899498 0.224736
N11   N     N_3   0.137487 0.485188 0.170488 -0.446798
H39   H     H_    0.147058 0.426410 0.155385 0.190385
H40   H     H_    0.116215 0.544790 0.120501 0.224316
N12   N     N_3   0.124763 0.378424 0.769941 -0.425056
H41   H     H_    0.177527 0.331489 0.736379 0.169175
H42   H     H_    0.086296 0.341206 0.829158 0.187579

loop_
_geom_bond_atom_site_label_1
_geom_bond_atom_site_label_2
_ccdc_geom_bond_type
C68   C80   A    
C83   C87   A    
C64   H4    S    
C9    C45   A    
N3    H23   S    
C18   C96   A    
N7    H31   S    
C6    C58   A    
C11   C47   A    
N5    H27   S    
C12   C48   A    
N10   H37   S    
C75   C95   A    
N9    H36   S    
O11   Zn2   S    
C30   O14   A    
N11   H39   S    
C78   C90   A    
C77   C89   A    
O24   Zn1   S    
N5    H28   S    
C26   O18   A    
C55   N7    S    
C30   O12   A    
C95   C99   A    
C58   C71   A    
C3    C33   A    
C81   H18   S    
C96   C100  A    
C1    C31   A    
O13   Zn1   S    
N12   H41   S    
C2    C32   A    
C74   C92   A    
C13   C98   A    
C59   N11   S    
C80   C86   A    
C16   C34   A    
C57   N9    S    
C19   O1    A    
C4    C40   A    
C6    C36   A    
C66   H6    S    
C29   C38   S    
C10   C46   A    
C9    C36   A    
O17   Zn5   S    
N1    H19   S    
C10   C35   A    
C17   C95   A    
C7    C43   A    
C87   H12   S    
O15   Zn3   S    
C76   C88   A    
C88   H11   S    
N2    H22   S    
C1    C37   A    
C65   H5    S    
N11   H40   S    
C29   O13   A    
C73   C91   A    
C27   O9    A    
N3    H24   S    
C13   C91   A    
N6    H30   S    
N7    H32   S    
C54   N6    S    
C10   C54   A    
C25   O17   A    
C12   C52   A    
N8    H34   S    
C55   C68   A    
C79   H14   S    
C71   C83   A    
C27   O15   A    
C4    C34   A    
C49   N1    S    
C61   H1    S    
C90   H9    S    
C8    C44   A    
C67   C79   A    
C7    C49   A    
C46   C65   A    
C23   O19   A    
C50   C73   A    
C93   C101  A    
C47   C64   A    
C67   C97   A    
C19   C48   S    
C53   N5    S    
C48   C63   A    
O3    Zn3   S    
C56   N8    S    
C28   C39   S    
C22   O4    A    
C71   C99   A    
C19   O23   A    
C91   C97   A    
C23   C44   S    
C83   H16   S    
C30   C37   S    
C63   H3    S    
C21   O21   A    
C20   O24   A    
O16   Zn4   S    
C25   O7    A    
O23   Zn2   S    
C2    C38   A    
O9    Zn4   S    
N10   H38   S    
N9    H35   S    
O2    Zn2   S    
C27   C40   S    
C23   O5    A    
C4    C60   A    
O7    Zn6   S    
C24   O20   A    
O8    Zn5   S    
C58   N10   S    
C26   C41   S    
C74   C86   A    
C85   H8    S    
C73   C85   A    
N2    H21   S    
C72   C84   A    
C86   H7    S    
C69   C81   A    
C24   O6    A    
C26   O8    A    
C78   C94   A    
O5    Zn5   S    
C80   H13   S    
C14   C92   A    
O21   Zn4   S    
O14   Zn2   S    
N6    H29   S    
O10   Zn3   S    
C53   C76   A    
C9    C53   A    
C18   C99   A    
O19   Zn6   S    
C52   C77   A    
C8    C50   A    
O20   Zn5   S    
C79   C85   A    
O1    Zn1   S    
N8    H33   S    
C14   C97   A    
C21   C46   S    
C72   C100  A    
C84   H15   S    
C75   C87   A    
O4    Zn4   S    
C5    C41   A    
C7    C32   A    
O18   Zn6   S    
C8    C31   A    
C13   C31   A    
C11   C34   A    
C15   C102  A    
C84   C88   A    
C14   C32   A    
C15   C33   A    
C82   C90   A    
C25   C42   S    
C15   C93   A    
C37   C61   A    
C70   C102  A    
C22   O22   A    
C20   O2    A    
C69   C101  A    
C44   C61   A    
C56   C67   A    
C39   C63   A    
C16   C94   A    
C40   C64   A    
C5    C57   A    
N4    H25   S    
C62   H2    S    
C1    C55   A    
C51   C78   A    
C81   C89   A    
C60   N12   S    
C2    C56   A    
C76   C96   A    
O12   Zn1   S    
C60   C69   A    
C50   N2    S    
C5    C35   A    
C77   C93   A    
N12   H42   S    
O22   Zn3   S    
C51   N3    S    
N1    H20   S    
C57   C72   A    
C41   C65   A    
C70   C82   A    
C17   C100  A    
C68   C98   A    
O6    Zn6   S    
C82   H17   S    
C11   C51   A    
C92   C98   A    
C59   C70   A    
C3    C39   A    
C54   C75   A    
C16   C101  A    
C22   C45   S    
C94   C102  A    
C6    C42   A    
C29   O11   A    
C45   C66   A    
C42   C66   A    
C24   C43   S    
C49   C74   A    
C28   O16   A    
C17   C35   A    
C12   C33   A    
C18   C36   A    
C52   N4    S    
C28   O10   A    
C21   O3    A    
C20   C47   S    
C89   H10   S    
C43   C62   A    
N4    H26   S    
C38   C62   A    
C3    C59   A    
