data_mof_unit_27395.cif
_audit_creation_date              2013-03-05T15:43:30-0500
_audit_creation_method            fapswitch 2.2
_symmetry_space_group_name_H-M    P1
_symmetry_Int_Tables_number       1
_space_group_crystal_system       triclinic
_cell_length_a                    10.781529
_cell_length_b                    10.934888
_cell_length_c                    9.676058
_cell_angle_alpha                 90.465258
_cell_angle_beta                  90.131392
_cell_angle_gamma                 90.249784
_cell_volume                      1140.70549656

loop_
_atom_site_label
_atom_site_type_symbol
_atom_site_description
_atom_site_fract_x
_atom_site_fract_y
_atom_site_fract_z
_atom_type_partial_charge
O1    O     O_R   0.500020 0.321960 0.617040 -0.546548
O2    O     O_R   0.499980 0.321920 0.382900 -0.519531
C1    C     C_R   0.499935 0.265103 0.499121 0.957879
O3    O     O_R   0.317710 0.500000 0.617070 -0.513726
O4    O     O_R   0.317670 0.499960 0.382930 -0.534896
C2    C     C_R   0.260058 0.503550 0.499530 0.849738
Cu1   Cu    Cu3+1 0.500030 0.500020 0.638630 1.077674
Cu2   Cu    Cu3+1 0.499970 0.499980 0.361370 1.052166
O5    O     O_R   0.500020 0.678080 0.617100 -0.573027
O6    O     O_R   0.499980 0.678040 0.382960 -0.582347
O7    O     O_R   0.682330 0.500040 0.617070 -0.569566
O8    O     O_R   0.682290 0.500000 0.382930 -0.587306
C3    C     C_R   0.502096 0.734729 0.500633 0.847361
C4    C     C_R   0.739964 0.499949 0.500003 0.873992
C5    C     C_3   0.073555 0.381559 0.567514 -0.027859
H1    H     H_    0.100859 0.386927 0.677627 0.193568
C6    C     C_3   0.927557 0.374111 0.558401 0.574571
H2    H     H_    0.890544 0.605532 0.695730 0.196357
C7    C     C_3   0.070767 0.618055 0.584616 0.590565
C8    C     C_3   0.067648 0.507360 0.345660 0.179646
C9    C     C_3   0.121996 0.503814 0.498374 -0.333098
H3    H     H_    0.085718 0.417166 0.296924 0.210226
C10   C     C_3   0.877615 0.499395 0.499962 -0.231837
C11   C     C_3   0.926276 0.609555 0.588469 -0.429582
C12   C     C_3   0.926080 0.520985 0.350449 -0.436382
H4    H     H_    0.883149 0.457491 0.273787 0.227546
H5    H     H_    0.897049 0.613597 0.316800 0.239707
H6    H     H_    0.885563 0.695517 0.547453 0.220728
C13   C     C_2   0.506238 0.931053 0.386442 -0.222906
C14   C     C_2   0.511772 0.866657 0.503342 -0.302948
H7    H     H_    0.495080 0.884152 0.287717 0.186158
H8    H     H_    0.528926 0.909388 0.603028 0.165937
C15   C     C_2   0.519777 0.065199 0.384058 0.469213
C16   C     C_2   0.493116 0.132623 0.497416 -0.217544
H9    H     H_    0.460913 0.091195 0.592178 0.120220
C17   C     C_2   0.427192 0.428904 0.920273 0.552737
N1    N     N_2   0.498630 0.498660 0.846910 -0.271952
H10   H     H_    0.568512 0.546570 0.895408 0.150445
C18   C     C_2   0.436485 0.422100 0.077087 -0.065405
N2    N     N_2   0.498590 0.498630 0.153040 -0.286560
H11   H     H_    0.384962 0.350533 0.129007 0.187574
H12   H     H_    0.540548 0.571843 0.106366 0.192407
O9    O     O_3   0.101346 0.728260 0.517961 -0.626112
H13   H     H_    0.192904 0.733130 0.508771 0.339371
O10   O     O_3   0.557858 0.121767 0.263780 -0.672304
H14   H     H_    0.575529 0.058178 0.192996 0.336189
O11   O     O_3   0.341624 0.356438 0.851451 -0.651452
H15   H     H_    0.293022 0.310297 0.920626 0.326241
N3    N     N_R   0.132620 0.267664 0.518127 0.164140
O12   O     O_R   0.116697 0.167913 0.588502 -0.243798
O13   O     O_R   0.204451 0.263988 0.410309 -0.362988
N4    N     N_R   0.885424 0.271161 0.469030 0.181879
O14   O     O_R   0.804393 0.193011 0.515327 -0.281933
O15   O     O_R   0.930105 0.253236 0.345737 -0.329844
O16   O     O_3   0.878514 0.352441 0.691684 -0.669952
H16   H     H_    0.909779 0.414588 0.757799 0.339842
N5    N     N_R   0.121276 0.624582 0.727510 0.135370
O17   O     O_R   0.078046 0.556063 0.825779 -0.364683
O18   O     O_R   0.201783 0.708961 0.761038 -0.279666
N6    N     N_R   0.123752 0.598977 0.253051 0.161840
O19   O     O_R   0.089786 0.713014 0.256008 -0.266539
O20   O     O_R   0.187592 0.561204 0.147109 -0.298999

loop_
_geom_bond_atom_site_label_1
_geom_bond_atom_site_label_2
_geom_bond_distance
_ccdc_geom_bond_type
C4    C10   1.484130 S    
O4    Cu2   1.976987 S    
Cu1   O7    1.976987 S    
C10   C11   1.560568 S    
C5    C6    1.578056 S    
C13   C14   1.338603 D    
C8    N6    1.477929 S    
C15   O10   1.384675 S    
C6    O16   1.416305 S    
O11   H15   0.990935 S    
Cu2   O8    1.976252 S    
N3    O12   1.301499 A    
O16   H16   0.987246 S    
N2    H12   1.026244 S    
O2    C1    1.289180 A    
Cu1   N1    2.015597 S    
N4    O15   1.301296 A    
Cu1   Cu2   2.682779 S    
C13   H7    1.086747 S    
O10   H14   0.991425 S    
C8    C9    1.589194 S    
C14   H8    1.083533 S    
N5    O17   1.301268 A    
C6    C10   1.582438 S    
O3    Cu1   1.976250 S    
H2    C11   1.109022 S    
C7    N5    1.485932 S    
C6    N4    1.483033 S    
O3    C2    1.295784 A    
C17   N1    1.298129 D    
C7    C9    1.597862 S    
N1    H10   1.026300 S    
O8    C4    1.290998 A    
C15   C16   1.348873 D    
C5    N3    1.477710 S    
O9    H13   0.992565 S    
O4    C2    1.289561 A    
O7    C4    1.293234 A    
N5    O18   1.302624 A    
C12   H5    1.112293 S    
C8    C12   1.534989 S    
C8    H3    1.107967 S    
C5    H1    1.105762 S    
C13   C15   1.473849 S    
C3    C14   1.445946 S    
C5    C9    1.586675 S    
C10   C12   1.558728 S    
N4    O14   1.302193 A    
C18   H11   1.085024 S    
C17   O11   1.380108 S    
N6    O20   1.301550 A    
C16   H9    1.083216 S    
C18   N2    1.292914 D    
Cu1   O5    1.959862 S    
O5    C3    1.290566 A    
Cu2   N2    2.015768 S    
C1    C16   1.450157 S    
N3    O13   1.301167 A    
C12   H4    1.110761 S    
O1    Cu1   1.956553 S    
C2    C9    1.488549 S    
C7    C11   1.560749 S    
C17   C18   1.522863 S    
Cu2   O6    1.956553 S    
O2    Cu2   1.959862 S    
C11   H6    1.114722 S    
C7    O9    1.409609 S    
N6    O19   1.301285 A    
O1    C1    1.294936 A    
O6    C3    1.292094 A    
