data_mof_unit_27983.cif
_audit_creation_date              2012-12-10T18:53:38-0500
_audit_creation_method            fapswitch 2.2
_symmetry_space_group_name_H-M    P1
_symmetry_Int_Tables_number       1
_space_group_crystal_system       triclinic
_cell_length_a                    10.6877
_cell_length_b                    9.946147
_cell_length_c                    19.142861
_cell_angle_alpha                 90.4306
_cell_angle_beta                  92.060128
_cell_angle_gamma                 89.722087
_cell_volume                      2033.51954805

loop_
_atom_site_label
_atom_site_type_symbol
_atom_type_description
_atom_site_fract_x
_atom_site_fract_y
_atom_site_fract_z
_atom_type_partial_charge
C1    C     C_R   0.260229 0.500189 0.499718 0.837602
C2    C     C_R   0.739771 0.499811 0.500282 0.837599
C3    C     C_R   0.500899 0.500704 0.929986 0.198212
C4    C     C_R   0.499132 0.499309 0.070014 0.198205
C5    C     C_R   0.499814 0.499578 0.366223 0.803308
C6    C     C_R   0.500186 0.500422 0.633777 0.803314
C7    C     C_R   0.065885 0.382722 0.517983 -0.094348
C8    C     C_R   0.934115 0.617278 0.482018 -0.094345
C9    C     C_R   0.937780 0.382429 0.518029 -0.142117
C10   C     C_R   0.062220 0.617571 0.481971 -0.142121
C11   C     C_R   0.872363 0.499734 0.500110 -0.055689
C12   C     C_R   0.127637 0.500266 0.499890 -0.055691
C13   C     C_R   0.577208 0.072184 0.545671 0.010917
C14   C     C_R   0.422792 0.927816 0.454328 0.010915
C15   C     C_R   0.418447 0.071791 0.456775 0.001791
C16   C     C_R   0.581552 0.928208 0.543225 0.001795
C17   C     C_R   0.614558 0.508370 0.257335 -0.045681
C18   C     C_R   0.385448 0.491652 0.742668 -0.045698
C19   C     C_R   0.615659 0.510705 0.747107 -0.053811
C20   C     C_R   0.384356 0.489275 0.252889 -0.053804
C21   C     C_R   0.614793 0.502587 0.183878 -0.028714
C22   C     C_R   0.385223 0.497437 0.816126 -0.028719
C23   C     C_R   0.616273 0.504573 0.820570 -0.016092
C24   C     C_R   0.383749 0.495414 0.179426 -0.016077
C25   C     C_R   0.499182 0.499007 0.145792 -0.101826
C26   C     C_R   0.500840 0.501003 0.854208 -0.101809
C27   C     C_R   0.499591 0.498711 0.290753 -0.198185
C28   C     C_R   0.500416 0.501290 0.709246 -0.198167
H1    H     H_    0.116222 0.291754 0.532577 0.189310
H2    H     H_    0.883778 0.708247 0.467423 0.189314
H3    H     H_    0.890472 0.291250 0.532501 0.164078
H4    H     H_    0.109528 0.708751 0.467499 0.164079
N1    N     N_R   0.500000 0.857200 0.500000 -0.184106
N2    N     N_R   0.500000 0.142800 0.500000 -0.184106
N3    N     N_R   0.455751 0.607910 0.034306 -0.134579
N4    N     N_R   0.544281 0.392102 0.965695 -0.134580
N5    N     N_R   0.456550 0.608563 0.965034 -0.137396
N6    N     N_R   0.543482 0.391449 0.034966 -0.137390
O1    O     O_R   0.316770 0.614620 0.500000 -0.648611
O2    O     O_R   0.683230 0.385380 0.500000 -0.648610
O3    O     O_R   0.683230 0.614620 0.500000 -0.639727
O4    O     O_R   0.316770 0.385380 0.500000 -0.639732
O5    O     O_R   0.499990 0.614700 0.398140 -0.617526
O6    O     O_R   0.500010 0.385300 0.601860 -0.617526
O7    O     O_R   0.500010 0.614700 0.601860 -0.635827
O8    O     O_R   0.499990 0.385300 0.398140 -0.635822
Zn1   Zn    Zn3+2 0.500000 0.653120 0.500000 0.941834
Zn2   Zn    Zn3+2 0.500000 0.346880 0.500000 0.941834
C29   C     C_2   0.732448 0.527653 0.300259 0.537877
H5    H     H_    0.745303 0.477415 0.350078 0.036447
O9    O     O_2   0.813704 0.604185 0.281814 -0.500691
C30   C     C_2   0.267549 0.472384 0.699748 0.537864
H6    H     H_    0.254693 0.522627 0.649929 0.036455
O10   O     O_2   0.186286 0.395857 0.718195 -0.500660
C31   C     C_2   0.733284 0.530144 0.708741 0.523282
H7    H     H_    0.744854 0.482283 0.658255 0.014376
O11   O     O_2   0.815702 0.604735 0.731552 -0.481778
C32   C     C_2   0.266733 0.469810 0.291250 0.523304
H8    H     H_    0.255145 0.517668 0.341734 0.014378
O12   O     O_2   0.184339 0.395198 0.268436 -0.481793
C33   C     C_2   0.734268 0.499287 0.145879 0.555235
H9    H     H_    0.740480 0.549217 0.095918 0.061756
O13   O     O_2   0.824946 0.435938 0.168449 -0.473655
C34   C     C_2   0.265750 0.500752 0.854128 0.555220
H10   H     H_    0.259540 0.450827 0.904091 0.061752
O14   O     O_2   0.175069 0.564107 0.831560 -0.473652
C35   C     C_2   0.735869 0.500417 0.863163 0.558478
H11   H     H_    0.742519 0.550089 0.913823 0.057271
O15   O     O_2   0.826088 0.436511 0.843559 -0.473101
C36   C     C_2   0.264160 0.499551 0.136828 0.558477
H12   H     H_    0.257524 0.449888 0.086166 0.057270
O16   O     O_2   0.173929 0.563429 0.156433 -0.473117
C37   C     C_2   0.647517 0.145078 0.602256 0.531278
H13   H     H_    0.692039 0.239549 0.593163 0.085211
O17   O     O_2   0.654016 0.100304 0.661515 -0.538220
C38   C     C_2   0.352484 0.854921 0.397743 0.531288
H14   H     H_    0.307960 0.760452 0.406837 0.085213
O18   O     O_2   0.345987 0.899696 0.338484 -0.538214
C39   C     C_2   0.317471 0.144307 0.417349 0.540941
H15   H     H_    0.334775 0.237171 0.391184 0.108617
O19   O     O_2   0.210755 0.100718 0.414796 -0.556168
C40   C     C_2   0.682528 0.855693 0.582652 0.540942
H16   H     H_    0.665222 0.762832 0.608821 0.108615
O20   O     O_2   0.789245 0.899278 0.585202 -0.556172

loop_
_geom_bond_atom_site_label_1
_geom_bond_atom_site_label_2
_ccdc_geom_bond_type
C31   H7    S    
C7    H1    S    
C6    O7    A    
C6    C28   S    
C37   H13   S    
C14   N1    A    
C4    C25   S    
C18   C30   S    
N3    N5    A    
C38   O18   D    
C2    O3    A    
C32   O12   D    
O2    Zn2   S    
C23   C26   A    
C23   C35   S    
C33   O13   D    
C5    C27   S    
C15   C39   S    
C20   C24   A    
C29   O9    D    
C36   H12   S    
C15   N2    A    
C21   C33   S    
C5    O5    A    
C4    N3    A    
C6    O6    A    
C37   O17   D    
C1    C12   S    
C2    C11   S    
C30   O10   D    
O7    Zn1   S    
C7    C12   A    
O8    Zn2   S    
C24   C36   S    
C35   H11   S    
C17   C27   A    
C18   C28   A    
C38   H14   S    
C17   C29   S    
C39   O19   D    
C1    O1    A    
C32   H8    S    
C17   C21   A    
C35   O15   D    
C34   O14   D    
C19   C23   A    
C10   H4    S    
C16   N1    A    
C16   C40   S    
O3    Zn1   S    
O4    Zn2   S    
C24   C25   A    
C19   C28   A    
C9    C11   A    
C10   C12   A    
C13   C37   S    
C29   H5    S    
C40   O20   D    
C31   O11   D    
N1    Zn1   S    
N2    Zn2   S    
C20   C32   S    
C30   H6    S    
O1    Zn1   S    
C19   C31   S    
C7    C9    A    
C21   C25   A    
C18   C22   A    
C3    C26   S    
C4    N6    A    
C20   C27   A    
C5    O8    A    
C8    H2    S    
C34   H10   S    
N4    N6    A    
C13   N2    A    
C3    N4    A    
C8    C11   A    
C33   H9    S    
C9    H3    S    
C22   C34   S    
C39   H15   S    
C2    O2    A    
C1    O4    A    
C3    N5    A    
C8    C10   A    
C40   H16   S    
C22   C26   A    
C13   C16   A    
C14   C15   A    
C36   O16   D    
O5    Zn1   S    
O6    Zn2   S    
C14   C38   S    
