data_mof_unit_24582.cif
_audit_creation_date              2012-10-26T19:27:50-0400
_audit_creation_method            fapswitch 2.2
_symmetry_space_group_name_H-M    P1
_symmetry_Int_Tables_number       1
_space_group_crystal_system       triclinic
_cell_length_a                    20.398182
_cell_length_b                    21.438771
_cell_length_c                    14.899529
_cell_angle_alpha                 89.009418
_cell_angle_beta                  128.696579
_cell_angle_gamma                 91.039764
_cell_volume                      5084.34171389

loop_
_atom_site_label
_atom_site_type_symbol
_atom_type_description
_atom_site_fract_x
_atom_site_fract_y
_atom_site_fract_z
_atom_type_partial_charge
C1    C     C_R   0.597557 0.909811 0.624293 0.524357
C2    C     C_R   0.659864 0.232253 0.065720 -0.125934
C3    C     C_R   0.692348 0.744062 0.918032 -0.026061
C4    C     C_R   0.226880 0.717633 0.977642 -0.001569
C5    C     C_R   0.799451 0.250550 0.072053 -0.004355
C6    C     C_R   0.763981 0.709734 0.008990 -0.008107
C7    C     C_R   0.192348 0.244060 0.918030 -0.026073
C8    C     C_R   0.371590 0.754100 0.077972 0.251269
C9    C     C_R   0.655741 0.210001 0.974636 0.260112
C10   C     C_R   0.623861 0.751066 0.919226 0.253823
C11   C     C_R   0.331371 0.199506 0.005099 0.264250
C12   C     C_R   0.871590 0.254100 0.077973 0.251268
C13   C     C_R   0.635613 0.742093 0.021089 -0.122536
C14   C     C_R   0.155742 0.710000 0.974637 0.260113
C15   C     C_R   0.123859 0.251061 0.919221 0.253828
C16   C     C_R   0.831367 0.699504 0.005095 0.264248
C17   C     C_R   0.339052 0.986156 0.997029 0.009853
C18   C     C_R   0.292956 0.041077 0.968828 -0.088197
C19   C     C_R   0.228176 0.043387 0.976440 -0.115419
C20   C     C_R   0.208729 0.991026 0.012660 -0.096169
C21   C     C_R   0.252478 0.935763 0.038233 -0.093889
C22   C     C_R   0.317346 0.933021 0.030473 -0.100434
C23   C     C_R   0.656477 0.978918 0.001207 0.016806
C24   C     C_R   0.320314 0.217253 0.904950 -0.131395
C25   C     C_R   0.698898 0.025116 0.985845 -0.100318
C26   C     C_R   0.757597 0.008613 0.971301 -0.097663
C27   C     C_R   0.778649 0.946141 0.979309 -0.095089
C28   C     C_R   0.740403 0.900366 0.000811 -0.113076
C29   C     C_R   0.677674 0.916203 0.008148 -0.090608
C30   C     C_R   0.839052 0.486155 0.997029 0.009853
C31   C     C_R   0.792955 0.541076 0.968828 -0.088194
C32   C     C_R   0.728176 0.543387 0.976440 -0.115419
C33   C     C_R   0.708729 0.491026 0.012661 -0.096170
C34   C     C_R   0.752478 0.435763 0.038233 -0.093889
C35   C     C_R   0.864175 0.243644 0.979769 -0.128861
C36   C     C_R   0.817346 0.433020 0.030473 -0.100434
C37   C     C_R   0.156476 0.478916 0.001207 0.016807
C38   C     C_R   0.198898 0.525113 0.985845 -0.100317
C39   C     C_R   0.257598 0.508608 0.971302 -0.097664
C40   C     C_R   0.278649 0.446136 0.979312 -0.095087
C41   C     C_R   0.240402 0.400362 0.000814 -0.113072
C42   C     C_R   0.177673 0.416200 0.008150 -0.090607
C43   C     C_R   0.287029 0.842534 0.419823 0.083877
C44   C     C_R   0.359726 0.831434 0.533307 -0.046841
C45   C     C_R   0.355412 0.830000 0.623326 -0.117982
C46   C     C_R   0.159864 0.732253 0.065720 -0.125934
C47   C     C_R   0.278451 0.836339 0.600592 -0.112664
C48   C     C_R   0.206267 0.848938 0.489148 -0.111063
C49   C     C_R   0.210592 0.852937 0.399349 -0.074329
C50   C     C_R   0.704258 0.170655 0.584196 0.076017
C51   C     C_R   0.770279 0.159732 0.580592 -0.071154
C52   C     C_R   0.756251 0.162726 0.475975 -0.103923
C53   C     C_R   0.676797 0.177763 0.375011 -0.105842
C54   C     C_R   0.612359 0.192495 0.379240 -0.110937
C55   C     C_R   0.625684 0.188622 0.483031 -0.054396
C56   C     C_R   0.688667 0.836501 0.551878 0.055615
C57   C     C_R   0.135612 0.242090 0.021086 -0.122511
C58   C     C_R   0.610999 0.837897 0.440272 -0.039804
C59   C     C_R   0.607889 0.848867 0.344757 -0.086437
C60   C     C_R   0.681800 0.852868 0.357952 -0.122635
C61   C     C_R   0.759235 0.848190 0.467296 -0.120813
C62   C     C_R   0.762849 0.841836 0.563912 -0.094419
C63   C     C_R   0.319416 0.181090 0.425952 0.065288
C64   C     C_R   0.265949 0.172388 0.454070 -0.077269
C65   C     C_R   0.295267 0.184576 0.565378 -0.120805
C66   C     C_R   0.376275 0.208900 0.646587 -0.101009
C67   C     C_R   0.428555 0.219911 0.617528 -0.090848
C68   C     C_R   0.820306 0.717248 0.904941 -0.131402
C69   C     C_R   0.400805 0.205192 0.508169 -0.083264
C70   C     C_R   0.787032 0.342532 0.419827 0.083877
C71   C     C_R   0.859730 0.331433 0.533310 -0.046840
C72   C     C_R   0.855418 0.330001 0.623331 -0.117976
C73   C     C_R   0.778458 0.336338 0.600599 -0.112665
C74   C     C_R   0.706272 0.348934 0.489155 -0.111067
C75   C     C_R   0.710595 0.352934 0.399354 -0.074333
C76   C     C_R   0.204251 0.670660 0.584190 0.076015
C77   C     C_R   0.270270 0.659741 0.580579 -0.071157
C78   C     C_R   0.256237 0.662736 0.475959 -0.103923
C79   C     C_R   0.320230 0.979795 0.660357 -0.146360
C80   C     C_R   0.176779 0.677768 0.374997 -0.105842
C81   C     C_R   0.112343 0.692497 0.379232 -0.110936
C82   C     C_R   0.125673 0.688624 0.483027 -0.054400
C83   C     C_R   0.188674 0.336505 0.551885 0.055623
C84   C     C_R   0.111006 0.337898 0.440278 -0.039811
C85   C     C_R   0.107896 0.348866 0.344764 -0.086446
C86   C     C_R   0.181807 0.352872 0.357960 -0.122631
C87   C     C_R   0.259243 0.348198 0.467305 -0.120807
C88   C     C_R   0.262856 0.341845 0.563921 -0.094407
C89   C     C_R   0.819414 0.681087 0.425952 0.065290
C90   C     C_R   0.678160 0.016614 0.335760 -0.144729
C91   C     C_R   0.765946 0.672382 0.454067 -0.077264
C92   C     C_R   0.795262 0.684567 0.565376 -0.120804
C93   C     C_R   0.876269 0.708891 0.646587 -0.101013
C94   C     C_R   0.928549 0.719906 0.617531 -0.090851
C95   C     C_R   0.900801 0.705190 0.508171 -0.083264
C96   C     C_3   0.493790 0.708437 0.224599 -0.146045
C97   C     C_3   0.535620 0.149715 0.898754 -0.163821
C98   C     C_3   0.509187 0.708607 0.755717 -0.153800
C99   C     C_3   0.463709 0.155059 0.086398 -0.158018
C100  C     C_3   0.993789 0.208438 0.224603 -0.146049
C101  C     C_R   0.820230 0.479794 0.660357 -0.146360
C102  C     C_3   0.035621 0.649713 0.898756 -0.163822
C103  C     C_3   0.009211 0.208620 0.755653 -0.153820
C104  C     C_3   0.963706 0.655059 0.086390 -0.158020
C105  C     C_R   0.250930 0.949377 0.772834 0.039692
C106  C     C_R   0.230489 0.887601 0.780155 -0.094273
C107  C     C_R   0.146707 0.869514 0.721263 -0.111692
C108  C     C_R   0.082725 0.913195 0.655565 -0.109201
C109  C     C_R   0.102528 0.975043 0.649131 -0.119657
C110  C     C_R   0.186280 0.993238 0.707731 -0.101601
C111  C     C_R   0.747774 0.027874 0.221926 0.034356
C112  C     C_R   0.397060 0.086706 0.368035 0.532954
C113  C     C_R   0.178160 0.516613 0.335761 -0.144730
C114  C     C_R   0.808838 0.981059 0.271762 -0.084737
C115  C     C_R   0.893610 0.997166 0.333475 -0.117210
C116  C     C_R   0.917857 0.059931 0.346840 -0.119990
C117  C     C_R   0.857424 0.106705 0.299111 -0.123703
C118  C     C_R   0.772669 0.090744 0.237138 -0.108045
C119  C     C_R   0.750930 0.449376 0.772834 0.039692
C120  C     C_R   0.730489 0.387601 0.780155 -0.094272
C121  C     C_R   0.646706 0.369513 0.721262 -0.111691
C122  C     C_R   0.582724 0.413194 0.655563 -0.109201
C123  C     C_R   0.602527 0.475042 0.649130 -0.119657
C124  C     C_R   0.349653 0.992883 0.598942 0.446294
C125  C     C_R   0.686280 0.493237 0.707730 -0.101602
C126  C     C_R   0.247774 0.527873 0.221924 0.034355
C127  C     C_R   0.308838 0.481058 0.271760 -0.084736
C128  C     C_R   0.393610 0.497165 0.333472 -0.117211
C129  C     C_R   0.417857 0.559930 0.346835 -0.119988
C130  C     C_R   0.357423 0.606704 0.299106 -0.123700
C131  C     C_R   0.272668 0.590743 0.237136 -0.108047
C132  C     C_3   0.787404 0.002205 0.576746 -0.137795
C133  C     C_3   0.217095 0.016923 0.427118 -0.141024
C134  C     C_3   0.287409 0.502219 0.576748 -0.137795
C135  C     C_R   0.649946 0.008716 0.399734 0.454237
C136  C     C_3   0.717093 0.516919 0.427117 -0.141025
C137  C     C_R   0.849653 0.492883 0.598942 0.446295
C138  C     C_R   0.149947 0.508716 0.399735 0.454237
C139  C     C_R   0.488264 0.000586 0.775331 -0.021544
C140  C     C_R   0.510762 0.995256 0.225147 -0.025921
C141  C     C_R   0.988263 0.500585 0.775331 -0.021545
C142  C     C_R   0.010762 0.495257 0.225147 -0.025915
C143  C     C_R   0.461996 0.989852 0.844249 -0.038406
C144  C     C_R   0.400356 0.910477 0.374108 0.520897
C145  C     C_R   0.536099 0.997774 0.154300 -0.044610
C146  C     C_R   0.961996 0.489851 0.844249 -0.038407
C147  C     C_R   0.036099 0.497774 0.154300 -0.044608
C148  C     C_R   0.374800 0.978842 0.781761 -0.030871
C149  C     C_R   0.623197 0.009507 0.214872 -0.035590
C150  C     C_R   0.874800 0.478842 0.781761 -0.030871
C151  C     C_R   0.123197 0.509506 0.214871 -0.035589
C152  C     C_R   0.517170 0.991503 0.970001 -0.013662
C153  C     C_R   0.480516 0.990177 0.028798 -0.013111
C154  C     C_R   0.017170 0.491502 0.970001 -0.013662
C155  C     C_R   0.603014 0.087451 0.630756 0.532472
C156  C     C_R   0.980516 0.490176 0.028798 -0.013111
C157  C     C_R   0.390610 0.979769 0.958574 -0.024042
C158  C     C_R   0.607253 0.996706 0.039518 -0.034057
C159  C     C_R   0.890609 0.479768 0.958574 -0.024042
C160  C     C_R   0.107253 0.496704 0.039517 -0.034057
C161  C     C_R   0.341307 0.968735 0.839216 -0.012780
C162  C     C_R   0.657007 0.011608 0.157026 -0.019995
C163  C     C_R   0.841307 0.468734 0.839216 -0.012780
C164  C     C_R   0.157007 0.511606 0.157025 -0.019996
C165  C     C_R   0.664177 0.137454 0.708759 -0.034598
C166  C     C_R   0.097557 0.409811 0.624293 0.524361
C167  C     C_R   0.347671 0.854162 0.311636 -0.040981
C168  C     C_R   0.335579 0.134896 0.287300 -0.028910
C169  C     C_R   0.644191 0.850908 0.679956 -0.034415
C170  C     C_R   0.164176 0.637454 0.708758 -0.034597
C171  C     C_R   0.847672 0.354162 0.311637 -0.040983
C172  C     C_R   0.835579 0.634896 0.287300 -0.028912
C173  C     C_R   0.144194 0.350909 0.679959 -0.034411
C174  C     C_R   0.785515 0.204764 0.786040 -0.148146
C175  C     C_R   0.225977 0.789105 0.238849 -0.142581
C176  C     C_R   0.221153 0.205625 0.218419 -0.144817
C177  C     C_R   0.897060 0.586706 0.368035 0.532954
C178  C     C_R   0.749221 0.775561 0.729052 -0.140495
C179  C     C_R   0.285513 0.704766 0.786037 -0.148150
C180  C     C_R   0.725978 0.289104 0.238850 -0.142581
C181  C     C_R   0.721153 0.705625 0.218421 -0.144817
C182  C     C_R   0.249231 0.275568 0.729062 -0.140497
C183  C     C_R   0.718618 0.169260 0.694501 -0.019207
C184  C     C_R   0.287090 0.830545 0.321862 -0.015986
C185  C     C_R   0.289448 0.170832 0.308520 -0.019876
C186  C     C_R   0.693219 0.822011 0.654304 -0.018390
C187  C     C_R   0.218615 0.669262 0.694498 -0.019205
C188  C     C_R   0.900356 0.410477 0.374108 0.520897
C189  C     C_R   0.787091 0.330544 0.321864 -0.015985
C190  C     C_R   0.789447 0.670832 0.308521 -0.019877
C191  C     C_R   0.193225 0.322015 0.654311 -0.018389
C192  C     C_R   0.669375 0.152129 0.804841 -0.118239
C193  C     C_R   0.355065 0.824938 0.234037 -0.134434
C194  C     C_R   0.323304 0.145094 0.184535 -0.096115
C195  C     C_R   0.640626 0.822788 0.762934 -0.118387
C196  C     C_R   0.169376 0.652128 0.804842 -0.118236
C197  C     C_R   0.855065 0.324938 0.234038 -0.134435
C198  C     C_R   0.823303 0.645094 0.184535 -0.096120
C199  C     C_R   0.103014 0.587451 0.630756 0.532471
C200  C     C_R   0.140628 0.322788 0.762935 -0.118429
C201  C     C_R   0.727636 0.195749 0.887781 0.013036
C202  C     C_R   0.297219 0.778521 0.156609 0.013703
C203  C     C_R   0.266832 0.189877 0.103474 0.018437
C204  C     C_R   0.692276 0.771875 0.830802 0.011601
C205  C     C_R   0.227636 0.695749 0.887781 0.013037
C206  C     C_R   0.797219 0.278521 0.156610 0.013702
C207  C     C_R   0.766831 0.689878 0.103475 0.018438
C208  C     C_R   0.192280 0.271876 0.830804 0.011563
C209  C     C_R   0.792025 0.215753 0.883820 -0.031346
C210  C     C_R   0.364174 0.743645 0.979768 -0.128864
C211  C     C_R   0.228616 0.765636 0.154735 -0.029576
C212  C     C_R   0.208002 0.213324 0.114709 -0.030229
C213  C     C_R   0.752784 0.753624 0.820348 -0.019372
C214  C     C_R   0.292024 0.715753 0.883819 -0.031346
C215  C     C_R   0.728616 0.265636 0.154735 -0.029576
C216  C     C_R   0.708002 0.713325 0.114711 -0.030224
C217  C     C_R   0.252792 0.253628 0.820355 -0.019368
C218  C     C_R   0.726880 0.217634 0.977641 -0.001569
C219  C     C_R   0.299451 0.750550 0.072053 -0.004354
C220  C     C_R   0.263983 0.209733 0.008990 -0.008101
Cu1   Cu    Cu3+1 0.526640 0.000000 0.436960 1.004284
Cu2   Cu    Cu3+1 0.473360 0.000000 0.563040 1.013304
Cu3   Cu    Cu3+1 0.026640 0.500000 0.436960 1.004287
Cu4   Cu    Cu3+1 0.973360 0.500000 0.563040 1.013303
H1    H     H_    0.417640 0.753140 0.982135 0.118380
H2    H     H_    0.630807 0.125769 0.817912 0.188134
H3    H     H_    0.444317 0.717849 0.677097 0.127231
H4    H     H_    0.505531 0.670937 0.804914 0.112879
H5    H     H_    0.495933 0.193739 0.076944 0.105741
H6    H     H_    0.431729 0.122690 0.012457 0.109639
H7    H     H_    0.512694 0.127545 0.163231 0.152421
H8    H     H_    0.956973 0.172274 0.231024 0.121372
H9    H     H_    0.053100 0.216294 0.312715 0.134539
H10   H     H_    0.010820 0.191193 0.171655 0.114443
H11   H     H_    0.996603 0.676743 0.912115 0.100768
H12   H     H_    0.078262 0.618646 0.973929 0.110876
H13   H     H_    0.602198 0.844221 0.780398 0.191843
H14   H     H_    0.992053 0.620260 0.822538 0.156630
H15   H     H_    0.045072 0.192632 0.727033 0.124206
H16   H     H_    0.944304 0.217839 0.677110 0.127222
H17   H     H_    0.005661 0.170885 0.804846 0.112873
H18   H     H_    0.995926 0.693742 0.076933 0.105743
H19   H     H_    0.931727 0.622689 0.012451 0.109641
H20   H     H_    0.012694 0.627547 0.163224 0.152419
H21   H     H_    0.279669 0.853665 0.832070 0.105212
H22   H     H_    0.131469 0.821721 0.727012 0.118432
H23   H     H_    0.017846 0.899207 0.610121 0.096153
H24   H     H_    0.355446 0.115407 0.166057 0.198247
H25   H     H_    0.053001 0.008946 0.599083 0.100561
H26   H     H_    0.201008 0.041341 0.702748 0.090500
H27   H     H_    0.790673 0.932382 0.262724 0.101672
H28   H     H_    0.940541 0.961024 0.371297 0.102023
H29   H     H_    0.983508 0.072323 0.394779 0.090677
H30   H     H_    0.876219 0.155306 0.310490 0.118512
H31   H     H_    0.726336 0.127090 0.201494 0.102322
H32   H     H_    0.779669 0.353664 0.832070 0.105212
H33   H     H_    0.631468 0.321720 0.727011 0.118430
H34   H     H_    0.517846 0.399206 0.610119 0.096153
H35   H     H_    0.901568 0.343243 0.227798 0.178266
H36   H     H_    0.553001 0.508945 0.599081 0.100564
H37   H     H_    0.701008 0.541340 0.702747 0.090502
H38   H     H_    0.290673 0.432381 0.262723 0.101672
H39   H     H_    0.440540 0.461023 0.371293 0.102023
H40   H     H_    0.483507 0.572322 0.394771 0.090680
H41   H     H_    0.376218 0.655305 0.310484 0.118518
H42   H     H_    0.226336 0.627089 0.201493 0.102323
H43   H     H_    0.797488 0.962116 0.541141 0.106564
H44   H     H_    0.818225 0.991388 0.668239 0.136208
H45   H     H_    0.818967 0.044049 0.574520 0.097931
H46   H     H_    0.130809 0.625767 0.817915 0.188132
H47   H     H_    0.174032 0.979111 0.413843 0.107685
H48   H     H_    0.191396 0.035918 0.341182 0.136032
H49   H     H_    0.217889 0.055384 0.476959 0.086561
H50   H     H_    0.297502 0.462124 0.541162 0.106572
H51   H     H_    0.318242 0.491417 0.668252 0.136194
H52   H     H_    0.318954 0.544066 0.574491 0.097926
H53   H     H_    0.674033 0.479105 0.413844 0.107687
H54   H     H_    0.691393 0.535913 0.341180 0.136031
H55   H     H_    0.717884 0.555379 0.476956 0.086561
H56   H     H_    0.102195 0.344217 0.780394 0.191842
H57   H     H_    0.855444 0.615407 0.166056 0.198250
H58   H     H_    0.331537 0.725457 0.779932 0.106517
H59   H     H_    0.674902 0.274981 0.239089 0.099208
H60   H     H_    0.681260 0.729627 0.231282 0.108188
H61   H     H_    0.605904 0.227770 0.063330 0.094696
H62   H     H_    0.291906 0.256829 0.717590 0.095619
H63   H     H_    0.831540 0.225454 0.779937 0.106533
H64   H     H_    0.174901 0.774983 0.239086 0.099210
H65   H     H_    0.181260 0.229628 0.231280 0.108187
H66   H     H_    0.791893 0.756820 0.717576 0.095624
H67   H     H_    0.447900 0.990267 0.192989 0.161837
H68   H     H_    0.550774 0.012123 0.810469 0.150660
H69   H     H_    0.947899 0.490268 0.192989 0.161837
H70   H     H_    0.050774 0.512122 0.810469 0.150659
H71   H     H_    0.254326 0.969417 0.611746 0.107465
H72   H     H_    0.585534 0.753776 0.024138 0.119464
H73   H     H_    0.743560 0.027721 0.381190 0.101927
H74   H     H_    0.754326 0.469416 0.611746 0.107464
H75   H     H_    0.243561 0.527718 0.381189 0.101921
H76   H     H_    0.302318 0.080262 0.931479 0.111841
H77   H     H_    0.191165 0.085162 0.950636 0.106413
H78   H     H_    0.157854 0.992640 0.017176 0.103486
H79   H     H_    0.233299 0.894629 0.059387 0.125108
H80   H     H_    0.347886 0.889102 0.044582 0.114148
H81   H     H_    0.688321 0.073865 0.988975 0.108938
H82   H     H_    0.789136 0.044438 0.958437 0.110663
H83   H     H_    0.368226 0.208511 0.896408 0.086459
H84   H     H_    0.826315 0.933339 0.972199 0.107768
H85   H     H_    0.761247 0.852831 0.014927 0.122311
H86   H     H_    0.650063 0.880317 0.027509 0.116838
H87   H     H_    0.802318 0.580260 0.931477 0.111845
H88   H     H_    0.691165 0.585161 0.950637 0.106411
H89   H     H_    0.657855 0.492639 0.017178 0.103485
H90   H     H_    0.733299 0.394628 0.059388 0.125109
H91   H     H_    0.847886 0.389101 0.044582 0.114150
H92   H     H_    0.188321 0.573862 0.988973 0.108937
H93   H     H_    0.289137 0.544432 0.958438 0.110660
H94   H     H_    0.917640 0.253139 0.982137 0.118387
H95   H     H_    0.326315 0.433334 0.972203 0.107770
H96   H     H_    0.261247 0.352827 0.014934 0.122316
H97   H     H_    0.150061 0.380315 0.027511 0.116835
H98   H     H_    0.419034 0.821907 0.551649 0.112169
H99   H     H_    0.411168 0.822699 0.710763 0.170377
H100  H     H_    0.275197 0.832114 0.669796 0.115327
H101  H     H_    0.146849 0.855043 0.472184 0.105040
H102  H     H_    0.153508 0.861681 0.312995 0.090638
H103  H     H_    0.832016 0.147604 0.658269 0.078378
H104  H     H_    0.806662 0.152658 0.472975 0.094847
H105  H     H_    0.105904 0.727769 0.063330 0.094696
H106  H     H_    0.665248 0.177979 0.293675 0.088677
H107  H     H_    0.552082 0.207295 0.302544 0.157259
H108  H     H_    0.574993 0.200161 0.484757 0.087640
H109  H     H_    0.552901 0.831355 0.427413 0.118487
H110  H     H_    0.548225 0.854260 0.260135 0.162998
H111  H     H_    0.679044 0.860118 0.283562 0.107589
H112  H     H_    0.816681 0.851405 0.477717 0.102757
H113  H     H_    0.823857 0.840654 0.648185 0.095973
H114  H     H_    0.202048 0.155999 0.390155 0.074023
H115  H     H_    0.254545 0.176209 0.587672 0.093242
H116  H     H_    0.085533 0.253774 0.024135 0.119477
H117  H     H_    0.398416 0.220321 0.731607 0.110811
H118  H     H_    0.490224 0.240470 0.678945 0.160557
H119  H     H_    0.441897 0.214159 0.486501 0.083997
H120  H     H_    0.919038 0.321908 0.551651 0.112159
H121  H     H_    0.911175 0.322701 0.710768 0.170386
H122  H     H_    0.775205 0.332113 0.669805 0.115326
H123  H     H_    0.646854 0.355038 0.472193 0.105041
H124  H     H_    0.653510 0.361676 0.313001 0.090638
H125  H     H_    0.332010 0.647617 0.658255 0.078351
H126  H     H_    0.306645 0.652671 0.472953 0.094852
H127  H     H_    0.868215 0.708503 0.896396 0.086458
H128  H     H_    0.165225 0.677983 0.293658 0.088673
H129  H     H_    0.052062 0.707293 0.302538 0.157270
H130  H     H_    0.074983 0.700159 0.484758 0.087638
H131  H     H_    0.052908 0.331352 0.427418 0.118481
H132  H     H_    0.048231 0.354257 0.260140 0.163002
H133  H     H_    0.179051 0.360122 0.283570 0.107588
H134  H     H_    0.316689 0.351417 0.477727 0.102752
H135  H     H_    0.323863 0.340665 0.648194 0.095971
H136  H     H_    0.702045 0.655992 0.390151 0.074022
H137  H     H_    0.754540 0.676196 0.587668 0.093241
H138  H     H_    0.401568 0.843243 0.227797 0.178263
H139  H     H_    0.898409 0.720310 0.731608 0.110804
H140  H     H_    0.990217 0.740466 0.678950 0.160563
H141  H     H_    0.941894 0.714159 0.486506 0.083995
H142  H     H_    0.456974 0.672270 0.231013 0.121370
H143  H     H_    0.553099 0.716292 0.312713 0.134544
H144  H     H_    0.510825 0.691197 0.171652 0.114438
H145  H     H_    0.496601 0.176745 0.912112 0.100769
H146  H     H_    0.578260 0.118647 0.973926 0.110876
H147  H     H_    0.492051 0.120263 0.822534 0.156630
H148  H     H_    0.545094 0.692519 0.727221 0.124160
N1    N     N_R   0.433280 0.000000 0.657760 -0.223452
N2    N     N_R   0.566720 0.000000 0.342240 -0.225596
N3    N     N_R   0.933280 0.500000 0.657760 -0.223452
N4    N     N_R   0.066720 0.500000 0.342240 -0.225596
O1    O     O_R   0.600040 0.935040 0.546740 -0.459787
O2    O     O_R   0.444990 0.064930 0.346780 -0.515511
O3    O     O_R   0.444990 0.935070 0.346780 -0.535041
O4    O     O_R   0.555010 0.064930 0.653220 -0.521512
O5    O     O_R   0.055010 0.435070 0.653220 -0.514667
O6    O     O_R   0.944990 0.564930 0.346780 -0.515512
O7    O     O_R   0.944990 0.435070 0.346780 -0.535038
O8    O     O_R   0.055010 0.564930 0.653220 -0.521511
O9    O     O_3   0.450302 0.765400 0.180577 -0.616638
O10   O     O_3   0.578797 0.190174 0.875164 -0.605713
O11   O     O_3   0.543906 0.763977 0.820449 -0.608186
O12   O     O_R   0.399960 0.064960 0.453260 -0.441794
O13   O     O_3   0.408882 0.179268 0.104552 -0.597536
O14   O     O_3   0.950303 0.265401 0.180577 -0.616640
O15   O     O_3   0.078798 0.690172 0.875165 -0.605713
O16   O     O_3   0.043902 0.263971 0.820447 -0.608193
O17   O     O_3   0.908877 0.679264 0.104545 -0.597541
O18   O     O_3   0.701463 0.013518 0.519265 -0.508782
O19   O     O_3   0.297830 0.992921 0.479320 -0.510490
O20   O     O_3   0.201463 0.513515 0.519266 -0.508772
O21   O     O_3   0.797830 0.492921 0.479320 -0.510489
O22   O     O_R   0.399960 0.935040 0.453260 -0.445946
O23   O     O_R   0.600040 0.064960 0.546740 -0.430321
O24   O     O_R   0.100040 0.435040 0.546740 -0.459782
O25   O     O_R   0.899960 0.564960 0.453260 -0.441793
O26   O     O_R   0.899960 0.435040 0.453260 -0.445946
O27   O     O_R   0.100040 0.564960 0.546740 -0.430322
O28   O     O_R   0.555010 0.935070 0.653220 -0.514667

loop_
_geom_bond_atom_site_label_1
_geom_bond_atom_site_label_2
_ccdc_geom_bond_type
C9    C218  A    
C172  C177  S    
C105  C110  A    
C102  H12   S    
C126  C127  A    
C177  O6    A    
C113  C151  A    
C100  H10   S    
Cu3   Cu4   S    
C197  H35   S    
C114  C115  A    
C44   C45   A    
C150  C163  A    
C109  H25   S    
C111  C118  A    
C38   H92   S    
C37   C160  S    
C133  H47   S    
C106  C107  A    
C174  C209  A    
C23   C158  S    
C47   H100  S    
C108  C109  A    
C73   C74   A    
C37   C42   A    
C67   H118  S    
C79   H71   S    
C146  C150  A    
C84   H131  S    
C19   C20   A    
C170  C187  A    
C28   H85   S    
C7    C15   A    
C83   C88   A    
C59   C60   A    
C200  C208  A    
C194  H24   S    
C21   C22   A    
C173  C200  A    
C3    C204  A    
C197  C206  A    
C30   C159  S    
C77   H125  S    
Cu1   O1    S    
C45   C47   A    
C25   H81   S    
C54   H107  S    
C165  C183  A    
C92   H137  S    
C176  C185  A    
C136  H55   S    
C5    C12   A    
C101  C137  A    
C172  C190  A    
C97   H146  S    
C173  C191  A    
C46   H105  S    
C20   H78   S    
C176  C212  A    
C21   H79   S    
C98   O11   S    
C22   H80   S    
C43   C44   A    
C37   C38   A    
C198  H57   S    
C181  C190  A    
C44   H98   S    
C16   O17   S    
C146  C154  A    
C4    C219  A    
C180  H59   S    
C68   C213  A    
C94   H140  S    
C40   H95   S    
C188  O26   A    
C171  C188  S    
C97   O10   S    
C11   O13   S    
C56   C62   A    
C29   H86   S    
C39   C40   A    
C104  O17   S    
C208  C217  A    
C13   H72   S    
C178  C213  A    
C180  C215  A    
C72   C73   A    
C140  C145  A    
C201  C218  A    
C99   H7    S    
C79   C148  A    
C30   C36   A    
C130  C131  A    
C104  H20   S    
C64   C65   A    
C140  H67   S    
Cu4   O25   S    
C141  H70   S    
C155  C165  S    
C114  H27   S    
C179  C214  A    
C207  C216  A    
C181  C216  A    
C4    C14   A    
C118  H31   S    
C6    C16   A    
C178  C186  A    
C179  C187  A    
C20   C21   A    
C124  N1    A    
C149  C162  A    
C96   H142  S    
Cu1   O3    S    
C74   H123  S    
C155  O4    A    
C179  H58   S    
C147  C151  A    
Cu1   O23   S    
C202  C211  A    
C3    C6    A    
C128  C129  A    
C57   H116  S    
C169  C195  A    
C85   C86   A    
C112  O12   A    
Cu3   O6    S    
C75   H124  S    
C23   C29   A    
C180  C189  A    
C38   C39   A    
C78   C80   A    
C132  H44   S    
C115  C116  A    
C165  C192  A    
C27   H84   S    
C128  H39   S    
C137  O21   S    
C33   H89   S    
C130  H41   S    
C139  C143  A    
C167  C184  A    
C103  H16   S    
C144  O22   A    
C89   C190  S    
C172  C198  A    
C175  C211  A    
C89   C91   A    
C129  H40   S    
C17   C157  S    
C48   H101  S    
Cu4   N3    S    
C66   C67   A    
C177  O25   A    
C85   H132  S    
C93   H139  S    
C134  H51   S    
C167  C193  A    
C8    C210  A    
C201  C209  A    
C170  C199  S    
C99   H5    S    
C35   H94   S    
C143  C148  A    
C133  H49   S    
C144  C167  S    
Cu4   O8    S    
C76   C82   A    
C91   C92   A    
C1    O28   A    
C41   H96   S    
C31   H87   S    
C25   C26   A    
C86   H133  S    
C32   H88   S    
C135  O18   S    
C136  H54   S    
C60   H111  S    
Cu1   Cu2   S    
C83   C84   A    
C91   H136  S    
C17   C18   A    
C12   C35   A    
C96   H144  S    
C2    H61   S    
C7    C220  A    
C26   H82   S    
C134  O20   S    
C105  C161  S    
C65   H115  S    
C61   H112  S    
C52   C53   A    
C99   O13   S    
C129  C130  A    
C10   O11   S    
C198  C207  A    
C142  C147  A    
C195  H13   S    
C199  O27   A    
C80   H128  S    
C104  H19   S    
C79   C124  A    
C127  H38   S    
C24   H83   S    
C71   C72   A    
C8    C219  A    
C117  C118  A    
C132  H43   S    
C170  C196  A    
C90   C135  A    
C51   H103  S    
C140  N2    A    
C56   C58   A    
C34   C36   A    
C106  H21   S    
C61   C62   A    
C68   H127  S    
C63   C64   A    
C102  H11   S    
C152  C153  A    
C182  C217  A    
C151  C164  A    
C95   H141  S    
C125  H37   S    
C70   C75   A    
C176  H65   S    
C2    C9    A    
C188  O7    A    
C121  H33   S    
C206  C215  A    
C155  O23   A    
C87   C88   A    
C112  O2    A    
C52   H104  S    
C18   H76   S    
Cu3   N4    S    
C178  H66   S    
C87   H134  S    
C41   C42   A    
C107  H22   S    
C98   H148  S    
C4    C205  A    
C14   C46   A    
C77   C78   A    
C110  H26   S    
C64   H114  S    
C26   C27   A    
C93   C94   A    
C138  O20   S    
C203  C220  A    
C55   H108  S    
C160  C164  A    
C83   C191  S    
C28   C29   A    
C169  C186  A    
C133  O19   S    
C30   C31   A    
C123  C125  A    
C138  N4    A    
C97   H145  S    
C46   C211  A    
Cu3   O7    S    
C101  C150  A    
C88   H135  S    
C18   C19   A    
C5    C206  A    
C54   C55   A    
Cu2   O12   S    
C63   C185  S    
C192  C201  A    
C196  H46   S    
C70   C71   A    
C154  C156  A    
C24   C217  A    
C2    C215  A    
C113  H75   S    
C72   H121  S    
C100  H9    S    
C111  C162  S    
C81   H129  S    
C78   H126  S    
C139  H68   S    
C116  H29   S    
C156  C159  A    
C152  C158  A    
C84   C85   A    
C181  H60   S    
C132  H45   S    
C34   H90   S    
C86   C87   A    
C7    C208  A    
C133  H48   S    
C195  C204  A    
C58   C59   A    
C53   C54   A    
C193  C202  A    
C51   C52   A    
C60   C61   A    
C89   C95   A    
C45   H99   S    
Cu4   O26   S    
C5    C218  A    
C53   H106  S    
C66   H117  S    
C50   C51   A    
C147  C156  A    
C121  C122  A    
C76   C187  S    
C141  C146  A    
C119  C125  A    
C48   C49   A    
C141  N3    A    
C56   C186  S    
C182  C191  A    
C127  C128  A    
C157  C161  A    
C8    O9    S    
Cu1   O2    S    
Cu3   O24   S    
C102  O15   S    
C166  C173  S    
C58   H109  S    
C174  C183  A    
C119  C120  A    
C123  H36   S    
C97   H147  S    
C105  C106  A    
C17   C22   A    
C49   H102  S    
C32   C33   A    
C101  H74   S    
C109  C110  A    
C82   H130  S    
C104  H18   S    
C174  H63   S    
C59   H110  S    
C92   C93   A    
C100  O14   S    
C111  C114  A    
C142  N4    A    
C175  H64   S    
C153  C157  A    
C94   C95   A    
C39   H93   S    
C200  H56   S    
C139  N1    A    
C166  O5    A    
C103  H15   S    
C113  C138  A    
C145  C149  A    
C70   C189  S    
C175  C184  A    
Cu2   O22   S    
C103  O16   S    
C136  O21   S    
C134  H52   S    
C11   C24   A    
C50   C183  S    
C81   C82   A    
C131  H42   S    
C142  H69   S    
C108  H23   S    
C148  C161  A    
C13   C216  A    
C62   H113  S    
Cu4   O5    S    
Cu2   O28   S    
C112  C168  S    
C43   C184  S    
Cu3   O27   S    
C116  C117  A    
C171  C189  A    
C196  C205  A    
C122  H34   S    
Cu2   O4    S    
C19   H77   S    
C16   C68   A    
C145  C153  A    
C192  H2    S    
C57   C212  A    
C168  C194  A    
C15   C57   A    
C90   C149  A    
C126  C164  S    
C144  O3    A    
C98   H4    S    
Cu2   N1    S    
C1    O1    A    
C102  H14   S    
C74   C75   A    
C71   H120  S    
C63   C69   A    
C100  H8    S    
C76   C77   A    
C98   H3    S    
C119  C163  S    
C43   C49   A    
C115  H28   S    
C210  C214  A    
C166  O24   A    
C204  C213  A    
C96   O9    S    
C67   C69   A    
C202  C219  A    
C120  H32   S    
C154  C160  A    
C182  H62   S    
C117  H30   S    
C124  O19   S    
C47   C48   A    
C107  C108  A    
C36   H91   S    
C33   C34   A    
C9    O10   S    
C135  N2    A    
C6    C207  A    
C90   H73   S    
C40   C41   A    
C73   H122  S    
C134  H50   S    
C210  H1    S    
C159  C163  A    
C203  C212  A    
C14   O15   S    
C132  O18   S    
C99   H6    S    
C143  C152  A    
C168  C185  A    
C31   C32   A    
C80   C81   A    
C10   C13   A    
C205  C214  A    
C42   H97   S    
C50   C55   A    
C69   H119  S    
C136  H53   S    
C35   C209  A    
C171  C197  A    
C3    C10   A    
C12   O14   S    
C126  C131  A    
C194  C203  A    
C1    C169  S    
C103  H17   S    
C23   C25   A    
C137  N3    A    
C96   H143  S    
C199  O8    A    
Cu1   N2    S    
C158  C162  A    
C193  H138  S    
C65   C66   A    
C27   C28   A    
C120  C121  A    
C15   O16   S    
C122  C123  A    
C11   C220  A    
