data_mof_unit_22494.cif
_audit_creation_date              2012-12-10T19:09:36-0500
_audit_creation_method            fapswitch 2.2
_symmetry_space_group_name_H-M    P1
_symmetry_Int_Tables_number       1
_space_group_crystal_system       triclinic
_cell_length_a                    9.542412
_cell_length_b                    10.841916
_cell_length_c                    17.118143
_cell_angle_alpha                 89.203912
_cell_angle_beta                  93.816922
_cell_angle_gamma                 90.263198
_cell_volume                      1766.89846448

loop_
_atom_site_label
_atom_site_type_symbol
_atom_type_description
_atom_site_fract_x
_atom_site_fract_y
_atom_site_fract_z
_atom_type_partial_charge
C1    C     C_R   0.499968 0.262312 0.501667 0.804589
C2    C     C_R   0.657742 0.495272 0.779096 -0.220038
C3    C     C_R   0.589068 0.489896 0.141642 -0.158781
C4    C     C_R   0.596500 0.491694 0.222940 -0.244368
C5    C     C_R   0.457454 0.493221 0.098952 0.386587
C6    C     C_R   0.473455 0.497338 0.263238 -0.026429
C7    C     C_R   0.342447 0.498850 0.220781 -0.222067
C8    C     C_R   0.334920 0.497037 0.139253 -0.197193
C9    C     C_R   0.626801 0.064193 0.514497 0.134726
C10   C     C_R   0.500363 0.129181 0.509776 -0.130664
C11   C     C_R   0.374072 0.063594 0.516370 -0.211799
C12   C     C_R   0.517330 0.498200 0.650877 0.798938
C13   C     C_R   0.374163 0.934936 0.516188 -0.213969
C14   C     C_R   0.500487 0.870802 0.509229 -0.099104
C15   C     C_R   0.626409 0.937010 0.513672 0.087200
C16   C     C_3   0.747557 0.932117 0.463026 -0.480993
C17   C     C_3   0.748891 0.072333 0.463900 -0.031643
C18   C     C_R   0.065938 0.525602 0.432899 0.260978
C19   C     C_R   0.081751 0.463084 0.564301 -0.081045
C20   C     C_R   0.933172 0.463807 0.564466 -0.103566
C21   C     C_R   0.918459 0.524453 0.432652 0.257453
C22   C     C_3   0.907455 0.640102 0.384684 -0.509446
C23   C     C_R   0.500235 0.737757 0.501360 0.809118
C24   C     C_3   0.066462 0.642236 0.385870 -0.498062
C25   C     C_R   0.482675 0.500249 0.349115 0.795762
C26   C     C_R   0.526591 0.496606 0.736754 -0.025125
C27   C     C_R   0.403409 0.496194 0.777155 -0.237653
C28   C     C_R   0.410966 0.494632 0.858481 -0.157856
C29   C     C_R   0.542741 0.493475 0.901079 0.385758
C30   C     C_R   0.665313 0.493715 0.860669 -0.196818
Cu1   Cu    Cu3+1 0.640670 0.499980 0.500000 0.938045
Cu2   Cu    Cu3+1 0.359330 0.500020 0.500000 0.940154
H1    H     H_    0.698859 0.488079 0.254088 0.152705
H2    H     H_    0.274767 0.886555 0.517512 0.162917
H3    H     H_    0.840906 0.888540 0.494311 0.205167
H4    H     H_    0.717388 0.894564 0.404131 0.172853
H5    H     H_    0.721589 0.115561 0.405557 0.165307
H6    H     H_    0.142738 0.433960 0.616673 0.139761
H7    H     H_    0.884350 0.435236 0.616947 0.142901
H8    H     H_    0.856463 0.624959 0.325391 0.189827
H9    H     H_    0.863701 0.716903 0.416898 0.214030
H10   H     H_    0.106340 0.628917 0.327148 0.189562
H11   H     H_    0.686332 0.485902 0.112644 0.149968
H12   H     H_    0.114790 0.720642 0.419255 0.212132
H13   H     H_    0.767146 0.492875 0.892657 0.136922
H14   H     H_    0.754409 0.495500 0.749343 0.151070
H15   H     H_    0.245835 0.501172 0.250364 0.150299
H16   H     H_    0.313648 0.494501 0.887578 0.149939
H17   H     H_    0.233148 0.498876 0.107211 0.136839
H18   H     H_    0.300805 0.497180 0.746042 0.152291
H19   H     H_    0.274633 0.111058 0.517694 0.167405
N1    N     N_2   0.556985 0.492706 0.984063 -0.268852
N2    N     N_2   0.443300 0.493088 0.015982 -0.268997
N3    N     N_R   0.147870 0.500930 0.499500 -0.184738
N4    N     N_R   0.851960 0.500890 0.499500 -0.185692
O1    O     O_R   0.618810 0.319640 0.500000 -0.581241
O2    O     O_R   0.381230 0.319680 0.499990 -0.581752
O3    O     O_R   0.631790 0.498830 0.613930 -0.591670
O4    O     O_R   0.394210 0.498870 0.613920 -0.592528
O5    O     O_R   0.618770 0.680320 0.500010 -0.573734
O6    O     O_R   0.381190 0.680360 0.500000 -0.584113
O7    O     O_R   0.605790 0.501130 0.386080 -0.585957
O8    O     O_R   0.368210 0.501170 0.386070 -0.584247
C31   C     C_3   0.881403 0.126103 0.506110 -0.826592
H20   H     H_    0.973758 0.106458 0.472166 0.227128
H21   H     H_    0.871127 0.227353 0.510443 0.253761
H22   H     H_    0.899814 0.086065 0.566038 0.234642

loop_
_geom_bond_atom_site_label_1
_geom_bond_atom_site_label_2
_ccdc_geom_bond_type
Cu1   O5    S    
C14   C23   S    
C5    C8    A    
C29   C30   A    
C19   H6    S    
C1    O2    A    
Cu1   O1    S    
C18   C21   A    
C24   H10   S    
C9    C10   A    
C30   H13   S    
Cu1   Cu2   S    
C27   H18   S    
C2    C30   A    
C12   O3    A    
C31   H20   S    
C19   C20   A    
C9    C15   A    
C22   H8    S    
C13   H2    S    
C2    C26   A    
C17   H5    S    
C21   C22   S    
C16   H4    S    
C11   C13   A    
Cu1   O7    S    
C3    H11   S    
C26   C27   A    
C6    C7    A    
Cu2   O2    S    
C20   N4    A    
C18   C24   S    
C19   N3    A    
Cu2   N3    S    
C28   C29   A    
C1    O1    A    
Cu2   O6    S    
C9    C17   S    
C25   O7    A    
C16   H3    S    
C23   O5    A    
C24   H12   S    
C22   C24   S    
C6    C25   S    
C11   H19   S    
C10   C11   A    
C18   N3    A    
C7    H15   S    
C3    C4    A    
C22   H9    S    
C31   H22   S    
C23   O6    A    
N1    N2    D    
Cu1   O3    S    
C4    C6    A    
C7    C8    A    
C25   O8    A    
C5    N2    S    
C27   C28   A    
C21   N4    A    
C20   H7    S    
C14   C15   A    
C28   H16   S    
C17   C31   S    
C4    H1    S    
Cu2   O4    S    
Cu1   N4    S    
C13   C14   A    
C12   O4    A    
C8    H17   S    
C2    H14   S    
C1    C10   S    
C15   C16   S    
Cu2   O8    S    
C12   C26   S    
C16   C17   S    
C3    C5    A    
C29   N1    S    
C31   H21   S    
