data_mof_unit_66929.cif
_audit_creation_date              2013-03-05T15:57:28-0500
_audit_creation_method            fapswitch 2.2
_symmetry_space_group_name_H-M    P1
_symmetry_Int_Tables_number       1
_space_group_crystal_system       triclinic
_cell_length_a                    17.132778
_cell_length_b                    18.243682
_cell_length_c                    8.391953
_cell_angle_alpha                 89.999408
_cell_angle_beta                  101.777559
_cell_angle_gamma                 90.002118
_cell_volume                      2567.80881089

loop_
_atom_site_label
_atom_site_type_symbol
_atom_site_description
_atom_site_fract_x
_atom_site_fract_y
_atom_site_fract_z
_atom_type_partial_charge
P1    P     P_3+3 0.834140 0.419320 0.003900 0.454460
P2    P     P_3+3 0.834140 0.580680 0.503900 0.454613
P3    P     P_3+3 0.334140 0.919320 0.003900 0.454512
P4    P     P_3+3 0.334140 0.080680 0.503900 0.454600
O1    O     O_2   0.841960 0.394640 0.833410 -0.369789
O2    O     O_2   0.841960 0.605360 0.333410 -0.370205
O3    O     O_2   0.341960 0.894640 0.833410 -0.369982
O4    O     O_2   0.341960 0.105360 0.333410 -0.369949
O5    O     O_3   0.907950 0.463080 0.102990 -0.400423
O6    O     O_3   0.907950 0.536920 0.602990 -0.400089
O7    O     O_3   0.407950 0.963080 0.102990 -0.400343
O8    O     O_3   0.407950 0.036920 0.602990 -0.400313
O9    O     O_3   0.972780 0.329600 0.629720 -0.391663
O10   O     O_3   0.972780 0.670400 0.129720 -0.391764
O11   O     O_3   0.472780 0.829600 0.629720 -0.391784
O12   O     O_3   0.472780 0.170400 0.129720 -0.391815
O13   O     O_2   0.840644 0.271130 0.694186 -0.393065
O14   O     O_2   0.840649 0.728868 0.194219 -0.392962
O15   O     O_2   0.340657 0.771112 0.694224 -0.393032
O16   O     O_2   0.340596 0.228803 0.194115 -0.392867
O17   O     O_3   0.750944 0.477062 0.969316 -0.575308
O18   O     O_3   0.750970 0.522899 0.469444 -0.575224
O19   O     O_3   0.250949 0.977067 0.969360 -0.575208
O20   O     O_3   0.250956 0.022918 0.469378 -0.575252
O21   O     O_3   0.944233 0.176498 0.633395 -0.534597
O22   O     O_3   0.944226 0.823503 0.133361 -0.534541
O23   O     O_3   0.444242 0.676495 0.633326 -0.534555
O24   O     O_3   0.444131 0.323505 0.133443 -0.534394
H1    H     H_    0.062817 0.197123 0.729118 0.119147
H2    H     H_    0.062785 0.802856 0.229274 0.119270
H3    H     H_    0.562808 0.697106 0.729243 0.119184
H4    H     H_    0.562602 0.302564 0.229691 0.119657
C1    C     C_3   0.048564 0.101127 0.575776 -0.970468
C2    C     C_3   0.048626 0.898845 0.075909 -0.970544
C3    C     C_3   0.548620 0.601185 0.575672 -0.970668
C4    C     C_3   0.548781 0.398927 0.077465 -0.970921
H5    H     H_    0.612419 0.600630 0.566800 0.240156
H6    H     H_    0.612590 0.399471 0.068676 0.240123
H7    H     H_    0.112333 0.100555 0.566693 0.240219
H8    H     H_    0.112395 0.899391 0.066846 0.240210
H9    H     H_    0.039400 0.062860 0.672855 0.254265
H10   H     H_    0.039478 0.937112 0.172992 0.254291
H11   H     H_    0.539376 0.562856 0.672578 0.254493
H12   H     H_    0.539583 0.436968 0.174932 0.254405
P5    P     P_3+3 0.165830 0.418670 0.685610 0.454537
P6    P     P_3+3 0.165830 0.581330 0.185610 0.454196
P7    P     P_3+3 0.665830 0.918670 0.685610 0.454337
P8    P     P_3+3 0.665830 0.081330 0.185610 0.454331
P9    P     P_3+3 0.101010 0.262334 0.110644 0.474433
P10   P     P_3+3 0.100965 0.737707 0.610655 0.474497
P11   P     P_3+3 0.600964 0.762296 0.110655 0.474442
P12   P     P_3+3 0.601012 0.237668 0.610689 0.474776
O25   O     O_2   0.157990 0.394030 0.856030 -0.373202
O26   O     O_2   0.157990 0.605970 0.356030 -0.372023
O27   O     O_2   0.657990 0.894030 0.856030 -0.372599
O28   O     O_2   0.657990 0.105970 0.356030 -0.372751
O29   O     O_3   0.027110 0.329490 0.059550 -0.363392
O30   O     O_3   0.027110 0.670510 0.559550 -0.363088
O31   O     O_3   0.527110 0.829490 0.059550 -0.363192
O32   O     O_3   0.527110 0.170510 0.559550 -0.362712
O33   O     O_2   0.162156 0.273801 0.000917 -0.404316
O34   O     O_2   0.162040 0.726331 0.500734 -0.404982
O35   O     O_2   0.662057 0.773697 0.000785 -0.404854
O36   O     O_2   0.662120 0.226264 0.500857 -0.404864
O37   O     O_3   0.248950 0.476560 0.720732 -0.572772
O38   O     O_3   0.248945 0.523446 0.221125 -0.572978
O39   O     O_3   0.748958 0.976548 0.720948 -0.573105
O40   O     O_3   0.748955 0.023451 0.220913 -0.573099
O41   O     O_3   0.060921 0.175849 0.052496 -0.605015
O42   O     O_3   0.060801 0.824180 0.552652 -0.604917
O43   O     O_3   0.560812 0.675823 0.052579 -0.604909
O44   O     O_3   0.560929 0.324169 0.552715 -0.605120
C5    C     C_3   0.982226 0.171288 0.076676 1.205829
C6    C     C_3   0.982109 0.828656 0.576863 1.205688
C7    C     C_3   0.482121 0.671323 0.076777 1.205518
C8    C     C_3   0.482310 0.328817 0.577319 1.205970
H13   H     H_    0.941525 0.202373 0.979948 0.034281
H14   H     H_    0.941436 0.797516 0.480185 0.034154
H15   H     H_    0.441450 0.702508 0.980182 0.034187
H16   H     H_    0.441430 0.298056 0.480269 0.033705
C9    C     C_3   0.957742 0.091099 0.068064 -1.035424
C10   C     C_3   0.957518 0.908818 0.568180 -1.035056
C11   C     C_3   0.457518 0.591162 0.067883 -1.034704
C12   C     C_3   0.458135 0.409086 0.569918 -1.036418
H17   H     H_    0.393938 0.586010 0.076581 0.246794
H18   H     H_    0.394524 0.414385 0.578309 0.247296
H19   H     H_    0.894139 0.085898 0.076575 0.246877
H20   H     H_    0.893922 0.913948 0.576769 0.246836
H21   H     H_    0.967243 0.066367 0.952693 0.233327
H22   H     H_    0.966947 0.933544 0.452753 0.233337
H23   H     H_    0.466887 0.566520 0.952333 0.233276
H24   H     H_    0.467833 0.434161 0.455026 0.233057
C13   C     C_3   0.229871 0.456001 0.282709 0.376834
C14   C     C_3   0.230271 0.543659 0.784417 0.378522
C15   C     C_3   0.730199 0.956283 0.284191 0.378187
C16   C     C_3   0.730177 0.043744 0.784057 0.377933
H25   H     H_    0.234155 0.461695 0.415175 0.112735
H26   H     H_    0.236117 0.537526 0.917170 0.112641
H27   H     H_    0.735836 0.962315 0.416911 0.113108
H28   H     H_    0.735692 0.037750 0.916756 0.113133
H29   H     H_    0.169728 0.435811 0.223814 0.118543
H30   H     H_    0.169627 0.563593 0.728527 0.116893
H31   H     H_    0.669616 0.936333 0.227874 0.117168
H32   H     H_    0.669636 0.063716 0.727497 0.117264
C17   C     C_3   0.290287 0.399531 0.252052 -0.887192
C18   C     C_3   0.289685 0.600675 0.751627 -0.889432
C19   C     C_3   0.789735 0.899349 0.251610 -0.889822
C20   C     C_3   0.789799 0.100628 0.751633 -0.889551
H33   H     H_    0.350448 0.424311 0.269773 0.275469
H34   H     H_    0.349801 0.576193 0.765199 0.276816
H35   H     H_    0.849858 0.923874 0.265682 0.276738
H36   H     H_    0.849945 0.076094 0.766251 0.276564
H37   H     H_    0.292033 0.352394 0.336049 0.218260
H38   H     H_    0.292429 0.647298 0.837246 0.217812
H39   H     H_    0.792365 0.852649 0.337006 0.218054
H40   H     H_    0.792280 0.147419 0.836756 0.218117
H41   H     H_    0.273978 0.379748 0.124996 0.276590
H42   H     H_    0.271606 0.621181 0.625526 0.277416
H43   H     H_    0.771863 0.878945 0.125380 0.277283
H44   H     H_    0.772124 0.120893 0.625237 0.277227
Ba1   Ba    Ba6+2 0.000000 0.447380 0.844850 1.555238
Ba2   Ba    Ba6+2 0.000000 0.552620 0.344850 1.555213
Ba3   Ba    Ba6+2 0.500000 0.947380 0.844850 1.555266
Ba4   Ba    Ba6+2 0.500000 0.052620 0.344850 1.555340
C21   C     C_3   0.770598 0.545194 0.912351 0.369734
C22   C     C_3   0.770548 0.454869 0.411848 0.370042
C23   C     C_3   0.270590 0.045185 0.912305 0.369742
C24   C     C_3   0.270587 0.954822 0.412213 0.369870
H45   H     H_    0.773511 0.539832 0.782667 0.107436
H46   H     H_    0.772913 0.460368 0.281913 0.107364
H47   H     H_    0.273444 0.039803 0.782593 0.107235
H48   H     H_    0.273379 0.960237 0.282478 0.107277
H49   H     H_    0.827688 0.567169 0.983359 0.121665
H50   H     H_    0.827892 0.432980 0.481915 0.121137
H51   H     H_    0.327707 0.067155 0.983208 0.121614
H52   H     H_    0.327733 0.932860 0.482996 0.121537
C25   C     C_3   0.705206 0.599147 0.928564 -0.888404
C26   C     C_3   0.705482 0.400704 0.428984 -0.888170
C27   C     C_3   0.205232 0.099158 0.928608 -0.888111
C28   C     C_3   0.205265 0.900814 0.428586 -0.888224
H53   H     H_    0.645918 0.573341 0.888937 0.269879
H54   H     H_    0.646061 0.426482 0.391142 0.270351
H55   H     H_    0.145931 0.073363 0.889084 0.269860
H56   H     H_    0.145949 0.926613 0.389364 0.269950
H57   H     H_    0.708526 0.648490 0.853394 0.211548
H58   H     H_    0.708405 0.351598 0.352832 0.211260
H59   H     H_    0.208534 0.148495 0.853399 0.211463
H60   H     H_    0.208499 0.851536 0.353166 0.211433
H61   H     H_    0.711772 0.615667 0.057552 0.277089
H62   H     H_    0.712836 0.383780 0.557888 0.277068
H63   H     H_    0.211854 0.115690 0.057604 0.277134
H64   H     H_    0.212000 0.884186 0.557542 0.277099
O45   O     O_3   0.092100 0.536880 0.086720 -0.397717
O46   O     O_3   0.092100 0.463120 0.586720 -0.396683
O47   O     O_3   0.592100 0.036880 0.086720 -0.396917
O48   O     O_3   0.592100 0.963120 0.586720 -0.397013
P13   P     P_3+3 0.899950 0.738206 0.079522 0.460440
P14   P     P_3+3 0.899957 0.261789 0.579514 0.460430
P15   P     P_3+3 0.399928 0.238189 0.079501 0.460396
P16   P     P_3+3 0.399956 0.761788 0.579516 0.460445
C29   C     C_3   0.023941 0.178069 0.614208 0.449772
C30   C     C_3   0.023955 0.821913 0.114314 0.450005
C31   C     C_3   0.523967 0.678098 0.614250 0.450235
C32   C     C_3   0.523920 0.321912 0.114816 0.449860
H65   H     H_    0.033625 0.214377 0.513896 0.130587
H66   H     H_    0.033666 0.785596 0.014041 0.130574
H67   H     H_    0.533681 0.714458 0.514049 0.130515
H68   H     H_    0.533666 0.285821 0.014194 0.130677
H69   H     H_    0.511813 0.582527 0.458321 0.288555
H70   H     H_    0.512048 0.417963 0.960373 0.287980
H71   H     H_    0.011676 0.082401 0.458573 0.288486
H72   H     H_    0.011760 0.917587 0.958702 0.288509
H73   H     H_    0.494528 0.560666 0.170381 0.260265
H74   H     H_    0.495191 0.439077 0.673196 0.260285
H75   H     H_    0.994730 0.060726 0.170796 0.260251
H76   H     H_    0.994491 0.939250 0.670834 0.260193
C33   C     C_R   0.136786 0.677673 0.923436 -0.514962
C34   C     C_R   0.136837 0.322385 0.423345 -0.516123
C35   C     C_R   0.636790 0.177659 0.923451 -0.514956
C36   C     C_R   0.636783 0.822326 0.423431 -0.515235
C37   C     C_R   0.862604 0.323269 0.267530 -0.433920
C38   C     C_R   0.862564 0.676705 0.767569 -0.434359
C39   C     C_R   0.362583 0.823287 0.267556 -0.434467
C40   C     C_R   0.362558 0.176702 0.767542 -0.433744
C41   C     C_R   0.791727 0.211763 0.300336 -0.143600
C42   C     C_R   0.791714 0.788227 0.800338 -0.143816
C43   C     C_R   0.291723 0.711767 0.300338 -0.143699
C44   C     C_R   0.291709 0.288222 0.800292 -0.144026
C45   C     C_R   0.847554 0.265300 0.364746 0.301320
C46   C     C_R   0.847528 0.734683 0.864766 0.301430
C47   C     C_R   0.347540 0.765311 0.364760 0.301373
C48   C     C_R   0.347523 0.234680 0.864732 0.301285
C49   C     C_R   0.817107 0.333182 0.110752 0.266365
C50   C     C_R   0.817094 0.666810 0.610759 0.266603
C51   C     C_R   0.317108 0.833184 0.110752 0.266591
C52   C     C_R   0.317082 0.166806 0.610741 0.266712
C53   C     C_R   0.756170 0.281335 0.047137 -0.091114
C54   C     C_R   0.756168 0.718662 0.547118 -0.091027
C55   C     C_R   0.256183 0.781331 0.047112 -0.091012
C56   C     C_R   0.256146 0.218651 0.547107 -0.091094
C57   C     C_R   0.243859 0.719197 0.142981 -0.096922
C58   C     C_R   0.243831 0.280788 0.642961 -0.096757
C59   C     C_R   0.743851 0.219199 0.142998 -0.096817
C60   C     C_R   0.743845 0.780795 0.642985 -0.096871
C61   C     C_R   0.182789 0.667471 0.079417 0.258463
C62   C     C_R   0.182780 0.332534 0.579389 0.259286
C63   C     C_R   0.682779 0.167472 0.079438 0.258532
C64   C     C_R   0.682777 0.832523 0.579420 0.258590
C65   C     C_R   0.152117 0.735315 0.825992 0.298455
C66   C     C_R   0.152108 0.264694 0.325981 0.298343
C67   C     C_R   0.652119 0.235303 0.826027 0.298721
C68   C     C_R   0.652105 0.764678 0.325997 0.298508
C69   C     C_R   0.208461 0.788565 0.889582 -0.201988
C70   C     C_R   0.208411 0.211413 0.389598 -0.202182
C71   C     C_R   0.708438 0.288572 0.889629 -0.202069
C72   C     C_R   0.708447 0.711428 0.389587 -0.202021
H77   H     H_    0.285894 0.665372 0.375984 0.176446
H78   H     H_    0.285893 0.334630 0.875866 0.175832
H79   H     H_    0.785901 0.165365 0.375965 0.176154
H80   H     H_    0.785892 0.834627 0.875967 0.176264
H81   H     H_    0.714848 0.334506 0.813118 0.183001
H82   H     H_    0.714876 0.665508 0.313048 0.182912
H83   H     H_    0.214887 0.834487 0.813047 0.182973
H84   H     H_    0.214822 0.165479 0.313080 0.182994
H85   H     H_    0.091296 0.638085 0.873612 0.175785
H86   H     H_    0.091469 0.362061 0.373394 0.175706
H87   H     H_    0.591329 0.138050 0.873593 0.175757
H88   H     H_    0.591311 0.861924 0.373588 0.175749
H89   H     H_    0.907640 0.363171 0.317915 0.159074
H90   H     H_    0.907567 0.636782 0.817993 0.159069
H91   H     H_    0.407594 0.863207 0.317972 0.159085
H92   H     H_    0.407564 0.136782 0.817964 0.159035
F1    F     F_    0.975654 0.197590 0.227844 -0.771521
F2    F     F_    0.975602 0.802362 0.728074 -0.771563
F3    F     F_    0.475622 0.697538 0.228056 -0.771581
F4    F     F_    0.475759 0.302141 0.728208 -0.771401

loop_
_geom_bond_atom_site_label_1
_geom_bond_atom_site_label_2
_geom_bond_distance
_ccdc_geom_bond_type
P6    C61   1.858478 S    
C67   C71   1.396444 A    
P1    O17   1.748392 S    
P5    C62   1.858516 S    
O10   Ba2   2.783919 S    
C35   C67   1.389597 A    
C20   H44   1.105603 S    
P3    O19   1.748383 S    
O7    Ba4   2.822829 S    
C2    H10   1.108093 S    
P8    O28   1.530980 D    
P4    O4    1.531648 D    
O6    Ba1   2.822872 S    
C54   C72   1.411493 A    
C28   H60   1.107343 S    
C54   C60   1.430425 A    
C2    H72   1.108923 S    
Ba3   Ba4   4.614359 S    
C70   H84   1.074917 S    
Ba3   O47   2.822809 S    
C26   H62   1.107135 S    
C34   C66   1.389644 A    
C1    H7    1.110653 S    
C7    H15   1.111645 S    
O11   Ba3   2.783921 S    
P7    C64   1.858544 S    
C18   H38   1.108228 S    
P1    O1    1.531659 D    
O15   P16   1.544987 D    
O28   Ba4   2.859904 S    
C25   H57   1.107333 S    
C3    H5    1.110681 S    
C23   H51   1.111112 S    
P6    O38   1.748886 S    
P3    O3    1.531659 D    
C24   H52   1.111110 S    
C43   H77   1.074828 S    
P4    O20   1.748393 S    
C49   C53   1.429005 A    
O18   C22   1.397397 S    
P7    O48   1.585594 S    
C14   H26   1.103693 S    
C21   H49   1.111114 S    
O1    Ba1   2.856595 S    
P9    O29   1.751125 S    
P4    Ba4   3.415697 S    
O22   P13   1.749617 S    
C36   C68   1.389693 A    
C33   C65   1.389684 A    
O32   Ba4   2.783188 S    
P13   C46   1.843371 S    
C25   H53   1.107288 S    
P12   O32   1.751150 S    
O23   C31   1.407633 S    
C30   H66   1.109922 S    
P5    O37   1.748952 S    
C37   C45   1.391536 A    
P11   C68   1.840918 S    
C38   H90   1.082066 S    
C14   C18   1.519239 S    
C60   C64   1.428999 A    
P10   C65   1.840936 S    
O21   C29   1.407621 S    
O16   P15   1.544953 D    
P9    C66   1.840668 S    
P2    O18   1.748413 S    
P12   C67   1.840718 S    
C39   C51   1.397387 A    
C12   H24   1.109912 S    
C40   C48   1.391469 A    
O41   C5    1.406254 S    
C38   C50   1.397381 A    
P4    O8    1.580749 S    
C3    H11   1.108123 S    
C28   H64   1.107023 S    
C5    F1    1.382238 S    
C53   C71   1.411417 A    
C52   C56   1.429063 A    
O25   Ba1   2.859973 S    
C9    H21   1.109870 S    
C33   H85   1.082028 S    
C28   H56   1.107302 S    
C16   C20   1.519157 S    
P7    O27   1.530968 D    
P5    O25   1.530968 D    
P9    O41   1.749989 S    
C18   H42   1.105416 S    
O12   P15   1.746529 S    
C35   H87   1.082037 S    
Ba2   O46   2.822853 S    
C17   H41   1.106165 S    
P2    O2    1.531648 D    
P11   O43   1.750015 S    
C6    C10   1.519561 S    
C12   H74   1.108592 S    
C24   H48   1.103919 S    
C22   H50   1.111139 S    
C19   H43   1.105464 S    
C15   H31   1.110361 S    
C51   C55   1.429000 A    
Ba3   O48   2.942808 S    
P2    Ba2   3.415697 S    
O31   Ba3   2.783186 S    
H3    C31   1.110031 S    
C8    C12   1.519667 S    
O30   Ba2   2.783188 S    
O40   C15   1.398732 S    
P9    O33   1.543662 D    
Ba1   O46   2.942808 S    
O10   P13   1.746471 S    
C42   C60   1.411592 A    
P10   O30   1.751081 S    
C68   C72   1.396463 A    
C32   H68   1.109966 S    
P11   O35   1.543669 D    
Ba1   O45   2.822809 S    
C40   H92   1.082065 S    
C8    F4    1.382336 S    
C26   H54   1.107472 S    
P14   C45   1.843358 S    
C37   H89   1.082058 S    
O20   C24   1.397335 S    
C22   H46   1.103963 S    
O4    Ba4   2.856661 S    
P5    Ba1   3.417920 S    
O23   P16   1.749617 S    
C40   C52   1.397357 A    
C42   H80   1.074796 S    
O22   C30   1.407618 S    
O24   P15   1.749585 S    
P3    C51   1.861557 S    
C20   H36   1.107106 S    
C44   C58   1.411505 A    
C3    C31   1.519212 S    
C42   C46   1.396402 A    
C1    C29   1.519199 S    
O42   C6    1.406214 S    
P12   O44   1.749958 S    
H1    C29   1.110037 S    
C27   H63   1.107055 S    
O9    Ba1   2.783921 S    
C19   H35   1.107023 S    
C39   H91   1.082063 S    
P7    Ba3   3.417920 S    
C33   C61   1.395745 A    
C35   C63   1.395662 A    
C31   H67   1.109916 S    
C27   H59   1.107368 S    
P6    O26   1.530980 D    
O5    Ba2   2.822829 S    
P1    O5    1.580710 S    
O44   C8    1.406299 S    
P7    O39   1.748939 S    
P8    O40   1.748954 S    
C7    F3    1.382216 S    
O13   P14   1.544981 D    
C19   H39   1.108268 S    
Ba1   Ba2   4.614359 S    
C9    H19   1.110531 S    
C15   C19   1.519214 S    
C5    C9    1.519540 S    
O38   C13   1.398850 S    
O37   C14   1.398723 S    
C25   H61   1.107026 S    
P8    O47   1.585555 S    
C10   H76   1.108528 S    
C34   C62   1.395675 A    
Ba4   O48   2.822853 S    
P12   O36   1.543662 D    
O39   C16   1.398727 S    
P10   O34   1.543675 D    
Ba2   O45   2.942825 S    
C2    H8    1.110617 S    
C4    H12   1.108209 S    
C6    F2    1.382213 S    
O2    Ba2   2.856661 S    
C13   H29   1.110760 S    
C4    H6    1.110677 S    
C1    H71   1.108948 S    
O27   Ba3   2.859973 S    
C13   H25   1.103917 S    
O9    P14   1.746419 S    
C37   C49   1.397377 A    
O24   C32   1.407547 S    
C55   C57   1.430413 A    
C18   H34   1.106997 S    
C17   H37   1.108452 S    
P4    C52   1.861496 S    
C16   H32   1.110393 S    
C17   H33   1.107374 S    
C22   C26   1.518295 S    
C5    H13   1.111635 S    
C41   H79   1.074772 S    
P1    Ba1   3.415661 S    
C11   H17   1.110489 S    
C58   C62   1.429032 A    
C55   C69   1.411490 A    
C43   C47   1.396381 A    
C56   C70   1.411446 A    
C8    H16   1.111728 S    
P16   C47   1.843347 S    
C12   H18   1.110560 S    
C2    C30   1.519205 S    
C39   C47   1.391527 A    
P8    Ba4   3.417884 S    
C41   C45   1.396374 A    
C44   H78   1.074619 S    
H2    C30   1.110035 S    
C11   H23   1.109827 S    
C43   C57   1.411591 A    
O19   C23   1.397349 S    
C4    H70   1.108961 S    
C10   H22   1.109838 S    
C44   C48   1.396404 A    
C21   C25   1.518166 S    
C20   H40   1.108337 S    
C23   H47   1.103930 S    
C11   H73   1.108527 S    
O12   Ba4   2.783919 S    
C1    H9    1.108123 S    
O11   P16   1.746431 S    
C13   C17   1.519130 S    
O14   P13   1.544978 D    
C66   C70   1.396503 A    
C41   C59   1.411550 A    
O43   C7    1.406200 S    
C69   H83   1.074890 S    
C7    C11   1.519571 S    
C50   C54   1.429037 A    
O8    Ba3   2.822872 S    
C59   C63   1.428980 A    
C26   H58   1.107502 S    
C10   H20   1.110489 S    
P15   C48   1.843372 S    
H4    C32   1.110113 S    
P8    C63   1.858363 S    
P3    Ba3   3.415661 S    
C3    H69   1.108981 S    
C36   H88   1.082030 S    
C53   C59   1.430388 A    
C15   H27   1.103643 S    
P6    O45   1.585555 S    
C16   H28   1.103650 S    
C65   C69   1.396440 A    
P10   O42   1.750021 S    
C34   H86   1.082055 S    
C72   H82   1.074902 S    
P3    O7    1.580710 S    
O29   Ba1   2.783186 S    
C21   H45   1.103919 S    
O26   Ba2   2.859904 S    
P11   O31   1.751093 S    
C14   H30   1.110349 S    
C56   C58   1.430377 A    
C6    H14   1.111650 S    
Ba4   O47   2.942825 S    
O21   P14   1.749604 S    
C4    C32   1.519295 S    
C57   C61   1.428950 A    
P1    C49   1.861599 S    
P6    Ba2   3.417884 S    
C27   H55   1.107304 S    
P5    O46   1.585594 S    
C38   C46   1.391519 A    
P2    C50   1.861589 S    
C36   C64   1.395734 A    
O17   C21   1.397334 S    
C23   C27   1.518154 S    
C9    H75   1.108546 S    
C29   H65   1.109932 S    
C71   H81   1.074858 S    
O3    Ba3   2.856595 S    
C24   C28   1.518184 S    
P2    O6    1.580749 S    
