data_mof_unit_41603.cif
_audit_creation_date              2012-12-10T17:52:20-0500
_audit_creation_method            fapswitch 2.2
_symmetry_space_group_name_H-M    P1
_symmetry_Int_Tables_number       1
_space_group_crystal_system       triclinic
_cell_length_a                    19.075793
_cell_length_b                    10.677548
_cell_length_c                    9.871138
_cell_angle_alpha                 90.045331
_cell_angle_beta                  89.87131
_cell_angle_gamma                 91.417331
_cell_volume                      2009.9592509

loop_
_atom_site_label
_atom_site_type_symbol
_atom_type_description
_atom_site_fract_x
_atom_site_fract_y
_atom_site_fract_z
_atom_type_partial_charge
C1    C     C_R   0.508676 0.261263 0.500668 0.904788
C2    C     C_R   0.289502 0.475310 0.502779 -0.093956
C3    C     C_R   0.927751 0.403354 0.507032 0.282602
C4    C     C_R   0.069294 0.398287 0.509732 0.323524
C5    C     C_R   0.816756 0.448849 0.625938 -0.147428
C6    C     C_R   0.746318 0.477368 0.623660 -0.140196
C7    C     C_R   0.710227 0.480415 0.500277 -0.040009
C8    C     C_R   0.745664 0.455903 0.378876 -0.188638
C9    C     C_R   0.816307 0.427615 0.381092 -0.152557
C10   C     C_R   0.852329 0.423842 0.504722 0.084213
C11   C     C_R   0.544595 0.113172 0.753536 0.295895
C12   C     C_R   0.365251 0.496461 0.500392 0.869353
C13   C     C_R   0.522791 0.057908 0.875306 -0.154584
C14   C     C_R   0.479878 0.950757 0.873678 -0.220106
C15   C     C_R   0.465272 0.890917 0.751024 -0.164730
C16   C     C_R   0.491427 0.941236 0.627592 0.061384
C17   C     C_R   0.520151 0.062834 0.628185 0.032226
C18   C     C_R   0.520155 0.128595 0.503507 -0.092932
C19   C     C_R   0.514354 0.064563 0.380506 -0.213159
C20   C     C_R   0.502963 0.937560 0.380548 -0.212382
C21   C     C_R   0.491698 0.874777 0.503178 -0.112814
C22   C     C_R   0.409350 0.333766 0.140657 -0.173881
C23   C     C_R   0.494664 0.740212 0.500675 0.884312
C24   C     C_R   0.365314 0.251030 0.070296 -0.209398
C25   C     C_R   0.365445 0.250859 0.930168 -0.198197
C26   C     C_R   0.409466 0.333656 0.859703 -0.165780
C27   C     C_R   0.455444 0.417838 0.927663 0.181786
C28   C     C_R   0.455431 0.417882 0.072515 0.165179
C29   C     C_R   0.542497 0.578740 0.071502 -0.124589
C30   C     C_R   0.542466 0.578730 0.928109 -0.095016
C31   C     C_R   0.634743 0.498206 0.499860 0.887320
C32   C     C_R   0.256010 0.449261 0.626343 -0.306127
C33   C     C_R   0.184213 0.421486 0.631420 0.512561
C34   C     C_R   0.145816 0.416093 0.509233 -0.020910
C35   C     C_R   0.180149 0.440149 0.385373 -0.236592
C36   C     C_R   0.251318 0.469899 0.382179 -0.204847
H1    H     H_    0.285611 0.448149 0.719664 0.173226
H2    H     H_    0.539819 0.097149 0.971275 0.164491
H3    H     H_    0.461027 0.910272 0.967873 0.152550
H4    H     H_    0.432523 0.806855 0.753961 0.167640
H5    H     H_    0.502308 0.889044 0.284064 0.167846
H6    H     H_    0.577141 0.642990 0.125512 0.148326
H7    H     H_    0.405344 0.329083 0.247949 0.210000
H8    H     H_    0.330540 0.187244 0.125021 0.160004
H9    H     H_    0.330772 0.186979 0.875520 0.167144
H10   H     H_    0.405487 0.329070 0.752449 0.205166
H11   H     H_    0.577055 0.643014 0.873816 0.152007
H12   H     H_    0.151828 0.438140 0.290454 0.173731
H13   H     H_    0.276431 0.487676 0.285296 0.171235
H14   H     H_    0.843310 0.447500 0.722749 0.154221
H15   H     H_    0.720029 0.495531 0.718799 0.175338
H16   H     H_    0.718690 0.456699 0.282449 0.164973
H17   H     H_    0.842638 0.409545 0.286024 0.155372
H18   H     H_    0.516919 0.112720 0.283923 0.173765
N1    N     N_R   0.033641 0.386930 0.391423 -0.183166
N2    N     N_R   0.964096 0.389381 0.390063 -0.176330
N3    N     N_R   0.963226 0.410382 0.625567 -0.180217
N4    N     N_R   0.032652 0.408118 0.626755 -0.124979
N5    N     N_R   0.499340 0.498800 0.142780 -0.120753
N6    N     N_R   0.499320 0.498720 0.857170 -0.111912
O1    O     O_R   0.500000 0.316780 0.614690 -0.613530
O2    O     O_R   0.499990 0.316750 0.385360 -0.646822
O3    O     O_R   0.398140 0.500000 0.614700 -0.648784
O4    O     O_R   0.398130 0.499970 0.385370 -0.638012
O5    O     O_R   0.500010 0.683250 0.614640 -0.626033
O6    O     O_R   0.500000 0.683220 0.385310 -0.619214
O7    O     O_R   0.601870 0.500030 0.614630 -0.585437
O8    O     O_R   0.601860 0.500000 0.385300 -0.620635
Zn1   Zn    Zn3+2 0.500000 0.500020 0.653130 0.955876
Zn2   Zn    Zn3+2 0.500000 0.499980 0.346870 0.936664
Br1   Br    Br    0.620536 0.234467 0.764854 -0.532903
O9    O     O_3   0.152979 0.387765 0.753571 -0.606985
C37   C     C_3   0.156150 0.488287 0.847600 0.115170
H19   H     H_    0.101621 0.512365 0.875095 0.178627
H20   H     H_    0.181986 0.576251 0.808905 0.113887
C38   C     C_3   0.193470 0.447310 0.975809 -0.850277
H21   H     H_    0.248751 0.425266 0.952874 0.255960
H22   H     H_    0.192886 0.523939 0.051877 0.206412
H23   H     H_    0.166627 0.362980 0.019225 0.270041

loop_
_geom_bond_atom_site_label_1
_geom_bond_atom_site_label_2
_ccdc_geom_bond_type
N1    N2    A    
C16   C21   A    
C29   H6    S    
C37   H19   S    
C19   C20   A    
C38   H23   S    
C2    C12   S    
C1    O2    A    
C20   H5    S    
C7    C8    A    
C31   O7    A    
C26   C27   A    
C23   O6    A    
C38   H22   S    
C34   C35   A    
C27   N6    A    
O3    Zn1   S    
C5    C6    A    
C12   O4    A    
C11   Br1   S    
O1    Zn1   S    
C15   C16   A    
O2    Zn2   S    
C2    C32   A    
C18   C19   A    
C33   O9    S    
C14   H3    S    
C35   C36   A    
C8    C9    A    
C30   N6    A    
O4    Zn2   S    
C6    H15   S    
C9    C10   A    
C8    H16   S    
C22   C28   A    
C13   C14   A    
C37   H20   S    
C35   H12   S    
C33   C34   A    
C31   O8    A    
C4    C34   S    
C7    C31   S    
C29   N5    A    
C30   H11   S    
C38   H21   S    
C12   O3    A    
C16   C17   A    
C25   C26   A    
O7    Zn1   S    
C29   C30   A    
C3    N2    A    
C22   H7    S    
C17   C18   A    
C1    C18   S    
C32   H1    S    
C24   C25   A    
C13   H2    S    
C3    N3    A    
C19   H18   S    
C21   C23   S    
C4    N1    A    
C24   H8    S    
C37   C38   S    
C22   C24   A    
C5    H14   S    
C9    H17   S    
C25   H9    S    
C28   N5    A    
C2    C36   A    
C11   C17   A    
O9    C37   S    
C1    O1    A    
C6    C7    A    
C32   C33   A    
C23   O5    A    
C5    C10   A    
C3    C10   S    
C11   C13   A    
N3    N4    A    
O6    Zn2   S    
N6    Zn1   S    
O5    Zn1   S    
C15   H4    S    
C26   H10   S    
N5    Zn2   S    
C20   C21   A    
O8    Zn2   S    
C4    N4    A    
C27   C28   A    
C14   C15   A    
C36   H13   S    
