data_mof_unit_43238.cif
_audit_creation_date              2012-12-11T14:46:25-0500
_audit_creation_method            fapswitch 2.2
_symmetry_space_group_name_H-M    P1
_symmetry_Int_Tables_number       1
_space_group_crystal_system       triclinic
_cell_length_a                    17.448936
_cell_length_b                    17.531787
_cell_length_c                    6.934339
_cell_angle_alpha                 90.219189
_cell_angle_beta                  90.085165
_cell_angle_gamma                 90.010704
_cell_volume                      2121.272876

loop_
_atom_site_label
_atom_site_type_symbol
_atom_type_description
_atom_site_fract_x
_atom_site_fract_y
_atom_site_fract_z
_atom_type_partial_charge
O1    O     O_R   0.796490 0.328940 0.373020 -0.550474
O2    O     O_R   0.203510 0.671060 0.626980 -0.550502
O3    O     O_R   0.203510 0.828940 0.626980 -0.554829
O4    O     O_R   0.796490 0.171060 0.373020 -0.559009
O5    O     O_R   0.805560 0.173330 0.702970 -0.511908
O6    O     O_R   0.194440 0.826670 0.297030 -0.516044
O7    O     O_R   0.194440 0.673330 0.297030 -0.525941
O8    O     O_R   0.805560 0.326670 0.702970 -0.514113
O9    O     O_R   0.658440 0.172360 0.870170 -0.535761
O10   O     O_R   0.341560 0.827640 0.129830 -0.534632
O11   O     O_R   0.341560 0.672360 0.129830 -0.535411
O12   O     O_R   0.658440 0.327640 0.870170 -0.536362
C1    C     C_R   0.822403 0.144627 0.534309 0.731709
C2    C     C_R   0.177204 0.855050 0.465867 0.751191
C3    C     C_R   0.176314 0.645925 0.465173 0.751625
C4    C     C_R   0.823615 0.354026 0.534579 0.736411
H1    H     H_    0.090385 0.078824 0.758243 0.203247
H2    H     H_    0.907908 0.919724 0.244439 0.207192
H3    H     H_    0.894792 0.597650 0.336062 0.207104
H4    H     H_    0.104634 0.403604 0.674008 0.206899
O13   O     O_3   0.679200 0.250000 0.537050 -0.373271
O14   O     O_3   0.320800 0.750000 0.462950 -0.371408
V1    V     V_3+5 0.736420 0.250000 0.813120 1.486992
V2    V     V_3+5 0.263580 0.750000 0.186880 1.461618
O15   O     O_R   0.649370 0.327980 0.199650 -0.539768
O16   O     O_R   0.350630 0.672020 0.800350 -0.540115
O17   O     O_R   0.350630 0.827980 0.800350 -0.541723
O18   O     O_R   0.649370 0.172020 0.199650 -0.542580
C5    C     C_R   0.630551 0.354432 0.030494 0.719972
C6    C     C_R   0.369434 0.645556 0.969502 0.721023
C7    C     C_R   0.369410 0.854434 0.969913 0.725148
C8    C     C_R   0.630592 0.145564 0.030087 0.720562
V3    V     V_3+5 0.718510 0.250000 0.312740 1.423694
V4    V     V_3+5 0.281490 0.750000 0.687260 1.424633
O19   O     O_3   0.775740 0.250000 0.038930 -0.364947
O20   O     O_3   0.224260 0.750000 0.961070 -0.372291
C9    C     C_1   0.574171 0.083169 0.018105 -0.167971
C10   C     C_1   0.425835 0.916826 0.981897 -0.168243
C11   C     C_1   0.425871 0.583155 0.980941 -0.168883
C12   C     C_1   0.574101 0.416824 0.019049 -0.171790
C13   C     C_1   0.527480 0.030878 0.006873 0.033001
C14   C     C_1   0.472528 0.969115 0.993130 0.033188
C15   C     C_1   0.472530 0.530869 0.992655 0.039015
C16   C     C_1   0.527435 0.469105 0.007330 0.038291
C17   C     C_R   0.876838 0.079296 0.518548 -0.231406
C18   C     C_R   0.122132 0.919814 0.482411 -0.237447
C19   C     C_R   0.121548 0.581186 0.477113 -0.234525
C20   C     C_R   0.879140 0.417908 0.520834 -0.220765
C21   C     C_R   0.078484 0.032977 0.657442 -0.154633
C22   C     C_R   0.919986 0.965597 0.344995 -0.137920
C23   C     C_R   0.912421 0.544304 0.400648 -0.119633
C24   C     C_R   0.087739 0.455709 0.602068 -0.124908
C25   C     C_R   0.136579 0.980116 0.614998 -0.099965
C26   C     C_R   0.862307 0.019163 0.385578 -0.103154
C27   C     C_R   0.856849 0.487998 0.436455 -0.103534
C28   C     C_R   0.142744 0.513076 0.572980 -0.104545
C29   C     C_R   0.051456 0.917878 0.382478 0.428571
C30   C     C_R   0.946864 0.080134 0.621212 0.395599
C31   C     C_R   0.956727 0.406118 0.570883 0.423998
C32   C     C_R   0.045788 0.589671 0.407929 0.412810
C33   C     C_R   0.992547 0.970468 0.431405 -0.036752
C34   C     C_R   0.005863 0.027788 0.571630 -0.038625
C35   C     C_R   0.011453 0.464867 0.541859 -0.044015
C36   C     C_R   0.989817 0.533155 0.448942 -0.042603
O21   O     O_3   0.959874 0.136566 0.757612 -0.559107
C37   C     C_3   0.941291 0.107499 0.941297 -0.154548
H5    H     H_    0.943543 0.154915 0.047534 0.158111
H6    H     H_    0.983495 0.063869 0.987716 0.110527
H7    H     H_    0.882327 0.083267 0.945680 0.147827
O22   O     O_3   0.037729 0.860091 0.250143 -0.545960
C38   C     C_3   0.055693 0.887285 0.064111 -0.167364
H8    H     H_    0.013020 0.930027 0.015192 0.113889
H9    H     H_    0.053655 0.838739 0.961210 0.157455
H10   H     H_    0.114403 0.912046 0.056882 0.145188
O23   O     O_3   0.025365 0.656263 0.314244 -0.547733
C39   C     C_3   0.029102 0.643196 0.113358 -0.150435
H11   H     H_    0.985698 0.600638 0.065668 0.119680
H12   H     H_    0.087179 0.624283 0.067409 0.131863
H13   H     H_    0.016487 0.697475 0.038111 0.174158
O24   O     O_3   0.979168 0.336799 0.647602 -0.550091
C40   C     C_3   0.003163 0.288855 0.495031 -0.185155
H14   H     H_    0.045148 0.317186 0.397843 0.124192
H15   H     H_    0.953145 0.268143 0.410268 0.123436
H16   H     H_    0.032508 0.238513 0.556894 0.200188
C41   C     C_2   0.786040 0.009818 0.292082 0.394792
H17   H     H_    0.736479 0.040441 0.346042 0.047554
O25   O     O_2   0.777362 0.967079 0.154258 -0.533624
C42   C     C_2   0.213094 0.990206 0.706743 0.391658
H18   H     H_    0.262763 0.960082 0.651603 0.045905
O26   O     O_2   0.221848 0.032998 0.844442 -0.535913
C43   C     C_2   0.222867 0.500020 0.639148 0.401451
H19   H     H_    0.268460 0.538778 0.598592 0.038912
O27   O     O_2   0.239244 0.445226 0.739349 -0.525156
C44   C     C_2   0.775389 0.503412 0.385798 0.415332
H20   H     H_    0.730525 0.463772 0.426156 0.032491
O28   O     O_2   0.757110 0.561056 0.298732 -0.520608

loop_
_geom_bond_atom_site_label_1
_geom_bond_atom_site_label_2
_ccdc_geom_bond_type
C30   C34   A    
C20   C27   A    
C37   H6    S    
O12   C5    A    
C13   C14   S    
C39   H13   S    
C3    C19   S    
C15   C16   S    
C4    C20   S    
C40   H14   S    
O1    V3    S    
C2    C18   S    
C41   H17   S    
O12   V1    S    
C22   C26   A    
C39   H12   S    
C10   C14   T    
C37   H7    S    
O6    C2    A    
O7    V2    S    
O11   V2    S    
O8    V1    S    
C18   C25   A    
O4    C1    A    
O9    C8    A    
C19   C32   A    
O10   C7    A    
O16   V4    S    
C28   C43   S    
O11   C6    A    
O22   C38   S    
C29   O22   S    
O5    C1    A    
O2    V4    S    
O7    C3    A    
C37   H5    S    
O8    C4    A    
C44   H20   S    
C27   C44   S    
C40   H15   S    
C41   O25   D    
O17   V4    S    
O15   C5    A    
O14   V4    S    
C17   C30   A    
O17   C7    A    
O18   C8    A    
C39   H11   S    
H1    C21   S    
C43   H19   S    
C38   H9    S    
O9    V1    S    
C11   C15   T    
O3    V4    S    
O10   V2    S    
O23   C39   S    
C43   O27   D    
C30   O21   S    
O5    V1    S    
O6    V2    S    
O1    C4    A    
V2    O20   S    
C8    C9    S    
C44   O28   D    
O2    C3    A    
C38   H10   S    
O3    C2    A    
C42   O26   D    
C17   C26   A    
O16   C6    A    
V1    O19   S    
O13   V1    S    
C18   C29   A    
O14   V2    S    
C40   H16   S    
H2    C22   S    
C20   C31   A    
O4    V3    S    
C21   C34   A    
C23   C36   A    
O24   C40   S    
C24   C35   A    
C31   O24   S    
O18   V3    S    
C26   C41   S    
C29   C33   A    
C32   O23   S    
C31   C35   A    
C7    C10   S    
C32   C36   A    
C38   H8    S    
H4    C24   S    
C1    C17   S    
C21   C25   A    
C5    C12   S    
V3    O19   S    
V4    O20   S    
C6    C11   S    
C25   C42   S    
C23   C27   A    
C9    C13   T    
C33   C34   A    
C35   C36   A    
H3    C23   S    
C12   C16   T    
O13   V3    S    
C42   H18   S    
O21   C37   S    
C22   C33   A    
C24   C28   A    
O15   V3    S    
C19   C28   A    
