data_mof_unit_19226.cif
_audit_creation_date              2012-12-11T16:26:31-0500
_audit_creation_method            fapswitch 2.2
_symmetry_space_group_name_H-M    P1
_symmetry_Int_Tables_number       1
_space_group_crystal_system       monoclinic
_cell_length_a                    14.028642
_cell_length_b                    14.02864
_cell_length_c                    31.921887
_cell_angle_alpha                 90.0
_cell_angle_beta                  90.0
_cell_angle_gamma                 120.000244
_cell_volume                      5440.6316408

loop_
_atom_site_label
_atom_site_type_symbol
_atom_type_description
_atom_site_fract_x
_atom_site_fract_y
_atom_site_fract_z
_atom_type_partial_charge
C1    C     C_R   0.568076 0.443797 0.810619 0.546512
C2    C     C_R   0.443797 0.568076 0.189381 0.546513
C3    C     C_R   0.431924 0.875721 0.310619 0.546511
C4    C     C_R   0.124279 0.556203 0.189381 0.546512
C5    C     C_1   0.004168 0.523538 0.018719 0.079673
C6    C     C_1   0.519370 0.995832 0.481281 0.079673
C7    C     C_1   0.476461 0.480629 0.018719 0.079674
C8    C     C_1   0.004168 0.523538 0.481281 0.079673
C9    C     C_1   0.519370 0.995832 0.018719 0.079673
C10   C     C_1   0.476461 0.480629 0.481281 0.079674
C11   C     C_1   0.523538 0.004168 0.518719 0.079673
C12   C     C_R   0.875721 0.431924 0.689381 0.546512
C13   C     C_1   0.995832 0.519370 0.981281 0.079673
C14   C     C_1   0.480629 0.476461 0.518719 0.079674
C15   C     C_1   0.523538 0.004168 0.981281 0.079673
C16   C     C_1   0.995832 0.519370 0.518719 0.079673
C17   C     C_1   0.480629 0.476461 0.981281 0.079673
C18   C     C_R   0.929079 0.469351 0.851792 -0.044451
C19   C     C_R   0.540272 0.070921 0.648207 -0.044451
C20   C     C_R   0.530649 0.459727 0.851792 -0.044451
C21   C     C_R   0.929079 0.469351 0.648207 -0.044451
C22   C     C_R   0.540272 0.070921 0.851792 -0.044451
C23   C     C_R   0.556203 0.124279 0.810619 0.546512
C24   C     C_R   0.530649 0.459727 0.648207 -0.044451
C25   C     C_R   0.469351 0.929079 0.351793 -0.044451
C26   C     C_R   0.070921 0.540272 0.148207 -0.044451
C27   C     C_R   0.459727 0.530648 0.351793 -0.044451
C28   C     C_R   0.469351 0.929079 0.148207 -0.044451
C29   C     C_R   0.070921 0.540272 0.351793 -0.044451
C30   C     C_R   0.459727 0.530648 0.148207 -0.044451
C31   C     C_R   0.928256 0.557977 0.872129 -0.092335
C32   C     C_R   0.629721 0.071743 0.627870 -0.092334
C33   C     C_R   0.442022 0.370278 0.872129 -0.092334
C34   C     C_R   0.568076 0.443797 0.689381 0.546512
C35   C     C_R   0.928256 0.557977 0.627870 -0.092334
C36   C     C_R   0.629721 0.071744 0.872129 -0.092335
C37   C     C_R   0.442022 0.370278 0.627870 -0.092334
C38   C     C_R   0.557977 0.928256 0.372130 -0.092335
C39   C     C_R   0.071743 0.629721 0.127870 -0.092334
C40   C     C_R   0.370278 0.442022 0.372130 -0.092334
C41   C     C_R   0.557977 0.928256 0.127870 -0.092334
C42   C     C_R   0.071743 0.629721 0.372129 -0.092334
C43   C     C_R   0.370278 0.442022 0.127870 -0.092334
C44   C     C_R   0.955065 0.578013 0.914514 0.403272
C45   C     C_R   0.875721 0.431924 0.810619 0.546511
C46   C     C_R   0.622947 0.044934 0.585486 0.403272
C47   C     C_R   0.421986 0.377051 0.914514 0.403273
C48   C     C_R   0.955065 0.578013 0.585486 0.403273
C49   C     C_R   0.622948 0.044935 0.914514 0.403272
C50   C     C_R   0.421987 0.377051 0.585486 0.403272
C51   C     C_R   0.578013 0.955065 0.414514 0.403273
C52   C     C_R   0.044934 0.622947 0.085486 0.403272
C53   C     C_R   0.377051 0.421987 0.414514 0.403273
C54   C     C_R   0.578013 0.955065 0.085486 0.403272
C55   C     C_R   0.044934 0.622947 0.414514 0.403272
C56   C     C_R   0.556203 0.124279 0.689381 0.546512
C57   C     C_R   0.377051 0.421986 0.085486 0.403272
C58   C     C_R   0.983799 0.510168 0.936760 0.035636
C59   C     C_R   0.526369 0.016201 0.563240 0.035636
C60   C     C_R   0.489832 0.473631 0.936760 0.035636
C61   C     C_R   0.983798 0.510168 0.563240 0.035636
C62   C     C_R   0.526369 0.016201 0.936760 0.035636
C63   C     C_R   0.489832 0.473631 0.563240 0.035636
C64   C     C_R   0.510168 0.983799 0.436760 0.035636
C65   C     C_R   0.016201 0.526369 0.063240 0.035636
C66   C     C_R   0.473631 0.489832 0.436760 0.035636
C67   C     C_R   0.443797 0.568076 0.310619 0.546512
C68   C     C_R   0.510168 0.983799 0.063240 0.035636
C69   C     C_R   0.016201 0.526369 0.436760 0.035636
C70   C     C_R   0.473630 0.489832 0.063240 0.035636
C71   C     C_R   0.992198 0.426774 0.916140 -0.159444
C72   C     C_R   0.434576 0.007803 0.583859 -0.159444
C73   C     C_R   0.573226 0.565423 0.916141 -0.159444
C74   C     C_R   0.992197 0.426774 0.583859 -0.159444
C75   C     C_R   0.434576 0.007802 0.916141 -0.159444
C76   C     C_R   0.573226 0.565424 0.583859 -0.159444
C77   C     C_R   0.426774 0.992198 0.416140 -0.159444
C78   C     C_R   0.431924 0.875721 0.189381 0.546512
C79   C     C_R   0.007803 0.434576 0.083859 -0.159444
C80   C     C_R   0.565424 0.573226 0.416141 -0.159444
C81   C     C_R   0.426774 0.992198 0.083860 -0.159444
C82   C     C_R   0.007803 0.434576 0.416141 -0.159444
C83   C     C_R   0.565424 0.573226 0.083859 -0.159444
C84   C     C_R   0.965217 0.406480 0.873819 -0.132273
C85   C     C_R   0.441263 0.034784 0.626181 -0.132274
C86   C     C_R   0.593521 0.558737 0.873819 -0.132273
C87   C     C_R   0.965216 0.406479 0.626181 -0.132273
C88   C     C_R   0.441262 0.034784 0.873819 -0.132274
C89   C     C_R   0.124279 0.556203 0.310619 0.546511
C90   C     C_R   0.593521 0.558737 0.626181 -0.132273
C91   C     C_R   0.406480 0.965217 0.373819 -0.132273
C92   C     C_R   0.034784 0.441262 0.126181 -0.132273
C93   C     C_R   0.558737 0.593521 0.373819 -0.132273
C94   C     C_R   0.406480 0.965217 0.126181 -0.132273
C95   C     C_R   0.034784 0.441262 0.373819 -0.132273
C96   C     C_R   0.558737 0.593521 0.126181 -0.132273
Cr1   Cr    Cr6+3 0.504240 0.249200 0.750000 1.033492
Cr2   Cr    Cr6+3 0.744960 0.495760 0.750000 1.033493
Cr3   Cr    Cr6+3 0.750800 0.255040 0.750000 1.033493
Cr4   Cr    Cr6+3 0.249200 0.504240 0.250000 1.033493
Cr5   Cr    Cr6+3 0.495760 0.744960 0.250000 1.033493
Cr6   Cr    Cr6+3 0.255040 0.750800 0.250000 1.033492
F1    F     F_    0.052832 0.712331 0.065725 -0.592383
F2    F     F_    0.712331 0.052833 0.934275 -0.592383
F3    F     F_    0.947167 0.659499 0.565724 -0.592383
F4    F     F_    0.340501 0.287667 0.934275 -0.592383
F5    F     F_    0.659498 0.947166 0.434275 -0.592383
F6    F     F_    0.287667 0.340501 0.065724 -0.592383
F7    F     F_    0.052833 0.712331 0.434275 -0.592383
F8    F     F_    0.659498 0.947166 0.065724 -0.592383
F9    F     F_    0.287667 0.340501 0.434275 -0.592383
F10   F     F_    0.712331 0.052832 0.565725 -0.592383
F11   F     F_    0.947166 0.659498 0.934276 -0.592383
F12   F     F_    0.340501 0.287667 0.565724 -0.592383
H1    H     H_    0.900654 0.607761 0.856004 0.157979
H2    H     H_    0.607761 0.900654 0.143996 0.157979
H3    H     H_    0.099344 0.707106 0.356003 0.157979
H4    H     H_    0.292893 0.392238 0.143996 0.157979
H5    H     H_    0.033254 0.371007 0.140945 0.166246
H6    H     H_    0.337754 0.966747 0.359054 0.166246
H7    H     H_    0.628993 0.662247 0.140945 0.166246
H8    H     H_    0.033254 0.371006 0.359055 0.166246
H9    H     H_    0.337754 0.966747 0.140946 0.166246
H10   H     H_    0.628994 0.662247 0.359054 0.166246
H11   H     H_    0.371007 0.033254 0.640945 0.166246
H12   H     H_    0.707106 0.099344 0.643996 0.157979
H13   H     H_    0.966747 0.337754 0.859054 0.166246
H14   H     H_    0.662247 0.628993 0.640945 0.166246
H15   H     H_    0.371006 0.033254 0.859055 0.166246
H16   H     H_    0.966746 0.337753 0.640945 0.166246
H17   H     H_    0.662248 0.628993 0.859055 0.166246
H18   H     H_    0.985271 0.359459 0.066778 0.164458
H19   H     H_    0.374189 0.014730 0.433222 0.164458
H20   H     H_    0.640541 0.625811 0.066778 0.164459
H21   H     H_    0.985271 0.359459 0.433222 0.164458
H22   H     H_    0.374189 0.014730 0.066778 0.164458
H23   H     H_    0.392238 0.292893 0.856004 0.157979
H24   H     H_    0.640541 0.625811 0.433222 0.164458
H25   H     H_    0.359459 0.985271 0.566778 0.164458
H26   H     H_    0.014730 0.374189 0.933222 0.164458
H27   H     H_    0.625812 0.640541 0.566778 0.164459
H28   H     H_    0.359459 0.985271 0.933222 0.164458
H29   H     H_    0.014729 0.374189 0.566778 0.164458
H30   H     H_    0.625812 0.640541 0.933222 0.164459
H31   H     H_    0.900655 0.607761 0.643996 0.157979
H32   H     H_    0.707106 0.099345 0.856004 0.157979
H33   H     H_    0.392238 0.292893 0.643996 0.157979
H34   H     H_    0.607761 0.900654 0.356004 0.157979
H35   H     H_    0.099344 0.707106 0.143996 0.157979
H36   H     H_    0.292893 0.392239 0.356004 0.157979
O1    O     O_R   0.480350 0.140770 0.796330 -0.509208
O2    O     O_R   0.140770 0.480350 0.203670 -0.509207
O3    O     O_R   0.519650 0.660420 0.296330 -0.509208
O4    O     O_R   0.339580 0.859230 0.203670 -0.509207
O5    O     O_R   0.514930 0.348530 0.793250 -0.500520
O6    O     O_R   0.833600 0.485070 0.706750 -0.500520
O7    O     O_R   0.651470 0.166400 0.793250 -0.500520
O8    O     O_R   0.514930 0.348530 0.706750 -0.500520
O9    O     O_R   0.833600 0.485070 0.793250 -0.500520
O10   O     O_R   0.651470 0.166400 0.706750 -0.500520
O11   O     O_R   0.348530 0.514930 0.293250 -0.500520
O12   O     O_R   0.660420 0.519650 0.703670 -0.509208
O13   O     O_R   0.485070 0.833600 0.206750 -0.500520
O14   O     O_R   0.166400 0.651470 0.293250 -0.500520
O15   O     O_R   0.348530 0.514930 0.206750 -0.500520
O16   O     O_R   0.485070 0.833600 0.293250 -0.500520
O17   O     O_R   0.166400 0.651470 0.206750 -0.500520
O18   O     O_3   0.666667 0.333333 0.750000 -0.239461
O19   O     O_3   0.333333 0.666667 0.250000 -0.239461
O20   O     O_R   0.859230 0.339580 0.796330 -0.509207
O21   O     O_R   0.480350 0.140770 0.703670 -0.509207
O22   O     O_R   0.660420 0.519650 0.796330 -0.509208
O23   O     O_R   0.859230 0.339580 0.703670 -0.509207
O24   O     O_R   0.140770 0.480350 0.296330 -0.509207
O25   O     O_R   0.519650 0.660420 0.203670 -0.509208
O26   O     O_R   0.339580 0.859230 0.296330 -0.509207

loop_
_geom_bond_atom_site_label_1
_geom_bond_atom_site_label_2
_ccdc_geom_bond_type
C19   C56   S    
C74   H29   S    
C21   C87   A    
C52   F1    S    
Cr6   O17   S    
C65   C79   A    
C46   F10   S    
C29   C42   A    
C64   C77   A    
C60   C73   A    
C85   H11   S    
C45   O9    A    
C93   H10   S    
C45   O20   A    
C7    C70   S    
C29   C89   S    
C72   C85   A    
Cr3   O20   S    
Cr4   O2    S    
C8    C69   S    
C96   H7    S    
C68   C81   A    
C88   H15   S    
C87   H16   S    
C92   H5    S    
C12   O6    A    
C71   C84   A    
C38   C51   A    
C25   C38   A    
C80   H24   S    
C86   H17   S    
C54   C68   A    
C63   C76   A    
C19   C32   A    
Cr6   O26   S    
C28   C41   A    
C54   F8    S    
C28   C94   A    
C35   H31   S    
C32   H12   S    
C82   H21   S    
C1    O5    A    
C83   H20   S    
C30   C96   A    
C69   C82   A    
C47   C60   A    
C72   H25   S    
C33   H23   S    
C7    C17   T    
C20   C86   A    
C18   C84   A    
Cr5   O19   S    
Cr4   O11   S    
C82   C95   A    
C22   C88   A    
C57   C70   A    
C28   C78   S    
Cr6   O4    S    
C89   O14   A    
C5    C13   T    
C59   C72   A    
Cr2   O22   S    
C76   H27   S    
C53   F9    S    
Cr6   O19   S    
C39   C52   A    
C78   O13   A    
C8    C16   T    
Cr3   O10   S    
C55   F7    S    
C50   C63   A    
C77   H19   S    
C89   O24   A    
C49   F2    S    
C51   F5    S    
C11   C59   S    
C35   C48   A    
C31   H1    S    
Cr2   O12   S    
C10   C66   S    
C4    O2    A    
Cr2   O6    S    
C25   C91   A    
C31   C44   A    
C3    C25   S    
C27   C67   S    
C5    C65   S    
C10   C14   T    
C44   C58   A    
C6    C11   T    
C29   C95   A    
C78   O4    A    
C13   C58   S    
C17   C60   S    
C34   O12   A    
C12   C21   S    
C24   C34   S    
Cr4   O15   S    
C50   F12   S    
C36   C49   A    
C70   C83   A    
C75   H28   S    
C42   C55   A    
C67   O11   A    
C48   F3    S    
Cr3   O23   S    
Cr5   O3    S    
C27   C40   A    
C47   F4    S    
C24   C37   A    
Cr1   O1    S    
C40   H36   S    
C37   H33   S    
C53   C66   A    
C2    O15   A    
C38   H34   S    
C79   C92   A    
C55   C69   A    
C20   C33   A    
C34   O8    A    
C95   H8    S    
C36   H32   S    
C44   F11   S    
Cr3   O7    S    
C2    O25   A    
Cr4   O24   S    
C74   C87   A    
C30   C43   A    
C27   C93   A    
C16   C61   S    
C62   C75   A    
C41   H2    S    
C18   C45   S    
C66   C80   A    
C81   H22   S    
Cr3   O18   S    
C23   O1    A    
C77   C91   A    
C1    C20   S    
C49   C62   A    
Cr4   O19   S    
C22   C23   S    
C32   C46   A    
C51   C64   A    
C19   C85   A    
C24   C90   A    
C4    C26   S    
C42   H3    S    
C6    C64   S    
C71   H26   S    
C21   C35   A    
C61   C74   A    
Cr1   O18   S    
C22   C36   A    
C39   H35   S    
C1    O22   A    
Cr1   O21   S    
C4    O17   A    
C67   O3    A    
C2    C30   S    
Cr1   O8    S    
C9    C15   T    
C9    C68   S    
C3    O26   A    
C56   O21   A    
C94   H9    S    
C81   C94   A    
C48   C61   A    
C83   C96   A    
C84   H13   S    
C33   C47   A    
C79   H18   S    
C23   O7    A    
Cr5   O13   S    
C37   C50   A    
C15   C62   S    
C14   C63   S    
Cr1   O5    S    
C41   C54   A    
Cr5   O16   S    
C26   C39   A    
C73   C86   A    
Cr5   O25   S    
C58   C71   A    
C43   C57   A    
C43   H4    S    
C75   C88   A    
C57   F6    S    
Cr2   O9    S    
C46   C59   A    
Cr6   O14   S    
C40   C53   A    
C90   H14   S    
C91   H6    S    
C18   C31   A    
C80   C93   A    
C26   C92   A    
Cr2   O18   S    
C52   C65   A    
C3    O16   A    
C76   C90   A    
C12   O23   A    
C73   H30   S    
C56   O10   A    
