data_mof_unit_7206.cif
_audit_creation_date              2012-12-11T14:14:08-0500
_audit_creation_method            fapswitch 2.2
_symmetry_space_group_name_H-M    P1
_symmetry_Int_Tables_number       1
_space_group_crystal_system       triclinic
_cell_length_a                    17.05829
_cell_length_b                    7.251736
_cell_length_c                    16.963742
_cell_angle_alpha                 89.359654
_cell_angle_beta                  99.489971
_cell_angle_gamma                 90.704246
_cell_volume                      2069.48864606

loop_
_atom_site_label
_atom_site_type_symbol
_atom_type_description
_atom_site_fract_x
_atom_site_fract_y
_atom_site_fract_z
_atom_type_partial_charge
O1    O     O_R   0.414560 0.494370 0.416770 -0.543177
O2    O     O_R   0.585440 0.994370 0.583230 -0.544910
O3    O     O_R   0.578370 0.819590 0.429320 -0.547330
O4    O     O_R   0.421630 0.319590 0.570680 -0.544933
C1    C     C_R   0.604759 0.657288 0.414083 0.720110
C2    C     C_R   0.395361 0.153742 0.585874 0.716847
O5    O     O_R   0.414740 0.823790 0.407360 -0.505509
O6    O     O_R   0.585260 0.323790 0.592640 -0.503170
O7    O     O_R   0.420650 0.998510 0.561120 -0.540559
O8    O     O_R   0.579350 0.498510 0.438880 -0.537139
C3    C     C_R   0.388356 0.655587 0.384872 0.735096
C4    C     C_R   0.611597 0.155635 0.615116 0.738231
O9    O     O_3   0.502130 0.662240 0.550470 -0.378017
O10   O     O_3   0.497870 0.162240 0.449530 -0.378974
V1    V     V_3+5 0.499600 0.935390 0.490640 1.449622
V2    V     V_3+5 0.500400 0.435390 0.509360 1.456241
C5    C     C_2   0.782821 0.263305 0.790566 -0.221009
C6    C     C_2   0.217090 0.764017 0.209734 -0.219229
C7    C     C_2   0.828216 0.112799 0.810358 0.027475
C8    C     C_2   0.171634 0.612166 0.189773 0.027780
H1    H     H_    0.792318 0.383082 0.829008 0.105303
H2    H     H_    0.207685 0.885498 0.171429 0.105815
C9    C     C_2   0.722823 0.284477 0.715735 0.404837
C10   C     C_2   0.277077 0.783968 0.284595 0.407252
C11   C     C_2   0.674431 0.142888 0.686590 -0.272927
C12   C     C_2   0.325454 0.643355 0.313454 -0.275112
H3    H     H_    0.679109 0.010683 0.717422 0.130494
H4    H     H_    0.320744 0.512765 0.282405 0.130130
C13   C     C_R   0.330751 0.137508 0.634757 -0.166871
C14   C     C_R   0.669709 0.657536 0.365263 -0.165340
C15   C     C_R   0.162532 0.130341 0.858884 -0.145768
C16   C     C_R   0.837029 0.611775 0.141238 -0.147322
C17   C     C_R   0.290984 0.251596 0.838747 -0.116757
C18   C     C_R   0.709130 0.497666 0.166836 -0.116443
C19   C     C_R   0.232761 0.227384 0.886508 -0.234537
C20   C     C_R   0.767011 0.510273 0.118069 -0.231639
C21   C     C_R   0.149638 0.058621 0.779973 0.362785
C22   C     C_R   0.849907 0.700893 0.216743 0.359438
C23   C     C_R   0.209469 0.083069 0.730535 0.003031
C24   C     C_R   0.790458 0.688040 0.267293 0.002695
C25   C     C_R   0.280776 0.180863 0.760834 0.040421
C26   C     C_R   0.719441 0.584941 0.241491 0.039693
C27   C     C_R   0.340996 0.207550 0.713239 0.118711
C28   C     C_R   0.659548 0.569868 0.290237 0.117067
C29   C     C_R   0.259498 0.043049 0.603936 0.071205
C30   C     C_R   0.740776 0.756909 0.391820 0.081043
C31   C     C_R   0.199529 0.015683 0.651088 0.231922
C32   C     C_R   0.800493 0.772387 0.343623 0.231240
H5    H     H_    0.344283 0.327354 0.863553 0.169238
H6    H     H_    0.656057 0.417509 0.145486 0.169237
H7    H     H_    0.242887 0.284451 0.946158 0.134228
H8    H     H_    0.756921 0.439791 0.061218 0.133879
O11   O     O_R   0.920750 0.773600 0.061260 -0.531373
O12   O     O_R   0.079250 0.273600 0.938740 -0.529817
O13   O     O_R   0.085340 0.439850 0.092570 -0.541393
O14   O     O_R   0.914660 0.939850 0.907430 -0.542938
C33   C     C_R   0.110906 0.608042 0.115897 0.679916
C34   C     C_R   0.889072 0.108055 0.884164 0.679468
O15   O     O_R   0.921720 0.444130 0.070790 -0.533555
O16   O     O_R   0.078280 0.944130 0.929210 -0.534780
O17   O     O_R   0.914480 0.269530 0.916840 -0.541511
O18   O     O_R   0.085520 0.769530 0.083160 -0.543531
C35   C     C_R   0.897236 0.610897 0.087279 0.673798
C36   C     C_R   0.102627 0.114186 0.912795 0.675917
O19   O     O_3   0.997840 0.601520 0.949550 -0.372104
O20   O     O_3   0.002160 0.101520 0.050450 -0.372042
V3    V     V_3+5 0.000400 0.328340 0.009360 1.433344
V4    V     V_3+5 0.999600 0.828340 0.990640 1.432317
O21   O     O_3   0.079307 0.968819 0.749362 -0.617221
H9    H     H_    0.037553 0.996756 0.781376 0.276507
O22   O     O_3   0.919858 0.796535 0.243251 -0.616135
H10   H     H_    0.960934 0.766128 0.210798 0.283175
N1    N     N_3   0.822177 0.958414 0.757269 -0.661975
H11   H     H_    0.878095 0.937255 0.741543 0.246801
H12   H     H_    0.807125 0.841344 0.788297 0.226134
N2    N     N_3   0.177495 0.455195 0.242768 -0.664568
H13   H     H_    0.121486 0.430006 0.258294 0.243516
H14   H     H_    0.192622 0.340684 0.211741 0.226054
O23   O     O_3   0.714197 0.454701 0.677932 -0.633939
H15   H     H_    0.754776 0.540418 0.706275 0.284261
O24   O     O_3   0.285728 0.952320 0.322717 -0.635259
H16   H     H_    0.245068 0.037325 0.294627 0.284961
N3    N     N_3   0.413426 0.301624 0.746266 -0.678394
H17   H     H_    0.418862 0.421517 0.712777 0.247960
H18   H     H_    0.461447 0.215807 0.742429 0.218419
N4    N     N_3   0.587501 0.469390 0.261760 -0.678782
H19   H     H_    0.539186 0.556942 0.261390 0.217458
H20   H     H_    0.582439 0.359180 0.300880 0.248309
N5    N     N_3   0.245596 0.976077 0.523371 -0.655721
H21   H     H_    0.254652 0.084133 0.484428 0.252245
H22   H     H_    0.285579 0.870688 0.518231 0.255416
N6    N     N_3   0.754606 0.841766 0.469093 -0.664199
H23   H     H_    0.714171 0.948477 0.469807 0.247312
H24   H     H_    0.746030 0.743124 0.512386 0.248040
N7    N     N_3   0.128437 0.917818 0.617358 -0.564561
H25   H     H_    0.144076 0.786644 0.600646 0.249299
H26   H     H_    0.101536 0.988645 0.566142 0.256381
N8    N     N_3   0.871358 0.875923 0.372996 -0.563933
H27   H     H_    0.898618 0.816218 0.426823 0.256765
H28   H     H_    0.855375 0.010691 0.384233 0.249560

loop_
_geom_bond_atom_site_label_1
_geom_bond_atom_site_label_2
_ccdc_geom_bond_type
C21   O21   S    
C27   N3    S    
N1    H11   S    
N7    H25   S    
O1    C3    A    
O2    C4    A    
C2    O7    A    
O24   H16   S    
C33   O18   A    
C23   C25   A    
O5    C3    A    
C5    C9    S    
C6    C10   S    
C16   C20   A    
C10   C12   D    
C17   C19   A    
N4    H20   S    
C30   N6    S    
C17   H5    S    
C8    N2    S    
O11   V4    S    
O15   V3    S    
C18   C26   A    
C16   C22   A    
N5    H22   S    
C29   N5    S    
C18   C20   A    
C20   H8    S    
C34   O17   A    
O5    V1    S    
O20   V3    S    
O6    V2    S    
C13   C27   A    
C25   C27   A    
C14   C28   A    
C26   C28   A    
C28   N4    S    
C29   C31   A    
C7    C34   S    
C30   C32   A    
C18   H6    S    
C7    N1    S    
N2    H13   S    
O4    C2    A    
N4    H19   S    
O12   V3    S    
C3    C12   S    
O14   V4    S    
C5    H1    S    
C15   C21   A    
C13   C29   A    
O4    V2    S    
C10   O24   S    
O17   V3    S    
N3    H17   S    
O6    C4    A    
O19   V4    S    
N6    H24   S    
O1    V2    S    
O2    V1    S    
N3    H18   S    
N8    H28   S    
O13   C33   A    
C19   H7    S    
C15   C19   A    
N1    H12   S    
N5    H21   S    
O3    V1    S    
C23   C31   A    
C1    C14   S    
C24   C32   A    
C22   O22   S    
C6    H2    S    
C12   H4    S    
C15   C36   S    
C14   C30   A    
C16   C35   S    
N2    H14   S    
O3    C1    A    
O13   V3    S    
N7    H26   S    
C11   H3    S    
C32   N8    S    
O15   C35   A    
O18   V4    S    
C4    C11   S    
O16   C36   A    
C17   C25   A    
O7    V1    S    
C1    O8    A    
C21   C23   A    
O8    V2    S    
C22   C24   A    
O11   C35   A    
O12   C36   A    
C24   C26   A    
N6    H23   S    
C5    C7    D    
O14   C34   A    
C6    C8    D    
C9    C11   D    
O21   H9    S    
O23   H15   S    
O22   H10   S    
C2    C13   S    
O16   V4    S    
N8    H27   S    
O9    V2    S    
C31   N7    S    
O10   V1    S    
C9    O23   S    
C8    C33   S    
