data_mof_unit_48169.cif
_audit_creation_date              2012-12-11T17:00:24-0500
_audit_creation_method            fapswitch 2.2
_symmetry_space_group_name_H-M    P1
_symmetry_Int_Tables_number       1
_space_group_crystal_system       triclinic
_cell_length_a                    6.960908
_cell_length_b                    13.558431
_cell_length_c                    20.267981
_cell_angle_alpha                 103.0404
_cell_angle_beta                  90.256465
_cell_angle_gamma                 90.284573
_cell_volume                      1863.48720363

loop_
_atom_site_label
_atom_site_type_symbol
_atom_type_description
_atom_site_fract_x
_atom_site_fract_y
_atom_site_fract_z
_atom_type_partial_charge
O1    O     O_R   0.506770 0.599700 0.449550 -0.539125
O2    O     O_R   0.179980 0.595740 0.587960 -0.545685
O3    O     O_R   0.004580 0.400300 0.550450 -0.537546
C1    C     C_R   0.348463 0.617754 0.615063 0.693144
O4    O     O_R   0.177380 0.611700 0.452380 -0.540861
O5    O     O_R   0.001970 0.416370 0.413900 -0.542146
C2    C     C_R   0.345721 0.638247 0.435595 0.693594
O6    O     O_R   0.509390 0.583630 0.586100 -0.537838
O7    O     O_3   0.337530 0.435890 0.487530 -0.370111
V1    V     V_3+5 0.064660 0.511890 0.502310 1.410091
O8    O     O_R   0.671950 0.404260 0.412040 -0.541282
C3    C     C_R   0.840341 0.383186 0.384628 0.695393
O9    O     O_R   0.674540 0.388300 0.547620 -0.540007
C4    C     C_R   0.843365 0.361764 0.564362 0.697647
V2    V     V_3+5 0.564030 0.488110 0.497690 1.414643
O10   O     O_3   0.841030 0.564110 0.512470 -0.371833
C5    C     C_R   0.879163 0.110082 0.611168 -0.159253
H1    H     H_    0.873515 0.159500 0.517801 0.103059
H2    H     H_    0.897249 0.985116 0.694381 0.117432
H3    H     H_    0.891785 0.031113 0.585473 0.111863
C6    C     C_R   0.852373 0.284872 0.604420 -0.031649
C7    C     C_R   0.843346 0.319545 0.931752 -0.038267
C8    C     C_R   0.832275 0.395207 0.895520 -0.155268
C9    C     C_R   0.836900 0.371255 0.825030 -0.173662
C10   C     C_R   0.852899 0.269715 0.788091 0.079491
C11   C     C_R   0.864530 0.192120 0.825126 0.062509
C12   C     C_R   0.857514 0.242597 0.715690 0.075084
C13   C     C_R   0.873835 0.138825 0.682180 0.143306
C14   C     C_R   0.884878 0.064343 0.719594 -0.208098
C15   C     C_R   0.880213 0.090333 0.789789 -0.189396
C16   C     C_R   0.846712 0.314731 0.675087 -0.213323
C17   C     C_R   0.868684 0.182775 0.572538 -0.176336
C18   C     C_R   0.859791 0.217675 0.896971 -0.125972
H4    H     H_    0.834353 0.394735 0.696442 0.090404
H5    H     H_    0.827367 0.434429 0.801188 0.112633
H6    H     H_    0.819572 0.473825 0.922025 0.122666
H7    H     H_    0.889037 0.029407 0.816149 0.106607
C19   C     C_R   0.710348 0.181634 0.227162 0.108425
C20   C     C_R   0.866870 0.183660 0.184307 -0.101119
C21   C     C_R   0.022057 0.247833 0.210524 -0.158190
H8    H     H_    0.144724 0.252939 0.179035 0.140582
C22   C     C_R   0.014641 0.311351 0.275917 -0.174838
H9    H     H_    0.132302 0.363307 0.292939 0.130147
C23   C     C_R   0.851405 0.312923 0.317031 -0.112113
C24   C     C_R   0.702783 0.244658 0.291920 0.103384
C25   C     C_3   0.495372 0.266293 0.284588 -0.412379
C26   C     C_3   0.503779 0.198393 0.214145 -0.401657
H10   H     H_    0.469739 0.347133 0.284457 0.168009
H11   H     H_    0.404526 0.234922 0.320027 0.172328
H12   H     H_    0.483592 0.239711 0.173067 0.179704
H13   H     H_    0.416697 0.128418 0.208864 0.164561
C27   C     C_R   0.500485 0.679269 0.730108 0.101527
C28   C     C_R   0.352013 0.683838 0.684199 -0.109626
C29   C     C_R   0.196087 0.748092 0.708031 -0.176209
H14   H     H_    0.077086 0.753584 0.674644 0.128517
C30   C     C_R   0.197435 0.810808 0.773737 -0.172572
H15   H     H_    0.080523 0.863029 0.788810 0.124876
C31   C     C_R   0.354996 0.811426 0.817539 -0.108483
C32   C     C_R   0.502465 0.741938 0.794938 0.100943
C33   C     C_3   0.713546 0.759667 0.792472 -0.399436
C34   C     C_3   0.711205 0.691203 0.721935 -0.406971
H16   H     H_    0.793752 0.727241 0.830074 0.171694
H17   H     H_    0.748179 0.839873 0.792782 0.166320
H18   H     H_    0.789556 0.619042 0.718778 0.166198
H19   H     H_    0.744672 0.731550 0.681310 0.168599
C35   C     C_R   0.303909 0.888918 0.388245 -0.160434
H20   H     H_    0.301763 0.839474 0.481541 0.103123
H21   H     H_    0.271825 0.012335 0.304460 0.122984
H22   H     H_    0.278436 0.967091 0.413536 0.112490
C36   C     C_R   0.350895 0.715568 0.395799 -0.032191
C37   C     C_R   0.392844 0.682600 0.069361 -0.172560
C38   C     C_R   0.405362 0.606612 0.105062 -0.094240
C39   C     C_R   0.390678 0.629648 0.175420 -0.145564
C40   C     C_R   0.360944 0.730441 0.212137 0.071446
C41   C     C_R   0.342492 0.807512 0.174888 0.070240
C42   C     C_R   0.350012 0.757496 0.284426 0.074168
C43   C     C_R   0.317980 0.860368 0.317433 0.143566
C44   C     C_R   0.297557 0.933950 0.279656 -0.207223
C45   C     C_R   0.308984 0.907979 0.209592 -0.198842
C46   C     C_R   0.368187 0.686120 0.325356 -0.212482
C47   C     C_R   0.318311 0.816724 0.427094 -0.174633
C48   C     C_R   0.361127 0.782784 0.103465 -0.077412
H23   H     H_    0.390518 0.606698 0.304254 0.091950
H24   H     H_    0.409561 0.663373 0.014825 0.103289
H25   H     H_    0.403909 0.566712 0.199346 0.111293
H26   H     H_    0.429396 0.529193 0.078051 0.134939
H27   H     H_    0.289890 0.967473 0.182617 0.116427
O11   O     O_R   0.203450 0.916320 0.913910 -0.542741
O12   O     O_R   0.535520 0.888300 0.047620 -0.539224
O13   O     O_R   0.710860 0.083650 0.086100 -0.536987
C49   C     C_R   0.367058 0.861304 0.064115 0.687327
O14   O     O_R   0.532860 0.904250 0.912040 -0.543426
O15   O     O_R   0.708190 0.099710 0.949550 -0.537416
C50   C     C_R   0.364185 0.882634 0.884797 0.694445
O16   O     O_R   0.206120 0.900260 0.050460 -0.540176
O17   O     O_3   0.375280 0.064080 0.012470 -0.369706
V3    V     V_3+5 0.648180 0.988110 0.997690 1.426384
O18   O     O_R   0.038220 0.111740 0.952370 -0.539719
C51   C     C_R   0.869331 0.138399 0.935802 0.703529
O19   O     O_R   0.040880 0.095790 0.087940 -0.547717
C52   C     C_R   0.872700 0.117778 0.115057 0.715119
V4    V     V_3+5 0.148800 0.011950 0.002300 1.420400
O20   O     O_3   0.871820 0.935920 0.987530 -0.373284
C53   C     C_1   0.836987 0.348063 0.004893 0.264634
N1    N     N_1   0.831848 0.370782 0.063437 -0.375905

loop_
_geom_bond_atom_site_label_1
_geom_bond_atom_site_label_2
_ccdc_geom_bond_type
O17   V4    S    
C1    C28   S    
C39   C40   A    
C1    O6    A    
C2    C36   S    
C45   H27   S    
C43   C44   A    
C23   C24   A    
C6    C16   A    
C25   H11   S    
C40   C42   A    
C33   H17   S    
C4    C6    S    
C13   C14   A    
H20   C47   S    
C27   C34   S    
O5    C3    A    
C19   C20   A    
C35   H22   S    
V2    O10   S    
O18   C51   A    
C5    H3    S    
C7    C53   S    
C30   H15   S    
C33   H16   S    
C7    C18   A    
C36   C47   A    
C19   C24   A    
C29   H14   S    
O8    V2    S    
C8    C9    A    
O1    V2    S    
O12   C49   A    
O7    V1    S    
O15   C51   A    
O13   V3    S    
O16   V4    S    
C37   C48   A    
C21   C22   A    
C32   C33   S    
O9    C4    A    
C22   C23   A    
C46   H23   S    
O19   V4    S    
C53   N1    T    
O14   V3    S    
C20   C52   S    
C26   H12   S    
C29   C30   A    
H21   C44   S    
C6    C17   A    
O11   C50   A    
C9    H5    S    
C40   C41   A    
C12   C16   A    
C9    C10   A    
C20   C21   A    
O4    C2    A    
C44   C45   A    
C26   H13   S    
C10   C11   A    
O18   V4    S    
C36   C46   A    
C48   C49   S    
C15   H7    S    
O12   V3    S    
C33   C34   S    
C18   C51   S    
C34   H18   S    
O2    C1    A    
O13   C52   A    
C14   C15   A    
C27   C32   A    
C34   H19   S    
C11   C18   A    
O11   V4    S    
O17   V3    S    
O14   C50   A    
C16   H4    S    
C42   C43   A    
C39   H25   S    
C19   C26   S    
V3    O20   S    
O3    C4    A    
C21   H8    S    
C11   C15   A    
O6    V2    S    
O9    V2    S    
C31   C32   A    
H1    C17   S    
C22   H9    S    
O2    V1    S    
O15   V3    S    
C27   C28   A    
C37   H24   S    
C35   C43   A    
C25   C26   S    
O1    C2    A    
C5    C13   A    
C42   C46   A    
C38   C39   A    
O5    V1    S    
C38   H26   S    
O8    C3    A    
C41   C48   A    
C28   C29   A    
C10   C12   A    
O7    V2    S    
O4    V1    S    
C3    C23   S    
O3    V1    S    
V1    O10   S    
C35   C47   A    
O19   C52   A    
C30   C31   A    
C31   C50   S    
V4    O20   S    
C49   O16   A    
C25   H10   S    
C24   C25   S    
C37   C38   A    
C8    H6    S    
C12   C13   A    
C5    C17   A    
C7    C8    A    
C41   C45   A    
H2    C14   S    
