data_mof_unit_24845.cif
_audit_creation_date              2012-12-10T16:44:41-0500
_audit_creation_method            fapswitch 2.2
_symmetry_space_group_name_H-M    P1
_symmetry_Int_Tables_number       1
_space_group_crystal_system       triclinic
_cell_length_a                    14.990565
_cell_length_b                    8.670196
_cell_length_c                    7.621636
_cell_angle_alpha                 103.154937
_cell_angle_beta                  96.046132
_cell_angle_gamma                 95.411729
_cell_volume                      952.048967628

loop_
_atom_site_label
_atom_site_type_symbol
_atom_type_description
_atom_site_fract_x
_atom_site_fract_y
_atom_site_fract_z
_atom_type_partial_charge
C1    C     C_R   0.496788 0.200027 0.453075 0.846951
C2    C     C_R   0.503207 0.799972 0.546924 0.846937
C3    C     C_R   0.027292 0.215144 0.368464 -0.219861
C4    C     C_R   0.972711 0.784866 0.631572 -0.219857
C5    C     C_2   0.495497 0.031284 0.427790 -0.372522
C6    C     C_2   0.504490 0.968713 0.572209 -0.372566
C7    C     C_R   0.329601 0.501898 0.499692 0.787550
C8    C     C_R   0.670400 0.498107 0.500309 0.787569
C9    C     C_R   0.823218 0.637253 0.566416 -0.310642
C10   C     C_R   0.176783 0.362761 0.433591 -0.310646
C11   C     C_R   0.766654 0.493836 0.500690 -0.097453
C12   C     C_R   0.233348 0.506178 0.499313 -0.097459
C13   C     C_R   0.802015 0.349150 0.437033 0.199588
C14   C     C_R   0.197988 0.650864 0.562980 0.199637
C15   C     C_R   0.896000 0.351499 0.435495 0.082308
C16   C     C_R   0.104004 0.648515 0.564530 0.082309
C17   C     C_R   0.952998 0.497985 0.500586 0.021364
C18   C     C_R   0.047006 0.502029 0.499433 0.021356
C19   C     C_R   0.916167 0.640629 0.566703 0.124947
C20   C     C_R   0.083835 0.359384 0.433316 0.124943
C21   C     C_R   0.934290 0.211145 0.368699 -0.198432
C22   C     C_R   0.065714 0.788864 0.631348 -0.198448
Cu1   Cu    Cu3+1 0.510010 0.517380 0.684380 0.956367
Cu2   Cu    Cu3+1 0.489990 0.482620 0.315620 0.956398
H1    H     H_    0.794331 0.746706 0.615804 0.135983
H2    H     H_    0.205669 0.253307 0.384202 0.135982
H3    H     H_    0.892715 0.097496 0.315806 0.180844
H4    H     H_    0.107287 0.902510 0.684265 0.180843
H5    H     H_    0.055055 0.105106 0.317231 0.145389
H6    H     H_    0.944948 0.894901 0.682813 0.145393
H7    H     H_    0.487398 0.958388 0.289389 0.198207
H8    H     H_    0.512589 0.041610 0.710609 0.198200
N1    N     N_2   0.474890 0.456420 0.038520 0.028792
N2    N     N_2   0.525110 0.543580 0.961480 0.028778
O1    O     O_R   0.506510 0.286130 0.619770 -0.596875
O2    O     O_R   0.493490 0.713870 0.380230 -0.596833
O3    O     O_R   0.489600 0.256770 0.308360 -0.581023
O4    O     O_R   0.510400 0.743230 0.691640 -0.581052
O5    O     O_R   0.378710 0.514640 0.655720 -0.612896
O6    O     O_R   0.621290 0.485360 0.344280 -0.612904
O7    O     O_R   0.361800 0.485290 0.344300 -0.583044
O8    O     O_R   0.638200 0.514710 0.655700 -0.583058
N3    N     N_2   0.744030 0.201814 0.376648 -0.448028
H9    H     H_    0.682988 0.208385 0.304416 0.270798
C23   C     C_3   0.734483 0.113847 0.515150 -0.721646
H10   H     H_    0.698820 0.180303 0.623579 0.245072
H11   H     H_    0.801677 0.093524 0.576204 0.231094
H12   H     H_    0.694724 0.995678 0.453376 0.226223
N4    N     N_2   0.255979 0.798193 0.623415 -0.448009
H13   H     H_    0.317037 0.791600 0.695575 0.270811
C24   C     C_3   0.265489 0.886282 0.485014 -0.721751
H14   H     H_    0.301149 0.819918 0.376522 0.245072
H15   H     H_    0.305239 0.004440 0.546878 0.226239
H16   H     H_    0.198282 0.906616 0.424033 0.231103
N5    N     N_2   0.420805 0.323765 0.928504 -0.310093
H17   H     H_    0.403768 0.327879 0.798372 0.295522
C25   C     C_3   0.338912 0.274065 0.995676 -0.582054
H18   H     H_    0.299349 0.172526 0.892120 0.178490
H19   H     H_    0.296217 0.372951 0.019021 0.226002
H20   H     H_    0.353084 0.229805 0.118914 0.253115
N6    N     N_2   0.579181 0.676240 0.071503 -0.310065
H21   H     H_    0.596247 0.672104 0.201624 0.295509
C26   C     C_3   0.661056 0.725991 0.004288 -0.582117
H22   H     H_    0.700645 0.827460 0.107890 0.178483
H23   H     H_    0.646850 0.770356 0.881136 0.253104
H24   H     H_    0.703738 0.627103 0.980797 0.226062

loop_
_geom_bond_atom_site_label_1
_geom_bond_atom_site_label_2
_ccdc_geom_bond_type
N1    N5    S    
C6    H8    S    
N5    H17   S    
C26   H23   S    
C15   C17   A    
C24   H14   S    
Cu1   O4    S    
C4    C22   A    
C2    O4    A    
C15   C21   A    
Cu1   O1    S    
Cu2   N1    S    
C1    O3    A    
N3    H9    S    
C24   H16   S    
C25   H20   S    
C10   H2    S    
N4    C24   S    
C13   C15   A    
Cu2   O3    S    
C21   H3    S    
C26   H24   S    
C9    H1    S    
C3    C20   A    
N3    C23   S    
C22   H4    S    
C23   H10   S    
Cu2   O7    S    
C11   C13   A    
C9    C11   A    
C25   H18   S    
Cu2   O2    S    
Cu1   O8    S    
C10   C12   A    
N6    C26   S    
C8    C11   S    
C1    C5    S    
C17   C19   A    
C5    H7    S    
C8    O8    A    
C17   C18   A    
C18   C20   A    
N5    C25   S    
C5    C6    D    
C14   C16   A    
C7    C12   S    
C3    C21   A    
C14   N4    S    
C25   H19   S    
N6    H21   S    
C9    C19   A    
Cu1   Cu2   S    
C26   H22   S    
C12   C14   A    
C13   N3    S    
N1    N2    D    
C1    O1    A    
C16   C18   A    
N4    H13   S    
C23   H11   S    
C2    O2    A    
C8    O6    A    
C3    H5    S    
C7    O5    A    
Cu1   N2    S    
C16   C22   A    
C23   H12   S    
Cu2   O6    S    
C4    C19   A    
Cu1   O5    S    
N2    N6    S    
C4    H6    S    
C2    C6    S    
C7    O7    A    
C10   C20   A    
C24   H15   S    
