data_mof_unit_63246.cif
_audit_creation_date              2012-12-10T19:17:48-0500
_audit_creation_method            fapswitch 2.2
_symmetry_space_group_name_H-M    P1
_symmetry_Int_Tables_number       1
_space_group_crystal_system       triclinic
_cell_length_a                    16.031463
_cell_length_b                    14.804572
_cell_length_c                    10.702977
_cell_angle_alpha                 90.343515
_cell_angle_beta                  90.00075
_cell_angle_gamma                 89.999967
_cell_volume                      2540.18764908

loop_
_atom_site_label
_atom_site_type_symbol
_atom_type_description
_atom_site_fract_x
_atom_site_fract_y
_atom_site_fract_z
_atom_type_partial_charge
C1    C     C_R   0.341043 0.500000 0.500026 0.836976
C2    C     C_R   0.658957 0.500000 0.499974 0.836976
C3    C     C_1   0.822619 0.500000 0.499976 -0.001519
C4    C     C_1   0.177381 0.500000 0.500024 -0.001519
C5    C     C_R   0.956386 0.582247 0.485121 0.404529
C6    C     C_R   0.043614 0.417753 0.514878 0.404528
C7    C     C_R   0.043615 0.582247 0.485138 0.404528
C8    C     C_R   0.956385 0.417753 0.514862 0.404528
C9    C     C_R   0.912332 0.499999 0.499984 -0.264996
C10   C     C_R   0.087668 0.500000 0.500015 -0.264996
C11   C     C_R   0.499977 0.499661 0.259364 0.940367
C12   C     C_R   0.500023 0.500339 0.740636 0.940367
C13   C     C_1   0.252234 0.500000 0.500027 -0.109624
C14   C     C_1   0.747766 0.500000 0.499973 -0.109625
C15   C     C_R   0.501552 0.952641 0.614174 0.411863
C16   C     C_R   0.498448 0.047359 0.385826 0.411863
C17   C     C_R   0.498446 0.951658 0.385825 0.415777
C18   C     C_R   0.501554 0.048342 0.614175 0.415777
C19   C     C_R   0.499999 0.902666 0.499998 -0.357772
C20   C     C_R   0.500001 0.097334 0.500002 -0.357772
C21   C     C_3   0.431938 0.542226 0.042146 0.225592
C22   C     C_3   0.568062 0.457774 0.957854 0.225592
C23   C     C_3   0.500026 0.585614 0.961296 0.263289
C24   C     C_3   0.499974 0.414386 0.038704 0.263289
C25   C     C_3   0.431925 0.457816 0.957824 0.225626
C26   C     C_3   0.568075 0.542184 0.042175 0.225627
C27   C     C_3   0.500013 0.501124 0.875929 -0.220730
C28   C     C_3   0.499987 0.498876 0.124071 -0.220730
C29   C     C_1   0.499999 0.802425 0.499999 0.209623
C30   C     C_1   0.500000 0.197575 0.500001 0.209623
Cu1   Cu    Cu3+1 0.500000 0.589220 0.500000 1.060117
Cu2   Cu    Cu3+1 0.500000 0.410780 0.500000 1.060117
N1    N     N_1   0.500000 0.276710 0.500000 -0.143110
N2    N     N_1   0.500000 0.723290 0.500000 -0.143110
O1    O     O_R   0.380310 0.575320 0.500020 -0.571898
O2    O     O_R   0.619690 0.424680 0.499980 -0.571898
O3    O     O_R   0.619690 0.575320 0.499980 -0.571913
O4    O     O_R   0.380310 0.424680 0.500020 -0.571913
O5    O     O_R   0.499980 0.575330 0.316850 -0.556906
O6    O     O_R   0.500020 0.424670 0.683150 -0.556906
O7    O     O_R   0.500020 0.575330 0.683150 -0.557202
O8    O     O_R   0.499980 0.424670 0.316850 -0.557202
O9    O     O_3   0.503123 0.090696 0.729881 -0.618604
H1    H     H_    0.502980 0.157056 0.720504 0.335287
O10   O     O_3   0.496877 0.909304 0.270119 -0.618604
H2    H     H_    0.497020 0.842944 0.279496 0.335287
O11   O     O_3   0.496881 0.088716 0.270122 -0.612121
H3    H     H_    0.497036 0.155157 0.279500 0.348979
O12   O     O_3   0.503119 0.911284 0.729878 -0.612121
H4    H     H_    0.502964 0.844843 0.720500 0.348979
O13   O     O_3   0.361045 0.414082 0.911391 -0.683771
H5    H     H_    0.329934 0.393813 0.986170 0.364111
O14   O     O_3   0.638955 0.585918 0.088609 -0.683771
H6    H     H_    0.670066 0.606187 0.013830 0.364111
O15   O     O_3   0.361072 0.586004 0.088551 -0.683806
H7    H     H_    0.329977 0.606275 0.013760 0.364150
O16   O     O_3   0.638927 0.413996 0.911449 -0.683806
H8    H     H_    0.670023 0.393725 0.986240 0.364150
O17   O     O_3   0.500055 0.674883 0.919440 -0.666531
H9    H     H_    0.500055 0.712683 0.996186 0.370667
O18   O     O_3   0.499945 0.325116 0.080560 -0.666531
H10   H     H_    0.499945 0.287317 0.003814 0.370667
O19   O     O_3   0.082668 0.664989 0.470181 -0.622838
H11   H     H_    0.143962 0.658230 0.471378 0.342360
O20   O     O_3   0.917332 0.335011 0.529819 -0.622838
H12   H     H_    0.856038 0.341770 0.528622 0.342360
O21   O     O_3   0.917335 0.664988 0.470151 -0.622851
H13   H     H_    0.856041 0.658226 0.471304 0.342353
O22   O     O_3   0.082665 0.335012 0.529849 -0.622851
H14   H     H_    0.143959 0.341774 0.528696 0.342353

loop_
_geom_bond_atom_site_label_1
_geom_bond_atom_site_label_2
_ccdc_geom_bond_type
C12   O6    A    
C7    C10   A    
C15   C19   A    
O9    H1    S    
C25   O13   S    
C6    C10   A    
C24   O18   S    
C3    C9    S    
C23   C27   S    
C15   C18   A    
C24   C28   S    
C6    O22   S    
C26   C28   S    
O11   H3    S    
C16   C20   A    
C5    O21   S    
Cu2   N1    S    
O18   H10   S    
C22   O16   S    
C15   O12   S    
C18   O9    S    
Cu1   N2    S    
C22   C27   S    
C8    O20   S    
C20   C30   S    
O14   H6    S    
C23   O17   S    
C2    O3    A    
C7    O19   S    
O16   H8    S    
C12   O7    A    
C3    C14   T    
C1    O4    A    
Cu2   O2    S    
C16   O11   S    
C17   C19   A    
C21   C28   S    
Cu1   O5    S    
O20   H12   S    
C18   C20   A    
Cu2   O4    S    
Cu2   O6    S    
C21   C23   S    
Cu2   O8    S    
O22   H14   S    
C2    C14   S    
C11   C28   S    
O15   H7    S    
C1    C13   S    
C12   C27   S    
C4    C10   S    
O19   H11   S    
C19   C29   S    
C26   O14   S    
C11   O5    A    
O17   H9    S    
O13   H5    S    
C24   C25   S    
C1    O1    A    
C11   O8    A    
C5    C7    A    
O12   H4    S    
C22   C26   S    
C23   C26   S    
C2    O2    A    
C4    C13   T    
C21   O15   S    
Cu1   O1    S    
C21   C25   S    
C8    C9    A    
C6    C8    A    
C5    C9    A    
Cu1   O7    S    
C30   N1    T    
O10   H2    S    
C29   N2    T    
Cu1   Cu2   S    
Cu1   O3    S    
O21   H13   S    
C22   C24   S    
C17   O10   S    
C16   C17   A    
C25   C27   S    
