data_mof_unit_63240.cif
_audit_creation_date              2012-12-10T16:53:46-0500
_audit_creation_method            fapswitch 2.2
_symmetry_space_group_name_H-M    P1
_symmetry_Int_Tables_number       1
_space_group_crystal_system       monoclinic
_cell_length_a                    31.108127
_cell_length_b                    30.543284
_cell_length_c                    21.051799
_cell_angle_alpha                 90.0
_cell_angle_beta                  136.227256
_cell_angle_gamma                 90.0
_cell_volume                      13837.5501769

loop_
_atom_site_label
_atom_site_type_symbol
_atom_type_description
_atom_site_fract_x
_atom_site_fract_y
_atom_site_fract_z
_atom_type_partial_charge
C1    C     C_R   0.805810 0.809730 0.493493 0.977518
C2    C     C_R   0.557824 0.438015 0.498748 0.955322
C3    C     C_R   0.557824 0.561985 0.498748 0.955323
C4    C     C_R   0.442176 0.438015 0.501252 0.955323
C5    C     C_R   0.942176 0.061985 0.501252 0.955321
C6    C     C_R   0.057824 0.938015 0.498748 0.955322
C7    C     C_R   0.057824 0.061985 0.498748 0.955323
C8    C     C_R   0.942176 0.938015 0.501252 0.955323
C9    C     C_R   0.664378 0.749760 0.328318 0.883232
C10   C     C_R   0.335622 0.250240 0.671682 0.883233
C11   C     C_R   0.335622 0.749760 0.671682 0.883233
C12   C     C_R   0.194189 0.190270 0.506507 0.977520
C13   C     C_R   0.664378 0.250240 0.328318 0.883232
C14   C     C_R   0.164378 0.249760 0.328318 0.883232
C15   C     C_R   0.835622 0.750240 0.671682 0.883233
C16   C     C_R   0.835622 0.249760 0.671682 0.883233
C17   C     C_R   0.164378 0.750240 0.328318 0.883232
C18   C     C_1   0.613849 0.749196 0.226728 -0.197223
C19   C     C_1   0.386151 0.250804 0.773271 -0.197223
C20   C     C_1   0.386151 0.749195 0.773271 -0.197223
C21   C     C_1   0.613849 0.250804 0.226728 -0.197223
C22   C     C_1   0.113849 0.249195 0.226728 -0.197223
C23   C     C_R   0.194189 0.809730 0.506507 0.977520
C24   C     C_1   0.886151 0.750804 0.773271 -0.197223
C25   C     C_1   0.886151 0.249195 0.773271 -0.197223
C26   C     C_1   0.113849 0.750804 0.226728 -0.197223
C27   C     C_1   0.571481 0.748957 0.142149 0.002619
C28   C     C_1   0.428519 0.251043 0.857851 0.002619
C29   C     C_1   0.428519 0.748957 0.857851 0.002619
C30   C     C_1   0.571481 0.251043 0.142149 0.002619
C31   C     C_1   0.071481 0.248956 0.142149 0.002619
C32   C     C_1   0.928519 0.751043 0.857851 0.002619
C33   C     C_1   0.928519 0.248956 0.857851 0.002619
C34   C     C_R   0.805810 0.190270 0.493493 0.977518
C35   C     C_1   0.071481 0.751043 0.142149 0.002619
C36   C     C_1   0.521277 0.748840 0.042284 0.007570
C37   C     C_1   0.478722 0.251160 0.957716 0.007570
C38   C     C_1   0.478722 0.748840 0.957716 0.007570
C39   C     C_1   0.521277 0.251160 0.042284 0.007570
C40   C     C_1   0.021277 0.248840 0.042284 0.007570
C41   C     C_1   0.978722 0.751160 0.957716 0.007570
C42   C     C_1   0.978722 0.248840 0.957716 0.007570
C43   C     C_1   0.021277 0.751160 0.042284 0.007570
C44   C     C_2   0.878728 0.871601 0.435945 0.522229
C45   C     C_R   0.305810 0.309730 0.493493 0.977518
C46   C     C_2   0.121271 0.128399 0.564055 0.522230
C47   C     C_2   0.121271 0.871601 0.564055 0.522230
C48   C     C_2   0.878728 0.128399 0.435945 0.522230
C49   C     C_2   0.378728 0.371601 0.435945 0.522230
C50   C     C_2   0.621271 0.628399 0.564055 0.522230
C51   C     C_2   0.621271 0.371601 0.564055 0.522230
C52   C     C_2   0.378728 0.628399 0.435945 0.522229
C53   C     C_2   0.917423 0.899893 0.507065 -0.282909
C54   C     C_2   0.082577 0.100107 0.492935 -0.282910
C55   C     C_2   0.082577 0.899893 0.492935 -0.282910
C56   C     C_R   0.694189 0.690270 0.506507 0.977520
C57   C     C_2   0.917423 0.100107 0.507065 -0.282909
C58   C     C_2   0.417423 0.399893 0.507065 -0.282909
C59   C     C_2   0.582577 0.600107 0.492935 -0.282910
C60   C     C_2   0.582577 0.399893 0.492935 -0.282910
C61   C     C_2   0.417423 0.600107 0.507065 -0.282909
C62   C     C_2   0.852955 0.834830 0.445705 -0.294281
C63   C     C_2   0.147045 0.165170 0.554295 -0.294280
C64   C     C_2   0.147045 0.834830 0.554295 -0.294281
C65   C     C_2   0.852955 0.165170 0.445704 -0.294281
C66   C     C_2   0.352955 0.334830 0.445704 -0.294281
C67   C     C_R   0.694189 0.309730 0.506507 0.977520
C68   C     C_2   0.647045 0.665170 0.554295 -0.294281
C69   C     C_2   0.647045 0.334830 0.554295 -0.294281
C70   C     C_2   0.352955 0.665170 0.445705 -0.294281
C71   C     C_2   0.826905 0.843643 0.473942 -0.384920
C72   C     C_2   0.173094 0.156357 0.526058 -0.384920
C73   C     C_2   0.173094 0.843643 0.526057 -0.384919
C74   C     C_2   0.826905 0.156357 0.473942 -0.384920
C75   C     C_2   0.326905 0.343643 0.473942 -0.384920
C76   C     C_2   0.673094 0.656357 0.526058 -0.384920
C77   C     C_2   0.673094 0.343643 0.526057 -0.384919
C78   C     C_R   0.305810 0.690270 0.493493 0.977518
C79   C     C_2   0.326905 0.656357 0.473942 -0.384919
C80   C     C_3   0.813683 0.854815 0.281154 -0.273969
C81   C     C_3   0.186317 0.145184 0.718846 -0.273967
C82   C     C_3   0.186317 0.854815 0.718845 -0.273969
C83   C     C_3   0.813683 0.145185 0.281154 -0.273968
C84   C     C_3   0.313682 0.354816 0.281154 -0.273967
C85   C     C_3   0.686317 0.645185 0.718845 -0.273970
C86   C     C_3   0.686317 0.354815 0.718845 -0.273969
C87   C     C_3   0.313683 0.645185 0.281154 -0.273969
C88   C     C_1   0.942675 0.891230 0.597062 0.156690
C89   C     C_R   0.442176 0.561985 0.501252 0.955321
C90   C     C_1   0.057325 0.108770 0.402938 0.156689
C91   C     C_1   0.057325 0.891230 0.402938 0.156690
C92   C     C_1   0.942675 0.108770 0.597062 0.156689
C93   C     C_1   0.442675 0.391230 0.597062 0.156690
C94   C     C_1   0.557325 0.608770 0.402938 0.156690
C95   C     C_1   0.557325 0.391230 0.402938 0.156690
C96   C     C_1   0.442675 0.608770 0.597062 0.156689
H1    H     H_    0.856132 0.801591 0.431025 0.180948
H2    H     H_    0.180232 0.122604 0.518787 0.159302
H3    H     H_    0.180232 0.877395 0.518787 0.159302
H4    H     H_    0.819767 0.122604 0.481213 0.159302
H5    H     H_    0.319767 0.377395 0.481213 0.159302
H6    H     H_    0.680233 0.622604 0.518787 0.159302
H7    H     H_    0.680232 0.377395 0.518787 0.159302
H8    H     H_    0.319767 0.622604 0.481213 0.159302
H9    H     H_    0.772870 0.863768 0.267407 0.161637
H10   H     H_    0.820822 0.818786 0.288100 0.160385
H11   H     H_    0.803264 0.865164 0.220668 0.190801
H12   H     H_    0.143868 0.198409 0.568975 0.180948
H13   H     H_    0.179178 0.181213 0.711900 0.160384
H14   H     H_    0.227130 0.136231 0.732593 0.161637
H15   H     H_    0.196736 0.134835 0.779332 0.190800
H16   H     H_    0.227130 0.863768 0.732593 0.161637
H17   H     H_    0.179177 0.818786 0.711899 0.160385
H18   H     H_    0.196736 0.865164 0.779332 0.190801
H19   H     H_    0.820822 0.181214 0.288100 0.160384
H20   H     H_    0.772870 0.136232 0.267407 0.161637
H21   H     H_    0.803264 0.134835 0.220668 0.190801
H22   H     H_    0.272870 0.363768 0.267407 0.161636
H23   H     H_    0.143868 0.801591 0.568975 0.180948
H24   H     H_    0.320821 0.318786 0.288100 0.160384
H25   H     H_    0.303264 0.365165 0.220668 0.190800
H26   H     H_    0.679178 0.681214 0.711900 0.160385
H27   H     H_    0.727130 0.636232 0.732593 0.161638
H28   H     H_    0.696736 0.634835 0.779332 0.190801
H29   H     H_    0.727130 0.363768 0.732593 0.161638
H30   H     H_    0.679178 0.318786 0.711900 0.160385
H31   H     H_    0.696736 0.365164 0.779332 0.190801
H32   H     H_    0.320822 0.681214 0.288100 0.160385
H33   H     H_    0.272870 0.636232 0.267407 0.161637
H34   H     H_    0.856132 0.198409 0.431025 0.180948
H35   H     H_    0.303264 0.634835 0.220668 0.190801
H36   H     H_    0.356132 0.301591 0.431025 0.180948
H37   H     H_    0.643868 0.698409 0.568975 0.180948
H38   H     H_    0.643868 0.301591 0.568975 0.180948
H39   H     H_    0.356132 0.698409 0.431025 0.180948
H40   H     H_    0.819767 0.877395 0.481212 0.159302
N1    N     N_1   0.962836 0.884408 0.668579 -0.178990
N2    N     N_1   0.037164 0.115592 0.331421 -0.178990
N3    N     N_1   0.037164 0.884408 0.331421 -0.178990
N4    N     N_1   0.962836 0.115592 0.668579 -0.178990
N5    N     N_1   0.462836 0.384408 0.668579 -0.178990
N6    N     N_1   0.537164 0.615592 0.331421 -0.178990
N7    N     N_1   0.537164 0.384408 0.331421 -0.178990
N8    N     N_1   0.462836 0.615592 0.668579 -0.178990
O1    O     O_R   0.820750 0.769700 0.499970 -0.611011
O2    O     O_R   0.230310 0.179230 0.500010 -0.619301
O3    O     O_R   0.230310 0.820770 0.500010 -0.619301
O4    O     O_R   0.769690 0.179230 0.499990 -0.619300
O5    O     O_R   0.269690 0.320770 0.499990 -0.619300
O6    O     O_R   0.730310 0.679230 0.500010 -0.619301
O7    O     O_R   0.730310 0.320770 0.500010 -0.619301
O8    O     O_R   0.269690 0.679230 0.499990 -0.619300
O9    O     O_R   0.712390 0.724470 0.373700 -0.603254
O10   O     O_R   0.287610 0.275530 0.626300 -0.603254
O11   O     O_R   0.287610 0.724470 0.626300 -0.603255
O12   O     O_R   0.179250 0.230300 0.500030 -0.611011
O13   O     O_R   0.712390 0.275530 0.373700 -0.603255
O14   O     O_R   0.212390 0.224470 0.373700 -0.603254
O15   O     O_R   0.787610 0.775530 0.626300 -0.603254
O16   O     O_R   0.787610 0.224470 0.626300 -0.603255
O17   O     O_R   0.212390 0.775530 0.373700 -0.603255
O18   O     O_R   0.661330 0.775540 0.373730 -0.600347
O19   O     O_R   0.338670 0.224460 0.626270 -0.600347
O20   O     O_R   0.338670 0.775540 0.626270 -0.600347
O21   O     O_R   0.661330 0.224460 0.373730 -0.600346
O22   O     O_R   0.161330 0.275540 0.373730 -0.600347
O23   O     O_R   0.179250 0.769700 0.500030 -0.611011
O24   O     O_R   0.838670 0.724460 0.626270 -0.600347
O25   O     O_R   0.838670 0.275540 0.626270 -0.600347
O26   O     O_R   0.161330 0.724460 0.373730 -0.600346
O27   O     O_R   0.419140 0.545230 0.428730 -0.578527
O28   O     O_R   0.580860 0.454770 0.571270 -0.578527
O29   O     O_R   0.580860 0.545230 0.571270 -0.578528
O30   O     O_R   0.419140 0.454770 0.428730 -0.578527
O31   O     O_R   0.919140 0.045230 0.428730 -0.578527
O32   O     O_R   0.080860 0.954770 0.571270 -0.578527
O33   O     O_R   0.080860 0.045230 0.571270 -0.578528
O34   O     O_R   0.820750 0.230300 0.499970 -0.611011
O35   O     O_R   0.919140 0.954770 0.428730 -0.578527
O36   O     O_R   0.490420 0.545230 0.571310 -0.625671
O37   O     O_R   0.509580 0.454770 0.428690 -0.625671
O38   O     O_R   0.509580 0.545230 0.428690 -0.625671
O39   O     O_R   0.490420 0.454770 0.571310 -0.625671
O40   O     O_R   0.990420 0.045230 0.571310 -0.625671
O41   O     O_R   0.009580 0.954770 0.428690 -0.625671
O42   O     O_R   0.009580 0.045230 0.428690 -0.625671
O43   O     O_R   0.990420 0.954770 0.571310 -0.625671
O44   O     O_3   0.868019 0.876555 0.359392 -0.590104
O45   O     O_R   0.320750 0.269700 0.499970 -0.611011
O46   O     O_3   0.131981 0.123444 0.640607 -0.590105
O47   O     O_3   0.131981 0.876555 0.640608 -0.590104
O48   O     O_3   0.868019 0.123444 0.359392 -0.590104
O49   O     O_3   0.368019 0.376555 0.359393 -0.590105
O50   O     O_3   0.631981 0.623444 0.640607 -0.590105
O51   O     O_3   0.631981 0.376555 0.640608 -0.590104
O52   O     O_3   0.368019 0.623444 0.359392 -0.590104
O53   O     O_R   0.679250 0.730300 0.500030 -0.611011
O54   O     O_R   0.679250 0.269700 0.500030 -0.611011
O55   O     O_R   0.320750 0.730300 0.499970 -0.611011
O56   O     O_R   0.769690 0.820770 0.499990 -0.619300
Zn1   Zn    Zn3+2 0.784090 0.715900 0.499990 0.965411
Zn2   Zn    Zn3+2 0.547600 0.500000 0.595200 1.033682
Zn3   Zn    Zn3+2 0.952400 0.000000 0.404800 1.033682
Zn4   Zn    Zn3+2 0.047600 1.000000 0.595200 1.033682
Zn5   Zn    Zn3+2 0.215910 0.284100 0.500010 0.965412
Zn6   Zn    Zn3+2 0.215910 0.715900 0.500010 0.965411
Zn7   Zn    Zn3+2 0.784090 0.284100 0.499990 0.965411
Zn8   Zn    Zn3+2 0.284090 0.215900 0.499990 0.965411
Zn9   Zn    Zn3+2 0.715910 0.784100 0.500010 0.965412
Zn10  Zn    Zn3+2 0.715910 0.215900 0.500010 0.965412
Zn11  Zn    Zn3+2 0.284090 0.784100 0.499990 0.965411
Zn12  Zn    Zn3+2 0.452400 0.500000 0.404800 1.033682

loop_
_geom_bond_atom_site_label_1
_geom_bond_atom_site_label_2
_ccdc_geom_bond_type
C95   N7    T    
C10   O19   A    
O40   Zn4   S    
C57   C92   S    
C82   O47   S    
C16   O16   A    
C41   C43   T    
O32   Zn4   S    
C7    O42   A    
C69   C77   D    
C52   O52   S    
C6    C55   S    
C67   O54   A    
C10   O10   A    
O42   Zn3   S    
C65   H34   S    
C61   C96   S    
C78   O8    A    
C48   C57   D    
C72   H2    S    
C31   C40   S    
O17   Zn11  S    
C6    O41   A    
C69   H38   S    
C64   H23   S    
C6    O32   A    
C14   O14   A    
O37   Zn12  S    
C56   C76   S    
C50   C59   D    
O8    Zn6   S    
C68   H37   S    
C58   C93   S    
C46   O46   S    
C87   O52   S    
O26   Zn6   S    
O36   Zn2   S    
C52   C61   D    
C87   H33   S    
C2    C60   S    
C85   O50   S    
C86   H30   S    
O20   Zn11  S    
C12   O2    A    
C80   H10   S    
O19   Zn8   S    
O24   Zn1   S    
C7    O33   A    
C85   H28   S    
C14   C22   S    
C89   O36   A    
C87   H35   S    
C55   C91   S    
C23   C73   S    
C1    O1    A    
C16   O25   A    
C3    O29   A    
C81   H15   S    
C67   C77   S    
C29   C38   S    
C30   C39   S    
C64   C73   D    
C59   C94   S    
C48   C65   S    
C14   O22   A    
C35   C43   S    
C84   O49   S    
C5    O40   A    
O9    Zn1   S    
C11   O11   A    
O11   Zn6   S    
C40   C42   T    
C12   C72   S    
C9    O9    A    
C4    O30   A    
C86   H29   S    
C5    O31   A    
C34   O4    A    
C12   O12   A    
O45   Zn8   S    
O3    Zn11  S    
C44   C53   D    
C13   O13   A    
C87   H32   S    
C90   N2    T    
C61   C89   S    
C66   H36   S    
C20   C29   T    
C8    O43   A    
C76   H6    S    
C81   O46   S    
C11   C20   S    
C49   C66   S    
C67   O7    A    
C94   N6    T    
O23   Zn6   S    
C83   H19   S    
C83   O48   S    
C52   C70   S    
C89   O27   A    
C45   O5    A    
O2    Zn8   S    
C22   C31   T    
O5    Zn5   S    
C47   C64   S    
C17   O26   A    
C74   H4    S    
C44   C62   S    
C84   H25   S    
C23   O3    A    
O43   Zn4   S    
C65   C74   D    
O29   Zn2   S    
C2    O37   A    
C82   H16   S    
C24   C32   T    
C15   O15   A    
O12   Zn5   S    
O4    Zn10  S    
C86   O51   S    
C96   N8    T    
C62   H1    S    
O54   Zn10  S    
C26   C35   T    
C13   O21   A    
C80   H11   S    
C10   C19   S    
C84   H24   S    
O34   Zn7   S    
C46   C54   D    
O38   Zn12  S    
C80   O44   S    
O33   Zn4   S    
C13   C21   S    
C85   H26   S    
C1    C71   S    
C81   H14   S    
O28   Zn2   S    
C19   C28   T    
C82   H18   S    
C17   O17   A    
C34   C74   S    
C91   N3    T    
O6    Zn1   S    
C45   O45   A    
C15   C24   S    
O22   Zn5   S    
C81   H13   S    
C70   H39   S    
C23   O23   A    
C79   H8    S    
C34   O34   A    
C1    O56   A    
C78   O55   A    
C17   C26   S    
C32   C41   S    
C56   O6    A    
C92   N4    T    
C71   H40   S    
C93   N5    T    
C47   C55   D    
C56   O53   A    
C16   C25   S    
C73   H3    S    
C33   C42   S    
C86   H31   S    
C78   C79   S    
O39   Zn2   S    
C83   H20   S    
C18   C27   T    
C82   H17   S    
O35   Zn3   S    
C8    C53   S    
O25   Zn7   S    
C2    O28   A    
C54   C90   S    
O18   Zn9   S    
C27   C36   S    
C68   C76   D    
O16   Zn10  S    
C21   C30   T    
O56   Zn9   S    
O15   Zn9   S    
C5    C57   S    
C46   C63   S    
C45   C75   S    
O14   Zn8   S    
C83   H21   S    
C36   C38   T    
O31   Zn3   S    
C37   C39   T    
C51   O51   S    
C15   O24   A    
O30   Zn12  S    
O1    Zn1   S    
O27   Zn12  S    
C50   O50   S    
C8    O35   A    
O41   Zn3   S    
C70   C79   D    
C49   O49   S    
C28   C37   S    
C44   O44   S    
C66   C75   D    
C80   H9    S    
C11   O20   A    
C62   C71   D    
C85   H27   S    
C53   C88   S    
O55   Zn11  S    
C4    O39   A    
C47   O47   S    
C9    O18   A    
O21   Zn10  S    
C3    O38   A    
C88   N1    T    
C48   O48   S    
O10   Zn5   S    
O53   Zn9   S    
C49   C58   D    
C60   C95   S    
C9    C18   S    
C63   C72   D    
C84   H22   S    
C4    C58   S    
C77   H7    S    
C75   H5    S    
C51   C60   D    
C51   C69   S    
C7    C54   S    
O7    Zn7   S    
C63   H12   S    
O13   Zn7   S    
C50   C68   S    
C25   C33   T    
C3    C59   S    
