data_mof_unit_45273.cif
_audit_creation_date              2012-12-10T16:42:32-0500
_audit_creation_method            fapswitch 2.2
_symmetry_space_group_name_H-M    P1
_symmetry_Int_Tables_number       1
_space_group_crystal_system       triclinic
_cell_length_a                    7.478217
_cell_length_b                    8.690485
_cell_length_c                    10.859122
_cell_angle_alpha                 89.318999
_cell_angle_beta                  72.894872
_cell_angle_gamma                 102.950021
_cell_volume                      655.057928132

loop_
_atom_site_label
_atom_site_type_symbol
_atom_type_description
_atom_site_fract_x
_atom_site_fract_y
_atom_site_fract_z
_atom_type_partial_charge
C1    C     C_R   0.452113 0.199709 0.503801 0.873910
C2    C     C_R   0.547892 0.800289 0.496180 0.886388
C3    C     C_R   0.422773 0.486636 0.743962 0.821502
C4    C     C_R   0.576455 0.508479 0.256533 0.827001
C5    C     C_2   0.380053 0.464984 0.884661 0.013004
C6    C     C_2   0.616120 0.514751 0.116750 0.033371
C7    C     C_2   0.512580 0.424908 0.931395 -0.149304
C8    C     C_2   0.492961 0.415482 0.069036 -0.171169
C9    C     C_2   0.425384 0.031726 0.505636 -0.370441
C10   C     C_2   0.574629 0.968276 0.494316 -0.372677
Cu1   Cu    Cu3+1 0.688910 0.517800 0.485820 0.942717
Cu2   Cu    Cu3+1 0.311090 0.482200 0.514180 0.942103
H1    H     H_    0.370093 0.330305 0.133124 0.147820
H2    H     H_    0.647808 0.409768 0.866242 0.151675
H3    H     H_    0.281617 0.959892 0.516327 0.180198
H4    H     H_    0.718396 0.040112 0.483622 0.179432
H5    H     H_    0.916606 0.375143 0.601031 0.220089
H6    H     H_    0.083385 0.624877 0.398986 0.225792
N1    N     N_2   0.027170 0.455360 0.535550 -0.218096
N2    N     N_2   0.972830 0.544640 0.464450 -0.216409
O1    O     O_R   0.622710 0.286400 0.490790 -0.583763
O2    O     O_R   0.377290 0.713600 0.509210 -0.580490
O3    O     O_R   0.303660 0.256330 0.514730 -0.587781
O4    O     O_R   0.696340 0.743670 0.485270 -0.584341
O5    O     O_R   0.600900 0.509520 0.671740 -0.600019
O6    O     O_R   0.399100 0.490480 0.328260 -0.597726
O7    O     O_R   0.281840 0.479450 0.695690 -0.573127
O8    O     O_R   0.718160 0.520550 0.304310 -0.575241
C11   C     C_3   0.778629 0.643345 0.032236 -0.862233
H7    H     H_    0.871353 0.706820 0.087886 0.232170
H8    H     H_    0.868508 0.592318 0.950719 0.241869
H9    H     H_    0.718108 0.730667 0.992069 0.242374
C12   C     C_3   0.192080 0.492379 0.969969 -0.826543
H10   H     H_    0.187317 0.616274 0.948611 0.226529
H11   H     H_    0.070327 0.409391 0.949018 0.233457
H12   H     H_    0.172182 0.475303 0.074852 0.247958

loop_
_geom_bond_atom_site_label_1
_geom_bond_atom_site_label_2
_ccdc_geom_bond_type
C2    O2    A    
C4    O6    A    
Cu1   Cu2   S    
C1    O1    A    
C8    H1    S    
C9    C10   D    
N1    N2    D    
C6    C11   S    
C3    O7    A    
C12   H10   S    
C9    H3    S    
C7    C8    S    
C11   H8    S    
C10   H4    S    
Cu2   O3    S    
C11   H7    S    
Cu1   O8    S    
Cu2   N1    S    
C12   H11   S    
C1    O3    A    
C11   H9    S    
H6    N2    S    
C2    O4    A    
Cu1   N2    S    
Cu1   O5    S    
Cu2   O7    S    
C2    C10   S    
Cu2   O2    S    
Cu1   O4    S    
C3    O5    A    
C12   H12   S    
C1    C9    S    
C4    C6    S    
C4    O8    A    
C5    C7    D    
C6    C8    D    
H5    N1    S    
Cu1   O1    S    
C7    H2    S    
Cu2   O6    S    
C3    C5    S    
C5    C12   S    
