data_mof_unit_18810.cif
_audit_creation_date              2012-12-11T16:17:56-0500
_audit_creation_method            fapswitch 2.2
_symmetry_space_group_name_H-M    P1
_symmetry_Int_Tables_number       1
_space_group_crystal_system       triclinic
_cell_length_a                    14.030105
_cell_length_b                    14.073075
_cell_length_c                    30.072937
_cell_angle_alpha                 97.202492
_cell_angle_beta                  97.028874
_cell_angle_gamma                 61.199468
_cell_volume                      5149.12150638

loop_
_atom_site_label
_atom_site_type_symbol
_atom_type_description
_atom_site_fract_x
_atom_site_fract_y
_atom_site_fract_z
_atom_type_partial_charge
C1    C     C_R   0.386685 0.708466 0.441515 0.540677
C2    C     C_R   0.417366 0.296869 0.221863 0.029970
C3    C     C_R   0.424982 0.300772 0.268814 -0.109619
C4    C     C_R   0.331374 0.351667 0.292905 0.027798
C5    C     C_R   0.313290 0.344612 0.198871 0.026416
C6    C     C_1   0.300764 0.328135 0.150767 -0.073529
C7    C     C_1   0.346989 0.355836 0.340968 -0.068382
C8    C     C_1   0.290571 0.306145 0.111116 -0.030953
C9    C     C_R   0.750507 0.376990 0.395736 -0.007195
C10   C     C_R   0.757369 0.281125 0.372477 -0.137748
C11   C     C_R   0.765026 0.262576 0.325943 0.013168
C12   C     C_R   0.398701 0.380869 0.426589 0.541233
C13   C     C_R   0.755610 0.346193 0.301497 0.042044
C14   C     C_R   0.750539 0.442761 0.324152 0.009538
C15   C     C_R   0.762255 0.451881 0.371868 0.006360
C16   C     C_R   0.746657 0.400104 0.140410 0.045951
C17   C     C_R   0.793768 0.390294 0.099305 -0.002105
C18   C     C_R   0.927556 0.203197 0.114005 -0.146532
C19   C     C_R   0.882571 0.213273 0.153788 -0.143358
C20   C     C_R   0.795307 0.311083 0.167851 0.033972
C21   C     C_1   0.769751 0.321890 0.213666 -0.054134
C22   C     C_1   0.758924 0.331345 0.253271 -0.044846
C23   C     C_R   0.707586 0.407208 0.441256 0.532894
C24   C     C_R   0.887225 0.291061 0.087122 0.010886
C25   C     C_R   0.370037 0.756836 0.398804 0.009284
C26   C     C_R   0.446944 0.784356 0.386983 -0.141300
C27   C     C_R   0.446342 0.805611 0.342966 -0.137729
C28   C     C_R   0.369363 0.799085 0.310357 0.047773
C29   C     C_R   0.288651 0.775836 0.321845 0.010898
C30   C     C_R   0.288942 0.756394 0.366396 -0.121605
C31   C     C_R   0.305287 0.793530 0.148995 -0.100631
C32   C     C_R   0.279578 0.820375 0.104039 0.010881
C33   C     C_R   0.366791 0.936145 0.121236 -0.145470
C34   C     C_R   0.389123 0.712276 0.568042 0.542379
C35   C     C_R   0.394763 0.905481 0.164806 -0.131183
C36   C     C_R   0.360756 0.837532 0.179058 0.017558
C37   C     C_1   0.372358 0.822820 0.225674 -0.047430
C38   C     C_1   0.374907 0.813020 0.264769 -0.039386
C39   C     C_R   0.304751 0.898708 0.090849 0.022256
C40   C     C_R   0.369339 0.363247 0.593148 0.021544
C41   C     C_R   0.394843 0.257729 0.604512 0.008721
C42   C     C_R   0.392605 0.242277 0.650432 0.027102
C43   C     C_R   0.359103 0.333726 0.682205 0.031902
C44   C     C_R   0.327749 0.436529 0.669334 -0.149312
C45   C     C_R   0.401397 0.381987 0.551685 0.531786
C46   C     C_R   0.332042 0.451443 0.625389 -0.155065
C47   C     C_R   0.225791 0.367879 0.826698 -0.127698
C48   C     C_R   0.209586 0.356602 0.869868 -0.147045
C49   C     C_R   0.406069 0.272860 0.889240 0.014119
C50   C     C_R   0.420695 0.284238 0.845215 -0.104623
C51   C     C_R   0.331304 0.327765 0.813969 0.020845
C52   C     C_1   0.346916 0.326551 0.767984 -0.040669
C53   C     C_1   0.355053 0.327039 0.728896 -0.039796
C54   C     C_R   0.298865 0.304021 0.900776 0.035836
C55   C     C_1   0.752487 0.383151 0.614052 -0.028295
C56   C     C_R   0.711934 0.408576 0.568795 0.544448
C57   C     C_R   0.763046 0.448773 0.732451 0.038575
C58   C     C_R   0.788891 0.433010 0.779230 0.047260
C59   C     C_R   0.844451 0.239672 0.762430 -0.112815
C60   C     C_R   0.824850 0.252387 0.716155 -0.001085
C61   C     C_R   0.788610 0.356472 0.701258 0.028151
C62   C     C_R   0.828823 0.327326 0.793475 0.015565
C63   C     C_1   0.862234 0.304699 0.839953 -0.068826
C64   C     C_1   0.773190 0.369026 0.653460 -0.075989
C65   C     C_1   0.897939 0.286995 0.878238 -0.031391
C66   C     C_1   0.372030 0.763112 0.612682 -0.034957
C67   C     C_1   0.366538 0.363920 0.380812 -0.032220
C68   C     C_R   0.265563 0.800436 0.718202 0.013149
C69   C     C_R   0.259354 0.818725 0.765144 -0.103732
C70   C     C_R   0.391688 0.886029 0.771725 0.012271
C71   C     C_R   0.400228 0.865191 0.725198 -0.118272
C72   C     C_R   0.338727 0.822656 0.698613 0.020382
C73   C     C_R   0.322560 0.859534 0.791807 0.026954
C74   C     C_1   0.308941 0.880462 0.839309 -0.071805
C75   C     C_1   0.356847 0.794990 0.651514 -0.081885
C76   C     C_1   0.291667 0.905990 0.878348 -0.024264
C77   C     C_R   0.949097 0.273474 0.047717 0.530078
C78   C     C_R   0.226987 0.403956 0.270276 0.013110
C79   C     C_R   0.275137 0.270309 0.065507 0.539931
C80   C     C_R   0.262063 0.952880 0.048535 0.527441
C81   C     C_R   0.951442 0.269585 0.922369 0.539951
C82   C     C_R   0.277757 0.267118 0.940355 0.536085
C83   C     C_R   0.261571 0.950910 0.922874 0.544284
C84   C     C_R   0.219428 0.397881 0.223024 -0.120686
Cr1   Cr    Cr6+3 0.581000 0.584320 0.508140 1.001381
Cr2   Cr    Cr6+3 0.339110 0.576430 0.496080 1.003656
Cr3   Cr    Cr6+3 0.579910 0.339270 0.495810 1.004469
Cr4   Cr    Cr6+3 0.082090 0.079210 0.982490 1.009761
Cr5   Cr    Cr6+3 0.082460 0.324610 0.994920 1.001540
Cr6   Cr    Cr6+3 0.323630 0.087860 0.996130 1.002649
H1    H     H_    0.919876 0.145471 0.174891 0.111722
H2    H     H_    0.998386 0.126854 0.105254 0.140502
H3    H     H_    0.280261 0.739864 0.160809 0.106137
H4    H     H_    0.229925 0.734113 0.375031 0.123556
H5    H     H_    0.510659 0.784487 0.411253 0.114312
H6    H     H_    0.437611 0.939789 0.188063 0.111326
H7    H     H_    0.388856 0.994886 0.112305 0.142277
H8    H     H_    0.139971 0.433515 0.204782 0.103402
H9    H     H_    0.508202 0.823556 0.334021 0.102299
H10   H     H_    0.127250 0.381823 0.877937 0.129928
H11   H     H_    0.156206 0.403050 0.802579 0.112187
H12   H     H_    0.303795 0.505361 0.694099 0.120654
H13   H     H_    0.313326 0.531657 0.617217 0.133669
H14   H     H_    0.501867 0.256536 0.834802 0.102668
H15   H     H_    0.875117 0.160647 0.775015 0.111136
H16   H     H_    0.204799 0.802607 0.781579 0.106701
H17   H     H_    0.455104 0.882279 0.709535 0.105148
H18   H     H_    0.504822 0.263909 0.286768 0.110737
H19   H     H_    0.754079 0.221034 0.390616 0.127262
O1    O     O_R   0.688580 0.499770 0.460490 -0.522177
O2    O     O_R   0.348600 0.476260 0.536540 -0.505286
O3    O     O_R   0.494840 0.313840 0.539010 -0.520672
O4    O     O_R   0.672120 0.351750 0.545910 -0.494220
O5    O     O_3   0.500010 0.500010 0.500010 -0.233624
O6    O     O_R   0.167510 0.972920 0.030390 -0.525937
O7    O     O_R   0.990840 0.178580 0.027590 -0.500678
O8    O     O_R   0.972840 0.345510 0.038590 -0.519347
O9    O     O_R   0.181550 0.320660 0.045200 -0.493890
O10   O     O_R   0.346150 0.177650 0.050510 -0.517538
O11   O     O_R   0.314200 0.996600 0.036060 -0.505127
O12   O     O_R   0.480400 0.672610 0.462660 -0.504398
O13   O     O_R   0.168690 0.969990 0.933130 -0.508933
O14   O     O_R   0.991920 0.175870 0.937430 -0.491540
O15   O     O_R   0.974010 0.342590 0.941330 -0.519890
O16   O     O_R   0.182630 0.317940 0.955040 -0.505386
O17   O     O_R   0.347320 0.174720 0.953250 -0.520214
O18   O     O_R   0.315290 0.993890 0.945900 -0.495872
O19   O     O_3   0.162730 0.163890 0.991180 -0.233371
O20   O     O_R   0.315310 0.685650 0.451800 -0.519659
O21   O     O_R   0.346220 0.474990 0.446280 -0.500016
O22   O     O_R   0.492270 0.312460 0.441630 -0.512620
O23   O     O_R   0.669740 0.350480 0.455640 -0.500181
O24   O     O_R   0.691150 0.501150 0.557860 -0.509712
O25   O     O_R   0.482790 0.673890 0.552920 -0.494496
O26   O     O_R   0.317880 0.687030 0.549170 -0.515011
C85   C     C_3   0.123147 0.463168 0.295159 -0.252060
C86   C     C_3   0.120267 0.557426 0.328382 -0.290305
C87   C     C_3   0.005393 0.652010 0.332608 -0.470004
H20   H     H_    0.970386 0.686483 0.299628 0.147670
H21   H     H_    0.952231 0.624819 0.345254 0.149741
H22   H     H_    0.008563 0.717011 0.356820 0.136688
H23   H     H_    0.152899 0.527673 0.362277 0.168396
H24   H     H_    0.171808 0.589006 0.317886 0.170630
H25   H     H_    0.051396 0.495041 0.270394 0.136529
H26   H     H_    0.115473 0.404070 0.313796 0.134577
C88   C     C_3   0.776885 0.155596 0.302999 -0.274035
C89   C     C_3   0.894140 0.079866 0.291004 -0.436626
H27   H     H_    0.919213 0.116494 0.267172 0.157602
H28   H     H_    0.950435 0.063031 0.321820 0.152164
H29   H     H_    0.900789 0.001636 0.274921 0.126331
H30   H     H_    0.753784 0.113632 0.325209 0.130042
H31   H     H_    0.720889 0.169975 0.272225 0.143079
C90   C     C_3   0.226893 0.763954 0.072067 -0.275580
C91   C     C_3   0.299969 0.640671 0.067931 -0.457141
H32   H     H_    0.381777 0.620629 0.058082 0.151366
H33   H     H_    0.309022 0.605194 0.100112 0.143909
H34   H     H_    0.262843 0.602960 0.041766 0.139215
H35   H     H_    0.147709 0.782769 0.084408 0.139216
H36   H     H_    0.210519 0.790998 0.037697 0.173942
C92   C     C_3   0.202843 0.770326 0.287181 -0.258147
C93   C     C_3   0.250889 0.667355 0.254766 -0.289125
C94   C     C_3   0.163330 0.664291 0.220019 -0.459852
H37   H     H_    0.100592 0.657554 0.236618 0.156565
H38   H     H_    0.123608 0.739043 0.201489 0.143625
H39   H     H_    0.201197 0.593123 0.195393 0.149228
H40   H     H_    0.316496 0.663999 0.236539 0.165701
H41   H     H_    0.288120 0.593452 0.273712 0.168934
H42   H     H_    0.135947 0.771707 0.304084 0.128224
H43   H     H_    0.165113 0.844114 0.268015 0.147389
C95   C     C_3   0.420783 0.165261 0.567582 -0.258744
C96   C     C_3   0.320815 0.187818 0.534672 -0.299441
C97   C     C_3   0.346071 0.095280 0.497954 -0.451263
H44   H     H_    0.412965 0.085345 0.478400 0.156028
H45   H     H_    0.370360 0.017849 0.512938 0.151164
H46   H     H_    0.272394 0.114059 0.474717 0.144605
H47   H     H_    0.252688 0.197163 0.553306 0.161562
H48   H     H_    0.293753 0.264324 0.518459 0.161014
H49   H     H_    0.490422 0.152401 0.549323 0.169254
H50   H     H_    0.447870 0.085822 0.580804 0.134331
C98   C     C_3   0.505669 0.227363 0.922228 -0.269878
C99   C     C_3   0.497423 0.309851 0.961799 -0.430789
H51   H     H_    0.485740 0.386206 0.949471 0.147793
H52   H     H_    0.428527 0.328669 0.982021 0.155257
H53   H     H_    0.573880 0.275869 0.983932 0.134763
H54   H     H_    0.518654 0.150629 0.934426 0.170936
H55   H     H_    0.580679 0.205820 0.905493 0.124952
C100  C     C_3   0.432765 0.129709 0.666465 -0.252480
C101  C     C_3   0.557985 0.067041 0.669382 -0.296382
C102  C     C_3   0.601006 0.953962 0.685360 -0.468920
H56   H     H_    0.576358 0.960421 0.719732 0.149025
H57   H     H_    0.569530 0.906150 0.661994 0.151090
H58   H     H_    0.691338 0.910356 0.686381 0.140069
H59   H     H_    0.588933 0.058589 0.636092 0.155855
H60   H     H_    0.590819 0.112921 0.693337 0.169194
H61   H     H_    0.405180 0.134738 0.700136 0.146933
H62   H     H_    0.396390 0.084262 0.644546 0.132578
C103  C     C_3   0.703830 0.562571 0.715388 -0.265295
C104  C     C_3   0.782049 0.606172 0.709763 -0.443316
H63   H     H_    0.819049 0.621414 0.742709 0.146168
H64   H     H_    0.847571 0.547592 0.688026 0.161829
H65   H     H_    0.736602 0.684426 0.693717 0.132098
H66   H     H_    0.658124 0.563110 0.682502 0.157310
H67   H     H_    0.638571 0.620158 0.737321 0.129350
C105  C     C_3   0.521315 0.239963 0.197546 -0.276540
C106  C     C_3   0.569751 0.116682 0.196399 -0.439273
H68   H     H_    0.589662 0.089649 0.231041 0.140391
H69   H     H_    0.511101 0.090704 0.178409 0.156832
H70   H     H_    0.645850 0.077069 0.178485 0.137065
H71   H     H_    0.507294 0.263785 0.162560 0.150355
H72   H     H_    0.581423 0.264801 0.214752 0.134750
C107  C     C_3   0.777064 0.525845 0.814214 -0.264599
C108  C     C_3   0.887468 0.520312 0.829747 -0.433570
H73   H     H_    0.939005 0.448788 0.849310 0.163911
H74   H     H_    0.931650 0.514966 0.800573 0.143494
H75   H     H_    0.874869 0.594519 0.851629 0.131352
H76   H     H_    0.723458 0.606911 0.801913 0.132066
H77   H     H_    0.737940 0.523041 0.843647 0.142741
C109  C     C_3   0.840712 0.157394 0.681769 -0.247562
C110  C     C_3   0.859734 0.053004 0.700896 -0.310644
C111  C     C_3   0.862224 0.968793 0.663220 -0.460247
H78   H     H_    0.786411 0.002812 0.640749 0.149254
H79   H     H_    0.933486 0.942080 0.643160 0.153163
H80   H     H_    0.868427 0.897620 0.678041 0.142368
H81   H     H_    0.938963 0.017482 0.721266 0.159222
H82   H     H_    0.792772 0.071758 0.722380 0.157575
H83   H     H_    0.765927 0.184204 0.658492 0.155371
H84   H     H_    0.910319 0.138417 0.661832 0.148018
C112  C     C_3   0.196521 0.757700 0.688170 -0.249437
C113  C     C_3   0.119824 0.734506 0.712042 -0.314492
C114  C     C_3   0.059056 0.687302 0.678798 -0.457743
H85   H     H_    0.019214 0.738457 0.650016 0.150788
H86   H     H_    0.115830 0.604220 0.665453 0.160540
H87   H     H_    0.995800 0.682887 0.696020 0.138927
H88   H     H_    0.167314 0.675044 0.737637 0.158169
H89   H     H_    0.058984 0.811327 0.728940 0.158787
H90   H     H_    0.146477 0.818174 0.663201 0.149308
H91   H     H_    0.252539 0.681579 0.669493 0.143940
C115  C     C_3   0.455595 0.938055 0.798421 -0.250105
C116  C     C_3   0.575349 0.853713 0.806884 -0.305096
C117  C     C_3   0.641483 0.906481 0.831792 -0.455992
H92   H     H_    0.639345 0.968378 0.811527 0.148233
H93   H     H_    0.608257 0.945963 0.864762 0.155254
H94   H     H_    0.727587 0.843353 0.837698 0.139297
H95   H     H_    0.580507 0.790680 0.827366 0.162884
H96   H     H_    0.611455 0.813475 0.774425 0.155452
H97   H     H_    0.449647 0.004076 0.779570 0.135468
H98   H     H_    0.420603 0.977419 0.831100 0.161169
C118  C     C_3   0.742758 0.481847 0.067972 -0.246724
C119  C     C_3   0.778897 0.568877 0.082907 -0.288573
C120  C     C_3   0.716534 0.667061 0.054957 -0.455794
H99   H     H_    0.730447 0.641946 0.018805 0.155736
H100  H     H_    0.627807 0.705632 0.059491 0.154494
H101  H     H_    0.745290 0.727839 0.065984 0.138517
H102  H     H_    0.765576 0.596713 0.118897 0.149489
H103  H     H_    0.867458 0.534243 0.079070 0.190751
H104  H     H_    0.764533 0.450182 0.032924 0.149788
H105  H     H_    0.652513 0.518071 0.065954 0.131570
C121  C     C_3   0.646049 0.503059 0.155780 -0.273792
C122  C     C_3   0.545553 0.486115 0.150376 -0.441854
H106  H     H_    0.529066 0.463975 0.114583 0.146276
H107  H     H_    0.557271 0.420969 0.171106 0.153226
H108  H     H_    0.473726 0.562386 0.161601 0.138377
H109  H     H_    0.660283 0.526997 0.191455 0.141899
H110  H     H_    0.626817 0.574304 0.137537 0.144391
C123  C     C_3   0.720515 0.539741 0.297388 -0.248581
C124  C     C_3   0.819571 0.531329 0.276971 -0.303899
C125  C     C_3   0.790628 0.635883 0.255825 -0.465713
H111  H     H_    0.861986 0.625988 0.239486 0.133894
H112  H     H_    0.721642 0.654916 0.229933 0.149976
H113  H     H_    0.767662 0.704823 0.281994 0.147262
H114  H     H_    0.887025 0.514927 0.303296 0.158385
H115  H     H_    0.849572 0.462909 0.250690 0.173180
H116  H     H_    0.656851 0.546014 0.270298 0.142919
H117  H     H_    0.680182 0.617339 0.318459 0.134390
C126  C     C_3   0.792489 0.536844 0.396357 -0.238326
C127  C     C_3   0.899215 0.483593 0.426151 -0.287954
C128  C     C_3   0.927851 0.568682 0.451308 -0.453377
H118  H     H_    0.938666 0.615933 0.427262 0.144387
H119  H     H_    0.862350 0.625096 0.473490 0.154088
H120  H     H_    0.005262 0.527680 0.472372 0.142521
H121  H     H_    0.892980 0.435627 0.451194 0.177110
H122  H     H_    0.966673 0.427215 0.404748 0.152649
H123  H     H_    0.807164 0.581676 0.372649 0.125361
H124  H     H_    0.724619 0.600287 0.415680 0.171425

loop_
_geom_bond_atom_site_label_1
_geom_bond_atom_site_label_2
_ccdc_geom_bond_type
C42   C100  S    
C58   C62   A    
Cr2   O21   S    
C96   C97   S    
C80   O11   A    
C113  H89   S    
C47   H11   S    
C12   O22   A    
C71   H17   S    
C100  H62   S    
C61   C64   S    
C11   C13   A    
C73   C74   S    
C121  H109  S    
C55   C56   S    
C122  H108  S    
C34   C66   S    
C63   C65   T    
C56   O24   A    
C109  C110  S    
C45   O3    A    
C98   H54   S    
C118  H104  S    
Cr5   O16   S    
C58   C107  S    
C52   C53   T    
C40   C46   A    
C27   H9    S    
C119  C120  S    
C59   H15   S    
C12   O21   A    
C114  H87   S    
C90   H36   S    
C18   C24   A    
C21   C22   T    
Cr1   O5    S    
C89   H28   S    
C116  C117  S    
C88   C89   S    
C35   H6    S    
C1    O20   A    
C124  H114  S    
C4    C7    S    
C5    C6    S    
C85   H25   S    
C125  H113  S    
C68   C72   A    
C95   C96   S    
C34   O25   A    
C120  H100  S    
C49   C54   A    
C79   O9    A    
C90   H35   S    
C124  H115  S    
C108  H73   S    
C93   H41   S    
C10   H19   S    
C18   C19   A    
C41   C42   A    
C32   C39   A    
Cr3   O22   S    
C113  H88   S    
C102  H57   S    
C82   O17   A    
Cr3   O5    S    
C9    C23   S    
C110  H81   S    
C43   C53   S    
C89   H27   S    
C44   C46   A    
C16   C17   A    
C79   O10   A    
C105  H71   S    
C23   O23   A    
C8    C79   S    
C56   O4    A    
C80   O6    A    
Cr1   O12   S    
C104  H63   S    
C115  H98   S    
C32   C90   S    
C103  C104  S    
C77   O7    A    
C126  H123  S    
C123  C124  S    
C41   C95   S    
C91   H33   S    
C85   H26   S    
C14   C123  S    
C16   C20   A    
Cr1   O25   S    
C49   C98   S    
C57   C103  S    
C120  H101  S    
C106  H69   S    
C107  H76   S    
C86   H24   S    
C101  H60   S    
C59   C60   A    
C90   C91   S    
C13   C14   A    
C1    C25   S    
C114  H85   S    
C96   H48   S    
C104  H65   S    
Cr4   O14   S    
C107  H77   S    
C118  C119  S    
C26   H5    S    
C76   C83   S    
C111  H79   S    
C111  H78   S    
C113  C114  S    
C97   H45   S    
C93   C94   S    
C29   C92   S    
C94   H38   S    
C99   H52   S    
C40   C45   S    
C48   H10   S    
C12   C67   S    
C17   C24   A    
C112  H90   S    
C81   O15   A    
C51   C52   S    
C47   C48   A    
C89   H29   S    
C2    C105  S    
C91   H34   S    
Cr4   O13   S    
Cr1   O1    S    
C124  C125  S    
C112  H91   S    
C110  C111  S    
C5    C84   A    
C44   H12   S    
C68   C69   A    
C47   C51   A    
Cr3   O3    S    
C17   C118  S    
C25   C26   A    
C99   H51   S    
C70   C73   A    
C7    C67   T    
C87   H22   S    
C117  H94   S    
C110  H82   S    
C121  C122  S    
C88   H30   S    
C101  C102  S    
C35   C36   A    
Cr6   O11   S    
Cr3   O23   S    
Cr4   O7    S    
C102  H58   S    
C48   C54   A    
C43   C44   A    
C82   O16   A    
C4    C78   A    
C37   C38   T    
C60   C109  S    
C94   H39   S    
C16   C121  S    
C92   H43   S    
C24   C77   S    
C65   C81   S    
C107  C108  S    
C108  H75   S    
C28   C38   S    
C29   C30   A    
Cr6   O18   S    
C55   C64   T    
C115  H97   S    
C62   C63   S    
C117  H93   S    
C50   C51   A    
Cr6   O17   S    
C103  H66   S    
C11   C88   S    
C33   C39   A    
C20   C21   S    
C114  H86   S    
C126  H124  S    
C91   H32   S    
C116  H95   S    
C98   H55   S    
C88   H31   S    
C123  H116  S    
C40   C41   A    
C126  C127  S    
C81   O14   A    
C101  H59   S    
C119  H103  S    
C10   C11   A    
C128  H119  S    
C103  H67   S    
C26   C27   A    
C127  H122  S    
C2    C5    A    
C42   C43   A    
C74   C76   T    
C122  H106  S    
C109  H84   S    
C54   C82   S    
C70   C71   A    
C97   H44   S    
C97   H46   S    
C94   H37   S    
C9    C10   A    
C106  H70   S    
C25   C30   A    
C23   O1    A    
C106  H68   S    
C115  C116  S    
C28   C29   A    
C59   C62   A    
C99   H53   S    
C100  H61   S    
C98   C99   S    
C31   C36   A    
C46   H13   S    
C31   C32   A    
C121  H110  S    
C96   H47   S    
C83   O18   A    
C85   C86   S    
C122  H107  S    
C69   C73   A    
C6    C8    T    
C69   H16   S    
C68   C112  S    
Cr2   O20   S    
C57   C61   A    
C87   H21   S    
Cr5   O15   S    
C3    H18   S    
C86   C87   S    
C77   O8    A    
Cr2   O5    S    
C95   H50   S    
C116  H96   S    
C125  H111  S    
C84   H8    S    
C39   C80   S    
C86   H23   S    
C19   C20   A    
C2    C3    A    
C120  H99   S    
C18   H2    S    
C71   C72   A    
Cr4   O19   S    
Cr5   O8    S    
C31   H3    S    
C45   O2    A    
C92   C93   S    
C127  C128  S    
C125  H112  S    
C72   C75   S    
C57   C58   A    
C30   H4    S    
C34   O26   A    
Cr4   O6    S    
C66   C75   T    
C117  H92   S    
C33   C35   A    
C13   C22   S    
Cr2   O2    S    
C33   H7    S    
C92   H42   S    
C83   O13   A    
C9    C15   A    
C102  H56   S    
Cr6   O10   S    
C1    O12   A    
Cr5   O9    S    
Cr3   O4    S    
C19   H1    S    
C87   H20   S    
C108  H74   S    
C93   H40   S    
C112  C113  S    
C118  H105  S    
C78   C84   A    
C123  H117  S    
C119  H102  S    
C105  C106  S    
C100  C101  S    
C36   C37   S    
C49   C50   A    
C127  H121  S    
C128  H120  S    
C105  H72   S    
C27   C28   A    
Cr6   O19   S    
C14   C15   A    
C60   C61   A    
C104  H64   S    
C70   C115  S    
C15   C126  S    
C128  H118  S    
C78   C85   S    
Cr2   O26   S    
C109  H83   S    
C111  H80   S    
C50   H14   S    
C3    C4    A    
Cr1   O24   S    
C95   H49   S    
Cr5   O19   S    
