data_mof_unit_31859.cif
_audit_creation_date              2012-12-10T17:39:06-0500
_audit_creation_method            fapswitch 2.2
_symmetry_space_group_name_H-M    P1
_symmetry_Int_Tables_number       1
_space_group_crystal_system       triclinic
_cell_length_a                    25.552996
_cell_length_b                    34.307702
_cell_length_c                    21.433786
_cell_angle_alpha                 90.072686
_cell_angle_beta                  126.653592
_cell_angle_gamma                 90.136604
_cell_volume                      15074.5203988

loop_
_atom_site_label
_atom_site_type_symbol
_atom_type_description
_atom_site_fract_x
_atom_site_fract_y
_atom_site_fract_z
_atom_type_partial_charge
C1    C     C_R   0.858526 0.749657 0.000013 0.854056
C2    C     C_3   0.741884 0.278778 0.951608 0.023082
C3    C     C_R   0.646465 0.214990 0.457684 0.521515
C4    C     C_R   0.157557 0.295467 0.459978 0.509519
C5    C     C_R   0.834812 0.699197 0.537205 0.528436
C6    C     C_R   0.846448 0.292931 0.540481 0.510193
C7    C     C_R   0.150760 0.709850 0.458626 0.524015
C8    C     C_R   0.724449 0.813493 0.541328 0.040207
C9    C     C_R   0.306802 0.206087 0.460211 0.053877
C10   C     C_R   0.308744 0.791315 0.460387 0.077144
C11   C     C_R   0.689704 0.209687 0.538669 0.055746
C12   C     C_R   0.191141 0.290324 0.540092 0.076184
C13   C     C_3   0.742251 0.720467 0.952894 0.038049
C14   C     C_R   0.783872 0.692151 0.457809 0.026152
C15   C     C_R   0.813008 0.287208 0.460433 0.073763
C16   C     C_R   0.195347 0.704044 0.539290 0.056435
C17   C     C_R   0.946442 0.081656 0.932105 0.079444
C18   C     C_R   0.045337 0.919323 0.065998 0.074688
C19   C     C_R   0.047918 0.080710 0.065310 0.079569
C20   C     C_R   0.943527 0.917625 0.932245 0.042358
C21   C     C_R   0.456053 0.580185 0.935060 0.080607
C22   C     C_R   0.556903 0.417775 0.071168 0.044920
C23   C     C_R   0.554052 0.582324 0.070780 0.056813
C24   C     C_3   0.222659 0.285863 0.979364 0.024858
C25   C     C_R   0.458498 0.419415 0.934954 0.086278
C26   C     C_R   0.998422 0.101562 0.998716 -0.039523
C27   C     C_R   0.996957 0.898285 0.998463 -0.042284
C28   C     C_R   0.503237 0.601612 0.002489 -0.040850
C29   C     C_R   0.504714 0.398369 0.003100 -0.057454
C30   C     C_R   0.036891 0.040809 0.071701 -0.004611
C31   C     C_R   0.941468 0.958885 0.933594 -0.038333
C32   C     C_R   0.947401 0.040562 0.931602 -0.023749
C33   C     C_R   0.034818 0.959207 0.071212 0.025955
C34   C     C_R   0.553476 0.541102 0.071729 -0.023244
C35   C     C_3   0.758521 0.221546 0.049176 0.028423
C36   C     C_R   0.470605 0.459122 0.930972 0.022696
C37   C     C_R   0.468725 0.540526 0.930250 -0.002941
C38   C     C_R   0.559696 0.459148 0.070548 -0.013568
C39   C     C_R   0.990552 0.020404 0.002288 -0.042375
C40   C     C_R   0.989559 0.979401 0.002197 -0.037109
C41   C     C_R   0.513064 0.520521 0.000622 -0.037653
C42   C     C_R   0.513996 0.479503 0.000857 -0.050001
C43   C     C_R   0.066655 0.020736 0.143879 0.126158
C44   C     C_R   0.890022 0.980800 0.870842 0.154247
C45   C     C_R   0.906025 0.018674 0.862595 0.153461
C46   C     C_3   0.277183 0.785817 0.019441 -0.008366
C47   C     C_R   0.063181 0.979127 0.142893 0.131063
C48   C     C_R   0.591991 0.519456 0.141345 0.132812
C49   C     C_R   0.445110 0.478748 0.859919 0.129328
C50   C     C_R   0.441956 0.520303 0.858765 0.123595
C51   C     C_R   0.609008 0.481358 0.135631 0.184135
C52   C     C_R   0.999990 0.855723 0.000057 0.834613
C53   C     C_R   0.000069 0.144246 0.000016 0.826427
C54   C     C_R   0.500407 0.355748 0.000308 0.798036
C55   C     C_R   0.500284 0.644251 0.000256 0.830168
C56   C     C_R   0.999896 0.644331 0.000402 0.912644
C57   C     C_3   0.277330 0.214090 0.021327 0.027891
C58   C     C_R   0.000092 0.355669 0.000188 0.927350
C59   C     C_R   0.500060 0.144381 0.999738 0.897782
C60   C     C_R   0.500129 0.855667 0.999032 0.913741
C61   C     C_R   0.010809 0.418107 0.062547 0.443462
C62   C     C_R   0.996527 0.582394 0.938816 0.457135
C63   C     C_R   0.994052 0.417554 0.938006 0.484678
C64   C     C_R   0.009941 0.582060 0.062018 0.468286
C65   C     C_R   0.483535 0.918218 0.041823 0.447549
C66   C     C_R   0.509216 0.082343 0.948361 0.447064
C67   C     C_R   0.516659 0.917643 0.955870 0.477904
C68   C     C_3   0.757582 0.779954 0.046021 0.043493
C69   C     C_R   0.496584 0.082293 0.053372 0.454926
C70   C     C_R   0.000921 0.397908 0.999727 -0.290534
C71   C     C_R   0.001038 0.602088 0.999502 -0.294152
C72   C     C_R   0.500273 0.897900 0.999232 -0.282139
C73   C     C_R   0.501003 0.102253 0.999529 -0.285538
C74   C     C_R   0.993886 0.458705 0.936970 -0.139697
C75   C     C_R   0.016351 0.541168 0.066120 -0.134018
C76   C     C_R   0.017895 0.458961 0.066605 -0.143217
C77   C     C_R   0.998967 0.541163 0.939626 -0.136821
C78   C     C_R   0.514469 0.958783 0.952669 -0.133188
C79   C     C_3   0.754977 0.215044 0.975314 0.024051
C80   C     C_R   0.494909 0.041273 0.052269 -0.129123
C81   C     C_R   0.490882 0.958985 0.048444 -0.126380
C82   C     C_R   0.515010 0.041273 0.953056 -0.127507
C83   C     C_R   0.007096 0.479449 0.002404 -0.160321
C84   C     C_R   0.007748 0.520625 0.002847 -0.164764
C85   C     C_R   0.504476 0.979512 0.002099 -0.167151
C86   C     C_R   0.505155 0.020713 0.002767 -0.163462
C87   C     C_R   0.982804 0.479217 0.872992 0.435142
C88   C     C_R   0.030605 0.520445 0.131698 0.435430
C89   C     C_R   0.035394 0.479650 0.133477 0.407507
C90   C     C_3   0.268524 0.759429 0.071245 0.036234
C91   C     C_R   0.991838 0.519907 0.878004 0.464282
C92   C     C_R   0.523174 0.979294 0.902237 0.434945
C93   C     C_R   0.482510 0.020368 0.099087 0.438577
C94   C     C_R   0.484523 0.979581 0.100484 0.439536
C95   C     C_R   0.528597 0.020247 0.907168 0.469047
C96   C     C_3   0.950777 0.395295 0.100914 -0.263508
C97   C     C_3   0.033275 0.627949 0.893155 -0.282140
C98   C     C_3   0.051199 0.385154 0.903694 -0.363807
C99   C     C_3   0.950507 0.610321 0.097363 -0.298083
C100  C     C_3   0.489730 0.874015 0.127513 -0.238482
C101  C     C_3   0.268563 0.241035 0.072443 0.006155
C102  C     C_3   0.550135 0.129765 0.909724 -0.224707
C103  C     C_3   0.597704 0.888421 0.957871 -0.344215
C104  C     C_3   0.443521 0.123119 0.084682 -0.234399
C105  C     C_3   0.886640 0.103788 0.866761 -0.419076
C106  C     C_3   0.843597 0.115363 0.891184 -0.914177
C107  C     C_3   0.111904 0.900953 0.125961 -0.427580
C108  C     C_3   0.147856 0.890670 0.091162 -0.882773
C109  C     C_3   0.114496 0.099744 0.122689 -0.442231
C110  C     C_3   0.147502 0.111001 0.084665 -0.893882
C111  C     C_3   0.893011 0.894541 0.858842 -0.361504
C112  C     C_R   0.141375 0.250126 0.999799 0.835831
C113  C     C_3   0.754038 0.784651 0.971764 0.020817
C114  C     C_3   0.848623 0.869691 0.868906 -0.844075
C115  C     C_3   0.389392 0.598112 0.874784 -0.439465
C116  C     C_3   0.353550 0.609322 0.909347 -0.898758
C117  C     C_3   0.604875 0.394652 0.145216 -0.376458
C118  C     C_3   0.588976 0.398284 0.203237 -0.777189
C119  C     C_3   0.610840 0.605472 0.139086 -0.396460
C120  C     C_3   0.655761 0.621610 0.120349 -0.876589
C121  C     C_3   0.391859 0.401409 0.872802 -0.419039
C122  C     C_3   0.353500 0.391573 0.904759 -0.882317
C123  C     C_3   0.090559 0.043275 0.218263 -0.398543
C124  C     C_3   0.231060 0.740138 0.927367 0.009053
C125  C     C_3   0.164352 0.039323 0.281815 -0.913738
C126  C     C_3   0.824075 0.976347 0.855804 -0.387116
C127  C     C_3   0.766270 0.976036 0.769882 -0.877354
C128  C     C_3   0.914520 0.025262 0.798956 -0.413158
C129  C     C_3   0.851549 0.021205 0.716829 -0.884576
C130  C     C_3   0.069142 0.957339 0.209138 -0.408365
C131  C     C_3   0.003279 0.955970 0.195661 -0.870717
C132  C     C_3   0.581695 0.527293 0.203187 -0.411701
C133  C     C_3   0.644036 0.525632 0.286269 -0.883460
C134  C     C_3   0.441212 0.456604 0.795197 -0.414496
C135  C     C_3   0.745377 0.285268 0.025468 0.028294
C136  C     C_3   0.508574 0.454204 0.812836 -0.864314
C137  C     C_3   0.421974 0.542691 0.785867 -0.393839
C138  C     C_3   0.349135 0.538364 0.718229 -0.922571
C139  C     C_3   0.677917 0.476949 0.159183 -0.394073
C140  C     C_3   0.729190 0.469872 0.246079 -0.881632
C141  C     C_3   0.990183 0.456672 0.776473 -0.175140
C142  C     C_3   0.001012 0.532102 0.212609 -0.208316
C143  C     C_3   0.124516 0.456455 0.246931 -0.226974
C144  C     C_3   0.055221 0.543662 0.845045 -0.322339
C145  C     C_3   0.568140 0.959172 0.840191 -0.184082
C146  C     C_3   0.745913 0.715709 0.027174 0.012896
C147  C     C_3   0.402765 0.036670 0.111537 -0.265230
C148  C     C_3   0.541546 0.959551 0.225856 -0.285085
C149  C     C_3   0.612938 0.047734 0.914179 -0.349776
C150  C     C_3   0.764059 0.176829 0.945635 -0.342698
C151  C     C_3   0.709649 0.147395 0.919597 -0.882934
C152  C     C_3   0.284154 0.769556 0.150457 -0.370451
C153  C     C_3   0.357087 0.774714 0.214050 -0.855168
C154  C     C_3   0.283164 0.231741 0.151535 -0.321824
C155  C     C_3   0.355815 0.226601 0.215888 -0.847943
C156  C     C_3   0.763810 0.821307 0.938680 -0.350432
C157  C     C_3   0.231348 0.258891 0.928227 0.033998
C158  C     C_3   0.714332 0.853040 0.918023 -0.913584
C159  C     C_3   0.215931 0.729982 0.848272 -0.325043
C160  C     C_3   0.143069 0.724687 0.784440 -0.848256
C161  C     C_3   0.736084 0.323386 0.055341 -0.348894
C162  C     C_3   0.790294 0.352950 0.081235 -0.870092
C163  C     C_3   0.738281 0.678360 0.060410 -0.348970
C164  C     C_3   0.789169 0.647605 0.080195 -0.889535
C165  C     C_3   0.215657 0.268108 0.848707 -0.367867
C166  C     C_3   0.142768 0.273191 0.785122 -0.854328
C167  C     C_3   0.187298 0.674227 0.958052 -0.365144
C168  C     C_3   0.800783 0.250574 0.998884 -0.273163
C169  C     C_3   0.217596 0.643546 0.936945 -0.888427
C170  C     C_3   0.734776 0.310057 0.895796 -0.313440
C171  C     C_3   0.672755 0.334149 0.859116 -0.865379
C172  C     C_3   0.736268 0.687879 0.899715 -0.318542
C173  C     C_3   0.672007 0.665483 0.858970 -0.850116
C174  C     C_3   0.188111 0.325397 0.957570 -0.365086
C175  C     C_3   0.218993 0.355643 0.936325 -0.884562
C176  C     C_3   0.765538 0.190338 0.105039 -0.316673
C177  C     C_3   0.827197 0.165942 0.141248 -0.879708
C178  C     C_3   0.311797 0.825521 0.040116 -0.322536
C179  C     C_3   0.198328 0.749807 0.999125 -0.260962
C180  C     C_3   0.281291 0.856027 0.061270 -0.850980
C181  C     C_3   0.311896 0.174637 0.043472 -0.371801
C182  C     C_3   0.280546 0.144296 0.063892 -0.886009
C183  C     C_3   0.763644 0.812765 0.098826 -0.330175
C184  C     C_3   0.828131 0.834927 0.139705 -0.847879
C185  C     C_3   0.858919 0.265953 0.205431 -0.349966
C186  C     C_3   0.178289 0.826003 0.859127 -0.299169
C187  C     C_3   0.178924 0.172574 0.861781 -0.309717
C188  C     C_3   0.856935 0.732602 0.203646 -0.351369
C189  C     C_3   0.320824 0.673434 0.139158 -0.316326
C190  C     C_3   0.198527 0.250137 0.999919 -0.269877
C191  C     C_3   0.642907 0.234034 0.795662 -0.332967
C192  C     C_3   0.642533 0.767679 0.795138 -0.346481
C193  C     C_3   0.321388 0.327336 0.138982 -0.308457
C194  C     C_3   0.619565 0.663560 0.307039 -0.336926
C195  C     C_3   0.293421 0.300837 0.762597 -0.372249
C196  C     C_3   0.301914 0.689867 0.758392 -0.374101
C197  C     C_3   0.714795 0.293992 0.238119 -0.379202
C198  C     C_3   0.199609 0.191286 0.241119 -0.376653
C199  C     C_3   0.765223 0.786566 0.738096 -0.407717
C200  C     C_3   0.791146 0.197983 0.757647 -0.383603
C201  C     C_3   0.800531 0.749470 0.998221 -0.273622
C202  C     C_3   0.207288 0.801037 0.238214 -0.373475
C203  C     C_3   0.617987 0.823048 0.289962 -0.294597
C204  C     C_3   0.659558 0.850661 0.279520 -0.762770
C205  C     C_3   0.415653 0.191967 0.708557 -0.360663
C206  C     C_3   0.486509 0.205925 0.754024 -0.675164
C207  C     C_3   0.446208 0.779384 0.708569 -0.351560
C208  C     C_3   0.464555 0.816937 0.756286 -0.672443
C209  C     C_3   0.583020 0.193001 0.291232 -0.313175
C210  C     C_3   0.512018 0.206621 0.243305 -0.756328
C211  C     C_3   0.053028 0.275540 0.293220 -0.331636
C212  C     C_3   0.301208 0.749778 0.999634 -0.263925
C213  C     C_3   0.030940 0.312608 0.244085 -0.701737
C214  C     C_3   0.911136 0.688658 0.709300 -0.298000
C215  C     C_3   0.981532 0.701505 0.746647 -0.802872
C216  C     C_3   0.948884 0.273277 0.707556 -0.339175
C217  C     C_3   0.971594 0.310760 0.755976 -0.747409
C218  C     C_3   0.085340 0.690979 0.290439 -0.355230
C219  C     C_3   0.014306 0.704280 0.245277 -0.669889
C220  C     C_3   0.750629 0.877424 0.471778 -0.352919
C221  C     C_3   0.446524 0.231927 0.566192 -0.353399
C222  C     C_3   0.351543 0.861544 0.566154 -0.322660
C223  C     C_R   0.141330 0.749900 0.999652 0.825204
C224  C     C_3   0.699543 0.249710 0.001769 -0.268146
C225  C     C_3   0.551298 0.237815 0.429571 -0.346424
C226  C     C_3   0.145169 0.359909 0.431901 -0.339448
C227  C     C_3   0.928126 0.713134 0.551443 -0.351990
C228  C     C_3   0.862648 0.357605 0.567275 -0.324386
C229  C     C_3   0.054958 0.728328 0.434336 -0.358981
C230  C     C_3   0.701342 0.840993 0.576691 -0.317361
C231  C     C_3   0.641483 0.866205 0.520011 -0.858039
C232  C     C_3   0.320044 0.174342 0.421033 -0.328666
C233  C     C_3   0.363326 0.140383 0.472709 -0.831755
C234  C     C_3   0.342610 0.804427 0.424652 -0.303196
C235  C     C_3   0.699270 0.750854 0.000895 -0.280433
C236  C     C_3   0.412539 0.789105 0.469161 -0.907712
C237  C     C_3   0.673646 0.179629 0.577738 -0.329881
C238  C     C_3   0.629012 0.145731 0.526499 -0.836525
C239  C     C_3   0.157444 0.303061 0.576202 -0.301652
C240  C     C_3   0.088075 0.286681 0.532717 -0.911914
C241  C     C_3   0.786369 0.657594 0.413836 -0.334087
C242  C     C_3   0.842862 0.628686 0.459227 -0.822937
C243  C     C_3   0.848099 0.297653 0.424865 -0.301329
C244  C     C_3   0.917673 0.281543 0.471159 -0.908540
C245  C     C_3   0.183229 0.671326 0.577795 -0.321672
C246  C     C_3   0.301489 0.249785 0.000633 -0.267577
C247  C     C_3   0.142360 0.636654 0.525525 -0.849467
C248  C     C_3   0.803751 0.257129 0.072030 0.543590
C249  C     C_3   0.207415 0.775956 0.947626 0.553785
C250  C     C_3   0.207692 0.223385 0.949229 0.556030
C251  C     C_3   0.803513 0.744756 0.071636 0.546362
C252  C     C_3   0.292052 0.723593 0.050981 0.558417
C253  C     C_3   0.696712 0.243192 0.928732 0.541459
C254  C     C_3   0.696272 0.755666 0.927324 0.543375
C255  C     C_R   0.858533 0.250239 0.000014 0.862782
C256  C     C_3   0.292347 0.276533 0.051469 0.554007
C257  C     C_R   0.680886 0.717935 0.337881 0.444771
C258  C     C_R   0.297195 0.274751 0.664147 0.438354
C259  C     C_R   0.292215 0.730174 0.664375 0.450446
C260  C     C_R   0.706027 0.272919 0.335655 0.437801
C261  C     C_R   0.208861 0.231299 0.335342 0.451232
C262  C     C_R   0.803506 0.777792 0.665218 0.461125
C263  C     C_R   0.789096 0.233904 0.663763 0.450575
C264  C     C_R   0.202882 0.775067 0.336120 0.439129
C265  C     C_R   0.647619 0.751866 0.297013 -0.181913
C266  C     C_R   0.358604 0.249835 0.000335 0.829981
C267  C     C_R   0.351842 0.249818 0.704412 -0.145505
C268  C     C_R   0.352824 0.749734 0.704317 -0.151683
C269  C     C_R   0.648610 0.249995 0.295326 -0.147515
C270  C     C_R   0.147545 0.249722 0.295784 -0.156081
C271  C     C_R   0.852352 0.749282 0.704129 -0.152900
C272  C     C_R   0.852515 0.249838 0.704004 -0.151533
C273  C     C_R   0.148176 0.749910 0.295562 -0.145510
C274  C     C_R   0.656777 0.787157 0.336723 0.039259
C275  C     C_R   0.366320 0.224872 0.664393 0.040082
C276  C     C_R   0.374034 0.768229 0.664352 0.029643
C277  C     C_R   0.641459 0.750421 0.999783 0.875082
C278  C     C_R   0.632574 0.226131 0.335035 0.037485
C279  C     C_R   0.125771 0.266840 0.336237 0.028523
C280  C     C_R   0.862744 0.721759 0.663763 0.019370
C281  C     C_R   0.875765 0.265412 0.663888 0.045152
C282  C     C_R   0.134355 0.724238 0.335251 0.035786
C283  C     C_R   0.697840 0.787091 0.419612 -0.054545
C284  C     C_R   0.329778 0.228559 0.582618 -0.053639
C285  C     C_R   0.329375 0.771799 0.582498 -0.050160
C286  C     C_R   0.669215 0.230143 0.416702 -0.059447
C287  C     C_R   0.170662 0.270971 0.417890 -0.053763
C288  C     C_R   0.641557 0.249843 0.000162 0.849729
C289  C     C_R   0.824134 0.723908 0.581491 -0.052799
C290  C     C_R   0.831358 0.269744 0.582206 -0.056107
C291  C     C_R   0.171245 0.727612 0.417166 -0.053508
C292  C     C_R   0.734949 0.753374 0.459692 -0.099528
C293  C     C_R   0.270420 0.249511 0.541354 -0.100831
C294  C     C_R   0.271072 0.749288 0.541206 -0.099339
C295  C     C_R   0.730155 0.249669 0.458284 -0.098992
C296  C     C_R   0.229715 0.249530 0.458869 -0.099227
C297  C     C_R   0.775462 0.752901 0.541831 -0.102448
C298  C     C_R   0.770617 0.249832 0.540764 -0.098867
C299  C     C_R   0.358512 0.749922 0.999929 0.827474
C300  C     C_R   0.230262 0.749229 0.458665 -0.100695
C301  C     C_R   0.732544 0.720210 0.418302 -0.097601
C302  C     C_R   0.252121 0.270906 0.582488 -0.077613
C303  C     C_R   0.253240 0.727170 0.582134 -0.090396
C304  C     C_R   0.750491 0.269283 0.417494 -0.081102
C305  C     C_R   0.248183 0.228324 0.417631 -0.089986
C306  C     C_R   0.766935 0.781459 0.583339 -0.097514
C307  C     C_R   0.750055 0.230489 0.581556 -0.089272
C308  C     C_R   0.248095 0.771262 0.417746 -0.077829
C309  C     C_R   0.105476 0.749907 0.211186 0.857669
C310  C     C_3   0.222290 0.713769 0.979148 0.024969
C311  C     C_R   0.894726 0.250255 0.788662 0.861689
C312  C     C_R   0.894594 0.749667 0.788724 0.889732
C313  C     C_R   0.105277 0.250312 0.211308 0.870957
C314  C     C_R   0.605697 0.250047 0.211113 0.866590
C315  C     C_R   0.394848 0.750285 0.788778 0.863550
C316  C     C_R   0.394500 0.249828 0.788765 0.856863
C317  C     C_R   0.605763 0.750268 0.211713 0.877008
C318  C     C_R   0.703800 0.819464 0.464635 0.529923
C319  C     C_R   0.350950 0.211762 0.541108 0.522645
C320  C     C_R   0.341843 0.796795 0.540418 0.506947
H1    H     H_    0.917908 0.377188 0.047948 0.143567
H2    H     H_    0.919044 0.583776 0.074284 0.144095
H3    H     H_    0.743155 0.497774 0.278524 0.263155
H4    H     H_    0.711509 0.449174 0.269473 0.266117
H5    H     H_    0.773777 0.457574 0.256077 0.245412
H6    H     H_    0.680318 0.453083 0.125827 0.188615
H7    H     H_    0.691952 0.503735 0.143089 0.201077
H8    H     H_    0.042723 0.452878 0.825270 0.103817
H9    H     H_    0.982951 0.481627 0.739263 0.185214
H10   H     H_    0.974515 0.430137 0.739653 0.171697
H11   H     H_    0.018043 0.507362 0.253662 0.196668
H12   H     H_    0.950843 0.526079 0.159102 0.107294
H13   H     H_    0.926800 0.634005 0.053671 0.157910
H14   H     H_    0.997807 0.557858 0.241500 0.169210
H15   H     H_    0.148936 0.485489 0.264704 0.160753
H16   H     H_    0.139890 0.439442 0.216149 0.159676
H17   H     H_    0.141108 0.440345 0.300646 0.172463
H18   H     H_    0.077915 0.515540 0.848366 0.119610
H19   H     H_    0.086976 0.558083 0.902899 0.151410
H20   H     H_    0.054766 0.562129 0.802290 0.193447
H21   H     H_    0.614308 0.957465 0.900150 0.100361
H22   H     H_    0.568724 0.984416 0.808359 0.192161
H23   H     H_    0.565746 0.932666 0.808868 0.173437
H24   H     H_    0.954022 0.620211 0.149021 0.182241
H25   H     H_    0.389018 0.006570 0.115670 0.202273
H26   H     H_    0.372039 0.046324 0.049752 0.126350
H27   H     H_    0.391764 0.056013 0.143824 0.172923
H28   H     H_    0.556444 0.989280 0.251649 0.195564
H29   H     H_    0.579334 0.946904 0.221436 0.125982
H30   H     H_    0.538912 0.940947 0.266204 0.185251
H31   H     H_    0.642458 0.020845 0.931786 0.127964
H32   H     H_    0.627995 0.063628 0.967778 0.152336
H33   H     H_    0.625387 0.066228 0.882302 0.195715
H34   H     H_    0.708775 0.138895 0.968796 0.249358
H35   H     H_    0.542622 0.879672 0.158441 0.139030
H36   H     H_    0.661489 0.159543 0.872371 0.280417
H37   H     H_    0.718090 0.120771 0.897286 0.239596
H38   H     H_    0.765663 0.183138 0.896075 0.175572
H39   H     H_    0.811728 0.163897 0.992135 0.218518
H40   H     H_    0.383873 0.747670 0.221312 0.286966
H41   H     H_    0.377055 0.799153 0.200391 0.255881
H42   H     H_    0.365275 0.781326 0.270009 0.234085
H43   H     H_    0.258098 0.796643 0.144771 0.191675
H44   H     H_    0.265561 0.746103 0.168045 0.203053
H45   H     H_    0.374808 0.200840 0.204306 0.255594
H46   H     H_    0.478010 0.843465 0.106161 0.129222
H47   H     H_    0.383672 0.252852 0.221258 0.281679
H48   H     H_    0.363561 0.221997 0.272130 0.246348
H49   H     H_    0.264597 0.255546 0.168418 0.224467
H50   H     H_    0.256487 0.204879 0.146143 0.196072
H51   H     H_    0.664159 0.840888 0.883514 0.277319
H52   H     H_    0.725581 0.866949 0.971455 0.253042
H53   H     H_    0.716716 0.875892 0.883143 0.242244
H54   H     H_    0.813770 0.833013 0.981362 0.217168
H55   H     H_    0.759775 0.813202 0.885828 0.179157
H56   H     H_    0.123482 0.699797 0.797529 0.254579
H57   H     H_    0.479007 0.877199 0.170352 0.192267
H58   H     H_    0.115869 0.751427 0.777771 0.283830
H59   H     H_    0.134964 0.718649 0.728349 0.245177
H60   H     H_    0.234627 0.753404 0.830710 0.223833
H61   H     H_    0.242183 0.702956 0.853956 0.195994
H62   H     H_    0.838636 0.340783 0.127960 0.281191
H63   H     H_    0.790631 0.361732 0.031773 0.252625
H64   H     H_    0.782029 0.379393 0.104155 0.235772
H65   H     H_    0.688236 0.336275 0.009141 0.215981
H66   H     H_    0.734665 0.316981 0.105009 0.167899
H67   H     H_    0.776823 0.633178 0.026659 0.254781
H68   H     H_    0.594593 0.126231 0.970710 0.122608
H69   H     H_    0.838645 0.660628 0.111757 0.272317
H70   H     H_    0.789821 0.624886 0.117496 0.241886
H71   H     H_    0.742524 0.685826 0.113639 0.183933
H72   H     H_    0.688770 0.666028 0.018037 0.215076
H73   H     H_    0.115191 0.246832 0.779931 0.286602
H74   H     H_    0.123850 0.298766 0.797307 0.256585
H75   H     H_    0.134366 0.278018 0.728561 0.235566
H76   H     H_    0.242076 0.295002 0.853815 0.191254
H77   H     H_    0.233830 0.244247 0.831475 0.203496
H78   H     H_    0.202999 0.648440 0.877446 0.257746
H79   H     H_    0.529917 0.159424 0.901984 0.148997
H80   H     H_    0.271622 0.643990 0.978534 0.285882
H81   H     H_    0.199763 0.614200 0.938083 0.233424
H82   H     H_    0.188827 0.663684 0.008018 0.201557
H83   H     H_    0.135194 0.678047 0.908543 0.186798
H84   H     H_    0.630118 0.315393 0.839923 0.290200
H85   H     H_    0.678963 0.356202 0.900876 0.255757
H86   H     H_    0.662666 0.349911 0.807792 0.242766
H87   H     H_    0.777744 0.329808 0.927390 0.214983
H88   H     H_    0.734183 0.295700 0.848973 0.214624
H89   H     H_    0.668985 0.649457 0.901518 0.259331
H90   H     H_    0.565412 0.127731 0.871094 0.186115
H91   H     H_    0.629821 0.685472 0.825189 0.289974
H92   H     H_    0.668899 0.643910 0.818213 0.235996
H93   H     H_    0.739836 0.700577 0.854830 0.205259
H94   H     H_    0.777629 0.667399 0.934416 0.211980
H95   H     H_    0.272998 0.355261 0.978161 0.285736
H96   H     H_    0.204582 0.350236 0.877006 0.257091
H97   H     H_    0.201469 0.385123 0.936943 0.233919
H98   H     H_    0.136037 0.321407 0.907947 0.188270
H99   H     H_    0.189573 0.336443 0.007254 0.200064
H100  H     H_    0.820136 0.143491 0.099621 0.256608
H101  H     H_    0.609331 0.861532 0.992243 0.193919
H102  H     H_    0.869837 0.184401 0.159242 0.289511
H103  H     H_    0.837848 0.150637 0.193261 0.238693
H104  H     H_    0.766562 0.204830 0.152065 0.199481
H105  H     H_    0.722338 0.170759 0.073623 0.212961
H106  H     H_    0.227241 0.855181 0.020161 0.275672
H107  H     H_    0.296519 0.851284 0.121088 0.251518
H108  H     H_    0.298330 0.885492 0.059330 0.261824
H109  H     H_    0.364099 0.822039 0.089356 0.192976
H110  H     H_    0.309852 0.836095 0.989882 0.218951
H111  H     H_    0.294390 0.149629 0.122974 0.257723
H112  H     H_    0.929377 0.424752 0.092843 0.161084
H113  H     H_    0.628730 0.912996 0.997001 0.131899
H114  H     H_    0.226595 0.144662 0.021528 0.287898
H115  H     H_    0.298231 0.114844 0.063428 0.231983
H116  H     H_    0.311147 0.163686 0.994237 0.199216
H117  H     H_    0.363653 0.178826 0.093746 0.186527
H118  H     H_    0.870105 0.814887 0.174581 0.293236
H119  H     H_    0.831875 0.850306 0.097135 0.260423
H120  H     H_    0.830895 0.857025 0.179472 0.230045
H121  H     H_    0.722596 0.833369 0.063687 0.201953
H122  H     H_    0.759670 0.800363 0.143593 0.207134
H123  H     H_    0.877316 0.238195 0.238115 0.187347
H124  H     H_    0.610947 0.883009 0.918068 0.188079
H125  H     H_    0.808713 0.271113 0.187343 0.138399
H126  H     H_    0.890389 0.289735 0.246109 0.186484
H127  H     H_    0.219425 0.814167 0.860531 0.153986
H128  H     H_    0.192230 0.855050 0.887575 0.184475
H129  H     H_    0.136670 0.830257 0.797196 0.184240
H130  H     H_    0.191320 0.143428 0.889370 0.182128
H131  H     H_    0.221219 0.183898 0.864898 0.150876
H132  H     H_    0.137882 0.168689 0.799399 0.182804
H133  H     H_    0.865274 0.701265 0.219189 0.186790
H134  H     H_    0.808778 0.741055 0.188893 0.147458
H135  H     H_    0.399882 0.112386 0.027566 0.129126
H136  H     H_    0.894826 0.749360 0.256195 0.180620
H137  H     H_    0.306942 0.644405 0.110648 0.181943
H138  H     H_    0.279566 0.685248 0.137530 0.153228
H139  H     H_    0.362300 0.669141 0.201141 0.181843
H140  H     H_    0.693639 0.230003 0.814680 0.159868
H141  H     H_    0.622903 0.261178 0.761082 0.188709
H142  H     H_    0.613364 0.209368 0.756441 0.184096
H143  H     H_    0.690891 0.759622 0.810088 0.137878
H144  H     H_    0.633367 0.798859 0.778467 0.185132
H145  H     H_    0.605070 0.750402 0.743203 0.184394
H146  H     H_    0.450972 0.154631 0.080752 0.142951
H147  H     H_    0.279703 0.315799 0.136921 0.151893
H148  H     H_    0.308183 0.356298 0.110598 0.180420
H149  H     H_    0.362757 0.331684 0.201079 0.183765
H150  H     H_    0.573384 0.680056 0.280105 0.200490
H151  H     H_    0.641970 0.658118 0.369487 0.152358
H152  H     H_    0.607166 0.634756 0.277817 0.181072
H153  H     H_    0.342128 0.305976 0.818344 0.186069
H154  H     H_    0.275195 0.271080 0.761186 0.153341
H155  H     H_    0.259841 0.322018 0.760843 0.179514
H156  H     H_    0.330877 0.702052 0.818220 0.182911
H157  H     H_    0.432906 0.120279 0.127636 0.193497
H158  H     H_    0.334190 0.673309 0.749009 0.143671
H159  H     H_    0.267117 0.668777 0.754561 0.179666
H160  H     H_    0.666980 0.299207 0.181429 0.171955
H161  H     H_    0.730993 0.263391 0.241837 0.156359
H162  H     H_    0.750384 0.313285 0.239499 0.171248
H163  H     H_    0.169730 0.203147 0.181178 0.184099
H164  H     H_    0.168311 0.174025 0.251272 0.142280
H165  H     H_    0.234845 0.170890 0.244504 0.180783
H166  H     H_    0.801426 0.779429 0.800475 0.194734
H167  H     H_    0.736007 0.760092 0.705221 0.159631
H168  H     H_    0.832591 0.089532 0.912813 0.268791
H169  H     H_    0.731193 0.807865 0.735066 0.170369
H170  H     H_    0.820717 0.210367 0.817308 0.188737
H171  H     H_    0.821656 0.178201 0.750255 0.144218
H172  H     H_    0.752486 0.180078 0.752343 0.173983
H173  H     H_    0.158715 0.805858 0.182253 0.183483
H174  H     H_    0.225626 0.771354 0.239828 0.153062
H175  H     H_    0.240958 0.822363 0.240208 0.181020
H176  H     H_    0.712388 0.847574 0.327123 0.260660
H177  H     H_    0.652013 0.844445 0.223840 0.251919
H178  H     H_    0.645619 0.881351 0.278876 0.223416
H179  H     H_    0.867974 0.137948 0.937397 0.260107
H180  H     H_    0.573353 0.815142 0.231911 0.138746
H181  H     H_    0.597232 0.838065 0.316422 0.219929
H182  H     H_    0.492016 0.229208 0.722491 0.281908
H183  H     H_    0.504038 0.217303 0.811948 0.236062
H184  H     H_    0.518213 0.181085 0.763388 0.233240
H185  H     H_    0.408195 0.178012 0.749471 0.198921
H186  H     H_    0.406855 0.167794 0.668872 0.239593
H187  H     H_    0.428221 0.840166 0.722131 0.273267
H188  H     H_    0.468148 0.811820 0.809779 0.228352
H189  H     H_    0.512980 0.827332 0.774354 0.240317
H190  H     H_    0.796757 0.127202 0.840552 0.240408
H191  H     H_    0.477553 0.755348 0.747905 0.218727
H192  H     H_    0.460659 0.781753 0.669175 0.231322
H193  H     H_    0.505470 0.230513 0.272923 0.282310
H194  H     H_    0.495463 0.216835 0.185129 0.226093
H195  H     H_    0.480290 0.181738 0.234229 0.225857
H196  H     H_    0.591600 0.178150 0.251979 0.197319
H197  H     H_    0.590802 0.169561 0.331583 0.232722
H198  H     H_    0.065760 0.336917 0.276501 0.277074
H199  H     H_    0.025964 0.307634 0.189649 0.230103
H200  H     H_    0.982417 0.321327 0.227717 0.234831
H201  H     H_    0.900987 0.129930 0.849811 0.210158
H202  H     H_    0.023273 0.250568 0.255244 0.216903
H203  H     H_    0.039588 0.277238 0.333680 0.226803
H204  H     H_    0.984361 0.722099 0.708961 0.278913
H205  H     H_    0.002743 0.715977 0.803420 0.228821
H206  H     H_    0.011725 0.675724 0.756713 0.230555
H207  H     H_    0.907431 0.677850 0.755336 0.201745
H208  H     H_    0.898852 0.662397 0.672742 0.242809
H209  H     H_    0.936740 0.334881 0.723440 0.288490
H210  H     H_    0.977205 0.306282 0.810905 0.229613
H211  H     H_    0.019798 0.319522 0.771317 0.212889
H212  H     H_    0.855911 0.086127 0.813204 0.226401
H213  H     H_    0.977653 0.248384 0.745960 0.208148
H214  H     H_    0.962966 0.274010 0.667664 0.231703
H215  H     H_    0.008815 0.727621 0.276796 0.279126
H216  H     H_    0.996313 0.715298 0.187028 0.239427
H217  H     H_    0.982972 0.679232 0.236579 0.224934
H218  H     H_    0.092910 0.677511 0.249229 0.209557
H219  H     H_    0.094450 0.666519 0.329537 0.236942
H220  H     H_    0.786735 0.861213 0.468641 0.154813
H221  H     H_    0.771717 0.884209 0.533326 0.176112
H222  H     H_    0.740965 0.905540 0.441211 0.188511
H223  H     H_    0.953791 0.381260 0.149484 0.185903
H224  H     H_    0.123858 0.866265 0.049096 0.265993
H225  H     H_    0.441697 0.260853 0.585922 0.165985
H226  H     H_    0.426948 0.233148 0.503908 0.172696
H227  H     H_    0.499334 0.225298 0.600440 0.184908
H228  H     H_    0.323783 0.858674 0.590836 0.167694
H229  H     H_    0.318063 0.869685 0.503670 0.167056
H230  H     H_    0.387103 0.885714 0.597424 0.203090
H231  H     H_    0.557523 0.265775 0.408290 0.167866
H232  H     H_    0.570561 0.240621 0.491603 0.169751
H233  H     H_    0.498201 0.231848 0.395283 0.190179
H234  H     H_    0.171733 0.357311 0.405669 0.164924
H235  H     H_    0.150303 0.916463 0.061692 0.269512
H236  H     H_    0.179455 0.368729 0.494053 0.167337
H237  H     H_    0.108695 0.383483 0.400760 0.198929
H238  H     H_    0.930159 0.742747 0.574164 0.163045
H239  H     H_    0.903519 0.714490 0.487705 0.164435
H240  H     H_    0.979050 0.703502 0.579721 0.191313
H241  H     H_    0.834603 0.356680 0.591800 0.173859
H242  H     H_    0.830143 0.366116 0.504929 0.167209
H243  H     H_    0.900586 0.380557 0.599086 0.189678
H244  H     H_    0.058815 0.757492 0.414576 0.166601
H245  H     H_    0.074887 0.729462 0.496758 0.172784
H246  H     H_    0.198419 0.881485 0.138303 0.243517
H247  H     H_    0.002373 0.720905 0.400444 0.181666
H248  H     H_    0.655050 0.892161 0.501669 0.291026
H249  H     H_    0.603133 0.848924 0.468505 0.262842
H250  H     H_    0.620685 0.877193 0.549720 0.230565
H251  H     H_    0.685162 0.822538 0.604588 0.228066
H252  H     H_    0.742006 0.860270 0.620871 0.234516
H253  H     H_    0.415758 0.148201 0.506659 0.294590
H254  H     H_    0.350987 0.131167 0.512194 0.262685
H255  H     H_    0.355383 0.115081 0.435510 0.227675
H256  H     H_    0.272833 0.160102 0.376686 0.212837
H257  H     H_    0.144815 0.921546 0.174133 0.216199
H258  H     H_    0.340771 0.187434 0.392722 0.233728
H259  H     H_    0.445601 0.803678 0.526425 0.297297
H260  H     H_    0.413471 0.757119 0.477831 0.250983
H261  H     H_    0.431627 0.795035 0.435170 0.240888
H262  H     H_    0.318148 0.792275 0.365911 0.222186
H263  H     H_    0.342667 0.836721 0.421372 0.224517
H264  H     H_    0.576953 0.154342 0.491300 0.295272
H265  H     H_    0.641802 0.135051 0.488213 0.260613
H266  H     H_    0.634981 0.121210 0.564051 0.226495
H267  H     H_    0.719768 0.165042 0.623396 0.212058
H268  H     H_    0.106406 0.874576 0.151590 0.227350
H269  H     H_    0.652674 0.194298 0.604412 0.230894
H270  H     H_    0.054208 0.300812 0.475364 0.297760
H271  H     H_    0.087920 0.254697 0.524403 0.252899
H272  H     H_    0.069486 0.292276 0.567327 0.245914
H273  H     H_    0.182556 0.291429 0.635269 0.222727
H274  H     H_    0.156445 0.335358 0.578707 0.224272
H275  H     H_    0.888737 0.641421 0.473399 0.283160
H276  H     H_    0.849147 0.618752 0.512632 0.281117
H277  H     H_    0.831784 0.602617 0.422351 0.221902
H278  H     H_    0.742655 0.639286 0.390774 0.241707
H279  H     H_    0.147716 0.085802 0.052212 0.271830
H280  H     H_    0.785291 0.668824 0.364460 0.219771
H281  H     H_    0.951366 0.298169 0.525720 0.300312
H282  H     H_    0.918284 0.250286 0.485098 0.252568
H283  H     H_    0.936222 0.284083 0.435832 0.242094
H284  H     H_    0.823729 0.283990 0.367351 0.220152
H285  H     H_    0.848952 0.329750 0.418889 0.224101
H286  H     H_    0.089456 0.643066 0.490664 0.294059
H287  H     H_    0.156062 0.628607 0.486802 0.261429
H288  H     H_    0.151234 0.611040 0.562311 0.227266
H289  H     H_    0.231003 0.658116 0.622815 0.212557
H290  H     H_    0.123022 0.135982 0.044708 0.273898
H291  H     H_    0.161002 0.683258 0.605194 0.231493
H292  H     H_    0.198808 0.119798 0.130388 0.238908
H293  H     H_    0.109731 0.125698 0.149811 0.200684
H294  H     H_    0.148829 0.079406 0.169260 0.249990
H295  H     H_    0.080985 0.621211 0.949620 0.122757
H296  H     H_    0.870888 0.840837 0.893905 0.242038
H297  H     H_    0.839003 0.884165 0.907426 0.241631
H298  H     H_    0.801249 0.864763 0.811383 0.263662
H299  H     H_    0.862129 0.913867 0.808223 0.210889
H300  H     H_    0.917640 0.875639 0.841633 0.233387
H301  H     H_    0.353461 0.584536 0.942595 0.271499
H302  H     H_    0.375926 0.635145 0.947845 0.268597
H303  H     H_    0.302167 0.616784 0.861712 0.238492
H304  H     H_    0.394554 0.623883 0.847649 0.202978
H305  H     H_    0.356737 0.576955 0.828498 0.248897
H306  H     H_    0.019946 0.658648 0.893530 0.153274
H307  H     H_    0.592908 0.429038 0.221711 0.241462
H308  H     H_    0.538755 0.387487 0.176728 0.271321
H309  H     H_    0.623833 0.380517 0.255525 0.263225
H310  H     H_    0.605438 0.363303 0.133390 0.197302
H311  H     H_    0.655654 0.403639 0.172601 0.212413
H312  H     H_    0.673876 0.597560 0.103200 0.258723
H313  H     H_    0.630210 0.643254 0.072783 0.252841
H314  H     H_    0.698305 0.636314 0.172641 0.252037
H315  H     H_    0.592643 0.629558 0.155784 0.242356
H316  H     H_    0.641882 0.587460 0.191646 0.227150
H317  H     H_    0.040381 0.625556 0.847155 0.184739
H318  H     H_    0.375878 0.367098 0.946516 0.265975
H319  H     H_    0.350817 0.417486 0.933867 0.266960
H320  H     H_    0.303055 0.382702 0.856160 0.242172
H321  H     H_    0.360508 0.422120 0.824565 0.211942
H322  H     H_    0.397528 0.374894 0.847600 0.229902
H323  H     H_    0.173979 0.023247 0.332603 0.254487
H324  H     H_    0.188778 0.023780 0.260194 0.262900
H325  H     H_    0.187026 0.068647 0.302762 0.249060
H326  H     H_    0.077651 0.074580 0.206322 0.201654
H327  H     H_    0.063960 0.033381 0.241496 0.213278
H328  H     H_    0.066634 0.357967 0.938220 0.166922
H329  H     H_    0.759069 0.005394 0.744510 0.266754
H330  H     H_    0.772938 0.954206 0.737014 0.253830
H331  H     H_    0.721271 0.968326 0.763992 0.244025
H332  H     H_    0.822011 0.949365 0.882596 0.214677
H333  H     H_    0.817412 0.000695 0.884781 0.196241
H334  H     H_    0.833533 0.990716 0.705515 0.267293
H335  H     H_    0.813811 0.041456 0.707756 0.252389
H336  H     H_    0.861299 0.028615 0.674216 0.249321
H337  H     H_    0.935397 0.054608 0.804275 0.208207
H338  H     H_    0.950415 0.003843 0.806331 0.206360
H339  H     H_    0.088815 0.408342 0.937376 0.140845
H340  H     H_    0.983659 0.985704 0.189156 0.250051
H341  H     H_    0.967578 0.938925 0.142196 0.264168
H342  H     H_    0.008956 0.941612 0.245774 0.251313
H343  H     H_    0.084768 0.926808 0.214780 0.211076
H344  H     H_    0.106201 0.970531 0.266509 0.223625
H345  H     H_    0.660953 0.495115 0.302575 0.269403
H346  H     H_    0.682926 0.544109 0.293309 0.254720
H347  H     H_    0.633822 0.536557 0.326786 0.248008
H348  H     H_    0.558782 0.556219 0.194521 0.203114
H349  H     H_    0.546650 0.505398 0.196881 0.205102
H350  H     H_    0.049212 0.378947 0.851576 0.187092
H351  H     H_    0.529809 0.483669 0.820906 0.251111
H352  H     H_    0.542073 0.437018 0.866605 0.263102
H353  H     H_    0.504552 0.439516 0.763930 0.251376
H354  H     H_    0.423709 0.426345 0.787895 0.210027
H355  H     H_    0.406478 0.470061 0.737564 0.225886
H356  H     H_    0.343068 0.525854 0.666442 0.253975
H357  H     H_    0.323363 0.519206 0.733709 0.262314
H358  H     H_    0.325142 0.567342 0.701284 0.249337
H359  H     H_    0.434590 0.574082 0.798358 0.203215
H360  H     H_    0.451526 0.532718 0.766645 0.212652
O1    O     O_3   0.000000 0.749960 0.000000 -0.493806
O2    O     O_R   0.640190 0.772970 0.045820 -0.674717
O3    O     O_R   0.640190 0.227030 0.045820 -0.677886
O4    O     O_R   0.359810 0.772970 0.954180 -0.669682
O5    O     O_R   0.056680 0.772880 0.174890 -0.622014
O6    O     O_R   0.943320 0.227120 0.825110 -0.668154
O7    O     O_R   0.943320 0.772880 0.825110 -0.622093
O8    O     O_R   0.056680 0.227120 0.174890 -0.666260
O9    O     O_R   0.556680 0.272880 0.174890 -0.622549
O10   O     O_R   0.443320 0.727120 0.825110 -0.666261
O11   O     O_R   0.443320 0.272880 0.825110 -0.621947
O12   O     O_3   0.000000 0.250040 0.000000 -0.494691
O13   O     O_R   0.556680 0.727120 0.174890 -0.625472
O14   O     O_R   0.992160 0.837390 0.045890 -0.650379
O15   O     O_R   0.007840 0.162610 0.954110 -0.650337
O16   O     O_R   0.007840 0.837390 0.954110 -0.646820
O17   O     O_R   0.992160 0.162610 0.045890 -0.656612
O18   O     O_R   0.492160 0.337390 0.045890 -0.635325
O19   O     O_R   0.507840 0.662610 0.954110 -0.657729
O20   O     O_R   0.507840 0.337390 0.954110 -0.652479
O21   O     O_R   0.492160 0.662610 0.045890 -0.646339
O22   O     O_R   0.946340 0.662530 0.954150 -0.640261
O23   O     O_3   0.500000 0.249960 0.000000 -0.491004
O24   O     O_R   0.053660 0.337470 0.045850 -0.647751
O25   O     O_R   0.053660 0.662530 0.045850 -0.639031
O26   O     O_R   0.946340 0.337470 0.954150 -0.634170
O27   O     O_R   0.446340 0.162530 0.954150 -0.646028
O28   O     O_R   0.553660 0.837470 0.045850 -0.687272
O29   O     O_R   0.553660 0.162530 0.045850 -0.645308
O30   O     O_R   0.446340 0.837470 0.954150 -0.615360
O31   O     O_R   0.118180 0.727030 0.174870 -0.664061
O32   O     O_R   0.881820 0.272970 0.825130 -0.610651
O33   O     O_R   0.881820 0.727030 0.825130 -0.670414
O34   O     O_3   0.500000 0.750040 0.000000 -0.491015
O35   O     O_R   0.118180 0.272970 0.174870 -0.617074
O36   O     O_R   0.618180 0.227030 0.174870 -0.668616
O37   O     O_R   0.381820 0.772970 0.825130 -0.620051
O38   O     O_R   0.381820 0.227030 0.825130 -0.667082
O39   O     O_R   0.618180 0.772970 0.174870 -0.656664
O40   O     O_R   0.905650 0.772880 0.045890 -0.617432
O41   O     O_R   0.094350 0.227120 0.954110 -0.589456
O42   O     O_R   0.094350 0.772880 0.954110 -0.592132
O43   O     O_R   0.905650 0.227120 0.045890 -0.623484
O44   O     O_R   0.405650 0.272880 0.045890 -0.589961
O45   O     O_R   0.859810 0.727030 0.954180 -0.678805
O46   O     O_R   0.594350 0.727120 0.954110 -0.615908
O47   O     O_R   0.594350 0.272880 0.954110 -0.623728
O48   O     O_R   0.405650 0.727120 0.045890 -0.595541
O49   O     O_3   0.014099 0.397394 0.120247 -0.566882
O50   O     O_3   0.981459 0.602849 0.873982 -0.543444
O51   O     O_3   0.988296 0.396330 0.879113 -0.552849
O52   O     O_3   0.014170 0.603009 0.120288 -0.553386
O53   O     O_3   0.449319 0.899724 0.065139 -0.559005
O54   O     O_3   0.500851 0.101560 0.885677 -0.555423
O55   O     O_3   0.530183 0.896309 0.912177 -0.562816
O56   O     O_R   0.140190 0.272970 0.045820 -0.677073
O57   O     O_3   0.501593 0.102578 0.112941 -0.561136
O58   O     O_3   0.950153 0.460667 0.801123 -0.543230
O59   O     O_3   0.046699 0.540414 0.197442 -0.552758
O60   O     O_3   0.056107 0.460163 0.201052 -0.575020
O61   O     O_3   0.990228 0.538772 0.819919 -0.537531
O62   O     O_3   0.511873 0.960035 0.838027 -0.542096
O63   O     O_3   0.470048 0.039629 0.145780 -0.553171
O64   O     O_3   0.479538 0.959932 0.153111 -0.563815
O65   O     O_3   0.545155 0.039573 0.864577 -0.541210
O66   O     O_3   0.864529 0.265189 0.143806 -0.605937
O67   O     O_R   0.140190 0.727030 0.045820 -0.679077
O68   O     O_3   0.157531 0.801865 0.893825 -0.582297
O69   O     O_3   0.158027 0.196938 0.896046 -0.582493
O70   O     O_3   0.864528 0.739694 0.144592 -0.606730
O71   O     O_3   0.341811 0.697613 0.104751 -0.582504
O72   O     O_3   0.636317 0.235216 0.856532 -0.616944
O73   O     O_3   0.635183 0.760941 0.854498 -0.602776
O74   O     O_3   0.342178 0.302870 0.104748 -0.580248
O75   O     O_3   0.663068 0.683102 0.297374 -0.635263
O76   O     O_3   0.295279 0.308571 0.699105 -0.614799
O77   O     O_3   0.265863 0.719846 0.703308 -0.617467
O78   O     O_R   0.859810 0.272970 0.954180 -0.669748
O79   O     O_3   0.712215 0.304843 0.300035 -0.618137
O80   O     O_3   0.234964 0.221739 0.295821 -0.617430
O81   O     O_3   0.796740 0.804359 0.708884 -0.629384
O82   O     O_3   0.760679 0.228254 0.701951 -0.612452
O83   O     O_3   0.204960 0.808868 0.301366 -0.614545
O84   O     O_3   0.691096 0.856836 0.434945 -0.612822
O85   O     O_3   0.415945 0.202252 0.579507 -0.609433
O86   O     O_3   0.386174 0.827145 0.576944 -0.621941
O87   O     O_3   0.580883 0.206607 0.418527 -0.607037
O88   O     O_3   0.112059 0.325020 0.423279 -0.617862
O89   O     O_R   0.359810 0.227030 0.954180 -0.678718
O90   O     O_3   0.897121 0.686023 0.569229 -0.604810
O91   O     O_3   0.893723 0.321745 0.577468 -0.619739
O92   O     O_3   0.086062 0.699379 0.420491 -0.610025
Zn1   Zn    Zn3+2 0.076680 0.717210 0.065490 0.929670
Zn2   Zn    Zn3+2 0.011180 0.217290 0.934470 0.954618
Zn3   Zn    Zn3+2 0.011180 0.782710 0.934470 0.973932
Zn4   Zn    Zn3+2 0.988820 0.217290 0.065530 0.940176
Zn5   Zn    Zn3+2 0.488820 0.282710 0.065530 0.970962
Zn6   Zn    Zn3+2 0.511180 0.717290 0.934470 0.951210
Zn7   Zn    Zn3+2 0.511180 0.282710 0.934470 0.952018
Zn8   Zn    Zn3+2 0.488820 0.717290 0.065530 0.972821
Zn9   Zn    Zn3+2 0.923320 0.282790 0.934510 0.967642
Zn10  Zn    Zn3+2 0.923320 0.717210 0.934510 0.932853
Zn11  Zn    Zn3+2 0.076680 0.282790 0.065490 0.953644
Zn12  Zn    Zn3+2 0.576680 0.217210 0.065490 0.921191
Zn13  Zn    Zn3+2 0.423320 0.782790 0.934510 0.966570
Zn14  Zn    Zn3+2 0.423320 0.217210 0.934510 0.922469
Zn15  Zn    Zn3+2 0.576680 0.782790 0.065490 0.919764
Zn16  Zn    Zn3+2 0.988820 0.782710 0.065530 0.962711

loop_
_geom_bond_atom_site_label_1
_geom_bond_atom_site_label_2
_ccdc_geom_bond_type
C260  O79   S    
C252  C310  S    
C126  C127  S    
C108  H224  S    
C141  H8    S    
C87   C91   A    
C313  O8    A    
C135  C161  S    
C32   C45   A    
C62   C77   A    
C36   C42   A    
C150  H38   S    
C108  H246  S    
C74   C83   A    
C179  C310  S    
C24   C174  S    
C7    O92   S    
C214  H208  S    
O41   Zn2   S    
C129  H336  S    
C156  H54   S    
C119  H316  S    
C231  H250  S    
C267  C275  A    
C121  C122  S    
C55   O21   A    
C22   C29   A    
O22   Zn10  S    
C142  H14   S    
C260  C304  A    
C219  H216  S    
O12   Zn4   S    
C192  H143  S    
C98   H339  S    
C60   C72   S    
C125  H325  S    
C22   C38   A    
C195  H153  S    
C143  H16   S    
C198  H163  S    
C108  H235  S    
C260  C269  A    
C102  O54   S    
C53   O17   A    
C80   C86   A    
C120  H312  S    
C262  C271  A    
C233  H254  S    
C315  O10   A    
C227  H240  S    
O45   Zn10  S    
C202  H174  S    
C204  H178  S    
O23   Zn12  S    
O21   Zn8   S    
C185  H125  S    
C221  H225  S    
C4    C12   A    
C257  O75   S    
C109  H294  S    
C121  H322  S    
O23   Zn14  S    
O12   Zn9   S    
C226  O88   S    
C202  O83   S    
C139  H6    S    
C240  H270  S    
C140  H4    S    
C116  H303  S    
C292  C297  A    
C234  C236  S    
C188  H133  S    
C145  H21   S    
C222  H229  S    
C187  O69   S    
O4    Zn13  S    
C314  O9    A    
C186  O68   S    
C276  C285  A    
C215  H206  S    
C25   C29   A    
C250  O69   S    
C205  H185  S    
O20   Zn7   S    
C35   C248  S    
C133  H346  S    
C167  C310  S    
C144  H20   S    
C257  C265  A    
C90   C152  S    
C161  H65   S    
O38   Zn14  S    
C277  O46   A    
C58   C70   S    
C269  C314  S    
C47   C130  S    
C248  O66   S    
C16   C245  S    
C197  O79   S    
C149  O65   S    
C123  H327  S    
C162  H63   S    
C197  H161  S    
C33   C40   A    
C122  H318  S    
C111  H299  S    
C183  C184  S    
C264  O83   S    
C187  H132  S    
C66   C82   A    
C20   C111  S    
C216  H213  S    
C125  H323  S    
C92   O62   S    
C204  H176  S    
C87   O58   S    
C228  H242  S    
C101  C256  S    
O1    Zn1   S    
C110  H279  S    
C79   C253  S    
C155  H47   S    
C169  H78   S    
O26   Zn9   S    
C154  H49   S    
C236  H259  S    
C245  H289  S    
C154  C155  S    
O28   Zn15  S    
C223  O67   A    
C238  H265  S    
C147  H25   S    
C68   C251  S    
C199  H166  S    
C200  H170  S    
C183  H121  S    
C194  H152  S    
C33   C47   A    
C30   C43   A    
C34   C48   A    
C221  H227  S    
C89   O60   S    
C277  O2    A    
C273  C309  S    
C120  H313  S    
C60   O28   A    
C174  H98   S    
C242  H276  S    
C186  H127  S    
C207  H191  S    
C77   C91   A    
C113  C254  S    
C149  H31   S    
C288  O47   A    
O23   Zn7   S    
C235  C254  S    
O47   Zn7   S    
C142  H12   S    
C139  C140  S    
C154  H50   S    
C207  C276  S    
C63   C74   A    
O2    Zn15  S    
C283  C292  A    
C114  H297  S    
O15   Zn2   S    
C280  C289  A    
C77   C84   A    
C146  C251  S    
C138  H358  S    
C289  C297  A    
C271  C312  S    
C315  O37   A    
C156  C158  S    
C130  C131  S    
C314  O36   A    
C152  H43   S    
O56   Zn11  S    
C37   C50   A    
C228  H243  S    
C99   H2    S    
C227  H238  S    
C258  O76   S    
C241  H278  S    
C318  O84   S    
C247  H286  S    
C217  H210  S    
C3    O87   S    
O12   Zn11  S    
C143  H15   S    
C263  O82   S    
C56   O25   A    
C136  H352  S    
C229  O92   S    
C88   C89   A    
C240  H272  S    
C191  H140  S    
C17   C32   A    
C193  H148  S    
C24   C190  S    
C45   C128  S    
C189  H137  S    
C80   C93   A    
C145  H23   S    
C19   C30   A    
C25   C121  S    
C211  H202  S    
C6    C290  A    
C103  H113  S    
C208  H187  S    
O11   Zn7   S    
C3    C286  A    
C173  H91   S    
O37   Zn13  S    
C170  H88   S    
C231  H249  S    
C190  C250  S    
C212  C299  S    
C128  C129  S    
C228  O91   S    
C142  O59   S    
C167  C169  S    
C147  H26   S    
C85   C86   A    
C258  C302  A    
C237  H269  S    
C151  H37   S    
C91   O61   S    
C273  C282  A    
C180  H107  S    
C266  O44   A    
C68   C235  S    
C118  H308  S    
C117  H311  S    
C187  H130  S    
C23   C119  S    
C172  C173  S    
C128  H337  S    
C64   C71   A    
C88   O59   S    
C170  C171  S    
C96   O49   S    
C136  H351  S    
O1    Zn3   S    
O16   Zn3   S    
C155  H45   S    
C169  H80   S    
C67   C72   A    
C164  H67   S    
C63   O51   S    
C236  H261  S    
C24   C256  S    
C174  C175  S    
O48   Zn8   S    
C259  C268  A    
C96   H112  S    
C262  O81   S    
C103  O55   S    
C105  H212  S    
O8    Zn4   S    
C98   H350  S    
C95   O65   S    
C194  H150  S    
C107  C108  S    
C200  H171  S    
C209  H197  S    
C127  H330  S    
C181  H117  S    
C74   C87   A    
C210  H194  S    
C225  H232  S    
C1    O45   A    
C317  O13   A    
C57   C250  S    
C60   O30   A    
C76   C89   A    
C23   C34   A    
C206  H183  S    
C166  H74   S    
C285  C320  A    
O1    Zn10  S    
C158  H52   S    
C237  C238  S    
O23   Zn5   S    
C261  C305  A    
O3    Zn12  S    
O1    Zn16  S    
C7    C291  A    
C209  C210  S    
C136  H353  S    
C19   C109  S    
C61   C76   A    
C200  H172  S    
C139  H7    S    
C192  H145  S    
C141  O58   S    
C196  H159  S    
C11   C307  A    
C100  H46   S    
C103  H124  S    
C235  C277  S    
C181  H116  S    
C116  H302  S    
C144  O61   S    
C3    C11   A    
C157  C165  S    
C39   C40   A    
C232  H258  S    
C24   C157  S    
C38   C51   A    
C25   C36   A    
C241  H280  S    
C78   C92   A    
C230  H252  S    
C6    O91   S    
C316  O11   A    
C279  C287  A    
C163  H72   S    
C239  H273  S    
C184  H119  S    
C83   C84   A    
C237  H267  S    
C178  H110  S    
C251  O70   S    
C268  C276  A    
C151  H36   S    
C309  O5    A    
C292  C301  A    
C23   C28   A    
C189  H139  S    
C244  H283  S    
C67   O55   S    
C291  C300  A    
C160  H59   S    
C97   H295  S    
C161  H66   S    
O35   Zn11  S    
C167  H82   S    
C102  H68   S    
C113  C201  S    
C58   O24   A    
C243  H284  S    
C236  H260  S    
C105  H201  S    
C189  O71   S    
C2    C168  S    
C96   H223  S    
C169  H81   S    
C78   C85   A    
O14   Zn16  S    
C157  C246  S    
C148  H29   S    
O42   Zn3   S    
C270  C313  S    
C199  H167  S    
C146  C235  S    
C176  C177  S    
C192  O73   S    
C211  C213  S    
C5    C289  A    
C150  H39   S    
C121  H321  S    
C57   C246  S    
C209  H196  S    
O31   Zn1   S    
O10   Zn6   S    
C129  H335  S    
C119  H315  S    
C218  C282  S    
C65   C72   A    
C57   C101  S    
C281  C290  A    
C126  H333  S    
C132  H349  S    
C234  H262  S    
C164  H69   S    
C254  O73   S    
C244  H281  S    
C272  C311  S    
C225  H231  S    
C117  C118  S    
C272  C281  A    
C219  H215  S    
C81   C94   A    
C192  H144  S    
C253  O72   S    
C43   C47   A    
C101  C154  S    
C13   C254  S    
C247  H288  S    
C196  H156  S    
C64   C75   A    
C198  H164  S    
C62   C71   A    
C177  H103  S    
C211  C279  S    
C37   C41   A    
C59   C73   S    
C18   C33   A    
C131  H341  S    
C159  H61   S    
C213  H200  S    
C153  H41   S    
C309  O31   A    
C233  H253  S    
O34   Zn15  S    
C107  H257  S    
C227  H239  S    
C152  C153  S    
C49   C50   A    
C5    O90   S    
C202  H175  S    
C150  C151  S    
C131  H342  S    
C246  C266  S    
C223  O42   A    
C109  H293  S    
C165  H76   S    
C137  H360  S    
C81   C85   A    
C191  H142  S    
C51   C139  S    
C61   C70   A    
C153  H40   S    
C43   C123  S    
C41   C42   A    
C239  C240  S    
C290  C298  A    
C188  H134  S    
C143  O60   S    
C21   C115  S    
C1    C201  S    
C222  H230  S    
C112  C190  S    
C211  H203  S    
C161  C162  S    
C94   O64   S    
C107  H268  S    
C68   C183  S    
O30   Zn13  S    
C181  C182  S    
C215  H205  S    
C172  H93   S    
C186  H129  S    
O89   Zn14  S    
C93   C94   A    
C137  C138  S    
C9    C232  S    
C133  H345  S    
C62   O50   S    
C220  H222  S    
C158  H53   S    
C219  H217  S    
C293  C296  A    
C175  H96   S    
C49   C134  S    
C104  H135  S    
C123  C125  S    
C147  H27   S    
C29   C54   S    
C261  O80   S    
C243  C244  S    
C98   H328  S    
C104  H157  S    
C151  H34   S    
C15   C304  A    
C31   C40   A    
C76   C83   A    
C21   C37   A    
C162  H64   S    
C32   C39   A    
C180  H106  S    
C122  H319  S    
C19   C26   A    
C187  H131  S    
C216  H214  S    
C163  C164  S    
C106  H168  S    
C201  C251  S    
C203  H181  S    
C285  C294  A    
C159  H60   S    
C299  O4    A    
C69   C73   A    
C82   C95   A    
C55   O19   A    
C212  C252  S    
C134  H355  S    
C176  H104  S    
C175  H97   S    
C66   C73   A    
C68   C113  S    
C238  H266  S    
C13   C172  S    
O67   Zn1   S    
C132  H348  S    
C316  O38   A    
C218  H218  S    
C319  O85   S    
C34   C41   A    
C127  H331  S    
C221  H226  S    
C116  H301  S    
C65   O53   S    
C120  H314  S    
C214  H207  S    
C221  O85   S    
C174  H99   S    
C203  C274  S    
C186  H128  S    
O32   Zn9   S    
C56   O22   A    
C171  H85   S    
C10   C234  S    
C194  O75   S    
O46   Zn6   S    
C231  H248  S    
C173  H89   S    
C263  C307  A    
C141  H10   S    
C220  H220  S    
C101  C190  S    
C13   C201  S    
C15   C243  S    
C64   O52   S    
C59   O29   A    
C197  H160  S    
O39   Zn15  S    
C124  C212  S    
O19   Zn6   S    
C82   C86   A    
C195  H154  S    
C196  H158  S    
C134  H354  S    
C8    C318  A    
C46   C249  S    
C152  H44   S    
O9    Zn5   S    
O6    Zn2   S    
O5    Zn16  S    
C233  H255  S    
O34   Zn13  S    
C65   C81   A    
C159  C160  S    
C106  H179  S    
C225  O87   S    
C56   C71   S    
O27   Zn14  S    
C204  H177  S    
C131  H340  S    
C110  H292  S    
C262  C306  A    
C217  H209  S    
C5    C14   A    
C130  H344  S    
C184  H118  S    
C2    C170  S    
C79   C150  S    
O18   Zn5   S    
C7    C16   A    
C317  O39   A    
C153  H42   S    
C245  C247  S    
O24   Zn11  S    
C126  H332  S    
C140  H3    S    
C193  H147  S    
C188  H136  S    
C113  C156  S    
C244  H282  S    
C267  C316  S    
C2    C253  S    
C222  H228  S    
C225  H233  S    
C44   C45   A    
C208  H188  S    
C167  H83   S    
C191  O72   S    
C102  H90   S    
C205  H186  S    
C278  C286  A    
C133  H347  S    
C243  H285  S    
C144  H19   S    
C2    C135  S    
C61   O49   S    
C14   C241  S    
C296  C305  A    
C100  H35   S    
C178  C180  S    
C119  C120  S    
O17   Zn4   S    
C103  H101  S    
C46   C90   S    
C20   C27   A    
C105  C106  S    
C205  C275  S    
C264  C273  A    
C162  H62   S    
C197  H162  S    
C180  H108  S    
C53   O15   A    
C111  H300  S    
C118  H309  S    
C171  H84   S    
C255  O78   A    
C115  H305  S    
C117  H310  S    
C112  O41   A    
C125  H324  S    
C128  H338  S    
C165  H77   S    
C99   H13   S    
C228  H241  S    
C16   C303  A    
C144  H18   S    
C232  C233  S    
C255  O43   A    
C286  C295  A    
C14   C301  A    
C114  H296  S    
C230  C231  S    
C75   C84   A    
O29   Zn12  S    
C239  H274  S    
C188  O70   S    
C238  H264  S    
C284  C319  A    
C282  C291  A    
O40   Zn16  S    
C9    C305  A    
C182  H115  S    
C102  H79   S    
C183  H122  S    
C194  H151  S    
C207  C208  S    
C48   C132  S    
C177  H100  S    
C138  H356  S    
C127  H329  S    
C97   H306  S    
C35   C224  S    
O34   Zn8   S    
C36   C49   A    
C115  C116  S    
C156  H55   S    
C242  H275  S    
C270  C279  A    
C22   C117  S    
C206  H184  S    
C203  C204  S    
C311  O6    A    
C17   C26   A    
C165  C166  S    
C149  H32   S    
C214  C280  S    
C196  O77   S    
C193  O74   S    
C46   C178  S    
C311  O32   A    
C210  H195  S    
C66   O54   S    
O78   Zn9   S    
C157  C250  S    
C313  O35   A    
C57   C181  S    
C50   C137  S    
C104  O57   S    
C224  C288  S    
C205  C206  S    
C135  C224  S    
C44   C126  S    
O43   Zn4   S    
C274  C283  A    
C246  C256  S    
C160  H56   S    
C138  H357  S    
C265  C317  S    
C35   C176  S    
C284  C293  A    
C124  C310  S    
C142  H11   S    
C52   O14   A    
C241  C242  S    
C149  H33   S    
C179  C249  S    
C208  H189  S    
C163  H71   S    
C209  C278  S    
C124  C159  S    
C229  H245  S    
C287  C296  A    
C110  H290  S    
C35   C79   S    
C217  H211  S    
C1    O40   A    
C106  H190  S    
C18   C107  S    
C213  H198  S    
C224  C253  S    
C184  H120  S    
C195  O76   S    
C200  O82   S    
C6    C15   A    
C9    C319  A    
C268  C315  S    
C147  O63   S    
C199  O81   S    
C12   C239  S    
C245  H291  S    
C240  H271  S    
C198  O80   S    
C132  C133  S    
C182  H111  S    
C30   C39   A    
C140  H5    S    
C193  H149  S    
C148  O64   S    
C189  H138  S    
C256  O74   S    
C215  H204  S    
C227  O90   S    
C166  H75   S    
O7    Zn3   S    
C300  C308  A    
C185  O66   S    
C143  H17   S    
C229  H244  S    
C54   O20   A    
C170  H87   S    
C112  O56   A    
C67   C78   A    
C8    C230  S    
C13   C146  S    
C202  H173  S    
C258  C267  A    
C247  H287  S    
C28   C55   S    
C295  C298  A    
C222  O86   S    
C115  H304  S    
C48   C51   A    
C10   C320  A    
C31   C44   A    
C123  H326  S    
C216  C217  S    
C182  H114  S    
C185  H126  S    
C8    C306  A    
C118  H307  S    
C97   H317  S    
C226  H237  S    
C214  C215  S    
C134  C136  S    
C129  H334  S    
C259  O77   S    
C59   O27   A    
C168  C255  S    
C90   C252  S    
C155  H48   S    
C58   O26   A    
C92   C95   A    
C179  C223  S    
C234  H263  S    
C164  H70   S    
C312  O7    A    
C294  C300  A    
C124  C249  S    
C283  C318  A    
C17   C105  S    
O13   Zn8   S    
O12   Zn2   S    
C265  C274  A    
C63   C70   A    
C104  H146  S    
C10   C308  A    
C195  H155  S    
C294  C303  A    
C198  H165  S    
C177  H102  S    
C206  H182  S    
C99   O52   S    
C210  H193  S    
C275  C284  A    
O34   Zn6   S    
C207  H192  S    
C261  C270  A    
C213  H199  S    
O36   Zn12  S    
C263  C272  A    
C168  C248  S    
C166  H73   S    
C158  H51   S    
C220  O84   S    
C171  H86   S    
C79   C168  S    
C185  H123  S    
O25   Zn1   S    
C111  C114  S    
C176  H105  S    
C232  H256  S    
C26   C53   S    
C297  C306  A    
C137  H359  S    
C27   C52   S    
C288  O3    A    
C100  H57   S    
C191  H141  S    
C252  O71   S    
C264  C308  A    
C90   C179  S    
C271  C280  A    
C148  H30   S    
C97   O50   S    
C266  O89   A    
C135  C248  S    
C21   C28   A    
C18   C27   A    
C52   O16   A    
C69   O57   S    
C4    C287  A    
O44   Zn5   S    
C242  H277  S    
C203  H180  S    
C11   C237  S    
C172  H94   S    
C146  C163  S    
C298  C307  A    
C230  H251  S    
C229  H247  S    
C249  O68   S    
C216  C281  S    
C199  H169  S    
C93   O63   S    
C218  H219  S    
C160  H58   S    
C226  H236  S    
C114  H298  S    
C175  H95   S    
C257  C301  A    
C218  C219  S    
C100  O53   S    
C178  H109  S    
C46   C212  S    
C299  O48   A    
C259  C303  A    
C96   H1    S    
C141  H9    S    
C269  C278  A    
C148  H28   S    
C320  O86   S    
O33   Zn10  S    
C122  H320  S    
C145  O62   S    
C99   H24   S    
C226  H234  S    
C38   C42   A    
C75   C88   A    
C12   C302  A    
C54   O18   A    
C109  C110  S    
C130  H343  S    
C173  H92   S    
C4    O88   S    
C295  C304  A    
C69   C80   A    
C312  O33   A    
C293  C302  A    
C98   O51   S    
C145  H22   S    
C220  H221  S    
C20   C31   A    
