data_mof_unit_45323.cif
_audit_creation_date              2012-12-11T14:44:03-0500
_audit_creation_method            fapswitch 2.2
_symmetry_space_group_name_H-M    P1
_symmetry_Int_Tables_number       1
_space_group_crystal_system       triclinic
_cell_length_a                    25.385229
_cell_length_b                    16.941586
_cell_length_c                    15.565035
_cell_angle_alpha                 89.828688
_cell_angle_beta                  51.021923
_cell_angle_gamma                 90.020467
_cell_volume                      5203.77628237

loop_
_atom_site_label
_atom_site_type_symbol
_atom_type_description
_atom_site_fract_x
_atom_site_fract_y
_atom_site_fract_z
_atom_type_partial_charge
C1    C     C_R   0.334042 0.107419 0.805052 0.048591
C2    C     C_3   0.752064 0.786881 0.603656 -0.676040
C3    C     C_3   0.724427 0.885429 0.129996 -0.447767
C4    C     C_3   0.722535 0.918331 0.038996 -0.198094
C5    C     C_3   0.792313 0.934206 0.928713 -0.962971
C6    C     C_3   0.737541 0.102292 0.157031 -0.391000
C7    C     C_3   0.772931 0.183718 0.127270 -0.309445
C8    C     C_3   0.836755 0.179760 0.117437 -0.880000
C9    C     C_3   0.276086 0.879659 0.866981 -0.442532
C10   C     C_3   0.275995 0.911841 0.959909 -0.223407
C11   C     C_3   0.205103 0.927112 0.068057 -0.931721
C12   C     C_3   0.762842 0.600721 0.843683 -0.383492
C13   C     C_3   0.708066 0.286027 0.602784 -0.617455
C14   C     C_3   0.728589 0.682203 0.869553 -0.298179
C15   C     C_3   0.663853 0.677330 0.881999 -0.896247
C16   C     C_3   0.223828 0.384814 0.130558 -0.449887
C17   C     C_3   0.221506 0.417122 0.039706 -0.205966
C18   C     C_3   0.290963 0.433234 0.928935 -0.947087
C19   C     C_3   0.237532 0.602343 0.158353 -0.389381
C20   C     C_3   0.272650 0.684008 0.128337 -0.317910
C21   C     C_3   0.335321 0.681098 0.121753 -0.864847
C22   C     C_3   0.777364 0.381081 0.870000 -0.448548
C23   C     C_3   0.780567 0.413613 0.959226 -0.227975
C24   C     C_3   0.243235 0.796835 0.397489 -0.648616
C25   C     C_3   0.710810 0.428225 0.069873 -0.923855
C26   C     C_3   0.563166 0.167849 0.707698 -0.400974
C27   C     C_3   0.580981 0.104630 0.754003 -0.209294
C28   C     C_3   0.557702 0.125092 0.867352 -0.943140
C29   C     C_3   0.401640 0.893035 0.296426 -0.377131
C30   C     C_3   0.449440 0.958537 0.221866 -0.210284
C31   C     C_3   0.482286 0.941974 0.101216 -0.829286
C32   C     C_3   0.448499 0.167380 0.287730 -0.447138
C33   C     C_3   0.413946 0.193259 0.240146 -0.262311
C34   C     C_3   0.454713 0.173562 0.119426 -0.987324
C35   C     C_3   0.784240 0.780130 0.401225 -0.666123
C36   C     C_3   0.604002 0.906395 0.698630 -0.421891
C37   C     C_3   0.533209 0.905455 0.812915 -0.195532
C38   C     C_3   0.515858 0.826245 0.873330 -0.762703
C39   C     C_3   0.068444 0.661897 0.708039 -0.440466
C40   C     C_3   0.100477 0.605325 0.739698 -0.116468
C41   C     C_3   0.066141 0.609811 0.861854 -1.021068
C42   C     C_3   0.901730 0.393197 0.296541 -0.385352
C43   C     C_3   0.950428 0.458130 0.222425 -0.206083
C44   C     C_3   0.983038 0.442674 0.101935 -0.841017
C45   C     C_3   0.946447 0.665793 0.287106 -0.467248
C46   C     C_3   0.249234 0.283775 0.609412 -0.673918
C47   C     C_3   0.910955 0.683366 0.238114 -0.247550
C48   C     C_3   0.953159 0.660124 0.117552 -0.969394
C49   C     C_3   0.091359 0.386118 0.712433 -0.447522
C50   C     C_3   0.022967 0.419905 0.811675 -0.175007
C51   C     C_3   0.976830 0.359553 0.903723 -0.894578
C52   C     C_3   0.407116 0.675528 0.837103 -0.394320
C53   C     C_3   0.460725 0.627283 0.734276 -0.241567
C54   C     C_3   0.505009 0.580898 0.751458 -0.697985
C55   C     C_3   0.653005 0.192120 0.972711 -0.385122
C56   C     C_3   0.618707 0.269341 0.035159 -0.324163
C57   C     C_3   0.213289 0.776794 0.597848 -0.635930
C58   C     C_3   0.608666 0.326548 0.970262 -0.867696
C59   C     C_3   0.598041 0.677630 0.155514 -0.389577
C60   C     C_3   0.537524 0.639846 0.264130 -0.256386
C61   C     C_3   0.492104 0.595188 0.247991 -0.674931
C62   C     C_3   0.352122 0.203037 0.010263 -0.393483
C63   C     C_3   0.390502 0.272644 0.929640 -0.314384
C64   C     C_3   0.438067 0.313526 0.943998 -0.854720
C65   C     C_3   0.908231 0.167500 0.822720 -0.391190
C66   C     C_3   0.942190 0.103550 0.733437 -0.268736
C67   C     C_3   0.985616 0.049019 0.744283 -0.716277
C68   C     C_3   0.745638 0.293101 0.395981 -0.650744
C69   C     C_3   0.155473 0.688136 0.968787 -0.387308
C70   C     C_3   0.117613 0.763306 0.033342 -0.329491
C71   C     C_3   0.103272 0.817634 0.971645 -0.843818
C72   C     C_3   0.096949 0.176857 0.158048 -0.391626
C73   C     C_3   0.036665 0.139144 0.266982 -0.252284
C74   C     C_3   0.990954 0.094347 0.251602 -0.671465
C75   C     C_3   0.852875 0.702792 0.010211 -0.388868
C76   C     C_3   0.893243 0.771188 0.928136 -0.318307
C77   C     C_3   0.939590 0.812080 0.945139 -0.843004
C78   C     C_2   0.691031 0.152064 0.007661 0.205090
C79   C     C_2   0.364689 0.723194 0.817736 0.134345
C80   C     C_2   0.311705 0.154929 0.986447 0.198817
C81   C     C_R   0.653721 0.861978 0.230296 0.049408
C82   C     C_2   0.640006 0.726869 0.174205 0.130331
C83   C     C_2   0.192538 0.649930 0.006524 0.202948
C84   C     C_2   0.864874 0.221231 0.811352 0.137975
C85   C     C_2   0.812271 0.655627 0.985867 0.194838
C86   C     C_2   0.139237 0.226150 0.176018 0.129140
C87   C     C_2   0.759143 0.140555 0.932314 -0.230977
C88   C     C_2   0.308342 0.692539 0.837789 -0.150464
C89   C     C_2   0.243898 0.141898 0.064288 -0.211480
C90   C     C_2   0.696951 0.698193 0.154684 -0.147353
C91   C     C_2   0.260676 0.638668 0.932842 -0.226829
C92   C     C_R   0.666233 0.109386 0.195391 0.048709
C93   C     C_2   0.806272 0.193970 0.836170 -0.149275
C94   C     C_2   0.744501 0.642490 0.063630 -0.211556
C95   C     C_2   0.196388 0.197450 0.155786 -0.144513
C96   C     C_R   0.590506 0.148029 0.592082 0.133849
C97   C     C_R   0.385247 0.887499 0.408797 0.272532
C98   C     C_R   0.406653 0.144578 0.406660 0.135773
C99   C     C_R   0.612935 0.886600 0.593953 0.392548
C100  C     C_R   0.091166 0.646730 0.593412 0.147163
C101  C     C_R   0.884070 0.389460 0.409712 0.277774
C102  C     C_R   0.905927 0.643485 0.406076 0.138585
C103  C     C_R   0.347465 0.859888 0.767001 0.040298
C104  C     C_R   0.113221 0.389651 0.594832 0.323691
C105  C     C_R   0.662784 0.146520 0.410302 -0.132015
C106  C     C_R   0.315236 0.884190 0.592981 -0.134496
C107  C     C_R   0.334704 0.143740 0.589216 -0.142018
C108  C     C_R   0.683705 0.883359 0.408092 -0.144304
C109  C     C_R   0.160903 0.647858 0.411401 -0.125543
C110  C     C_R   0.814124 0.387082 0.593710 -0.134071
C111  C     C_R   0.834331 0.643478 0.588559 -0.147661
C112  C     C_R   0.185126 0.387541 0.409502 -0.121811
C113  C     C_R   0.584040 0.096374 0.187573 0.553443
C114  C     C_R   0.834199 0.607890 0.804819 0.049876
C115  C     C_R   0.445298 0.846197 0.734646 0.637669
C116  C     C_R   0.417904 0.095386 0.810455 0.593888
C117  C     C_R   0.558053 0.849514 0.254563 0.668347
C118  C     C_R   0.084580 0.595727 0.187049 0.545888
C119  C     C_R   0.946340 0.344913 0.730307 0.657049
C120  C     C_R   0.918235 0.596335 0.809946 0.578496
C121  C     C_R   0.057540 0.349060 0.256029 0.669230
C122  C     C_R   0.351448 0.120030 0.872619 -0.119527
C123  C     C_R   0.616802 0.808670 0.219997 -0.120340
C124  C     C_R   0.649527 0.124078 0.127023 -0.086555
C125  C     C_R   0.153372 0.361575 0.231209 0.052033
C126  C     C_R   0.385687 0.805993 0.773662 -0.106022
C127  C     C_R   0.851846 0.621030 0.872008 -0.113131
C128  C     C_R   0.116190 0.308065 0.221688 -0.117486
C129  C     C_R   0.150253 0.622957 0.126444 -0.080797
C130  C     C_R   0.886052 0.305139 0.771074 -0.112947
C131  C     C_R   0.640026 0.191196 0.500217 0.176182
C132  C     C_R   0.323529 0.861407 0.500958 0.166776
C133  C     C_R   0.356451 0.187205 0.498438 0.212740
C134  C     C_R   0.674280 0.860641 0.501323 0.145971
C135  C     C_R   0.138798 0.691721 0.501816 0.161862
C136  C     C_R   0.166473 0.608910 0.195448 0.047296
C137  C     C_R   0.821202 0.366427 0.502417 0.171179
C138  C     C_R   0.856103 0.686324 0.497145 0.210508
C139  C     C_R   0.175791 0.366423 0.503467 0.166226
C140  C     C_3   0.328730 0.319847 0.436386 0.728751
C141  C     C_3   0.707206 0.752837 0.577497 0.735074
C142  C     C_3   0.665496 0.320872 0.571705 0.700014
C143  C     C_3   0.289439 0.759059 0.418524 0.716186
C144  C     C_3   0.829605 0.814673 0.426895 0.723515
C145  C     C_3   0.207522 0.252107 0.575867 0.732821
C146  C     C_3   0.167047 0.815988 0.576920 0.698254
C147  C     C_R   0.847379 0.360198 0.767265 0.045540
C148  C     C_3   0.787911 0.259084 0.427164 0.716601
C149  C     C_3   0.768974 0.858282 0.527558 0.759522
C150  C     C_3   0.269215 0.213603 0.474303 0.740704
C151  C     C_3   0.226840 0.863367 0.479537 0.770313
C152  C     C_3   0.727128 0.215906 0.525525 0.741546
C153  C     C_3   0.265660 0.358922 0.539259 0.763477
C154  C     C_3   0.766435 0.709621 0.477969 0.729563
C155  C     C_3   0.727669 0.364476 0.472386 0.764694
C156  C     C_3   0.231119 0.711716 0.514379 0.725351
C157  C     C_3   0.724436 0.823401 0.502256 -0.335193
C158  C     C_3   0.286479 0.287734 0.403392 -0.674512
C159  C     C_3   0.312470 0.244978 0.504270 -0.321740
C160  C     C_3   0.272577 0.824449 0.500057 -0.344370
C161  C     C_3   0.683498 0.249455 0.497059 -0.332568
C162  C     C_3   0.224172 0.326407 0.506608 -0.341566
C163  C     C_3   0.812654 0.743346 0.500927 -0.315523
C164  C     C_3   0.769871 0.329455 0.502592 -0.350357
C165  C     C_3   0.183437 0.749274 0.496712 -0.320595
C166  C     C_3   0.262716 0.099354 0.844026 -0.382628
C167  C     C_3   0.227426 0.180241 0.871288 -0.305191
C168  C     C_3   0.162752 0.174132 0.883761 -0.888875
F1    F     F_    0.568302 0.057871 0.130511 -0.774184
F2    F     F_    0.265765 0.136054 0.450193 -0.633268
F3    F     F_    0.225270 0.943360 0.463365 -0.615356
F4    F     F_    0.733894 0.137795 0.542329 -0.653121
F5    F     F_    0.263078 0.435792 0.571303 -0.640894
F6    F     F_    0.761294 0.631029 0.459920 -0.637591
F7    F     F_    0.728127 0.442981 0.447353 -0.622321
F8    F     F_    0.240861 0.631785 0.517811 -0.651877
F9    F     F_    0.391227 0.356926 0.369113 -0.678614
F10   F     F_    0.643692 0.719532 0.652839 -0.679012
F11   F     F_    0.602380 0.355751 0.642773 -0.683209
F12   F     F_    0.500565 0.807452 0.704886 -0.733547
F13   F     F_    0.351621 0.724184 0.340481 -0.686824
F14   F     F_    0.892902 0.849229 0.354014 -0.683310
F15   F     F_    0.147031 0.210785 0.641724 -0.657840
F16   F     F_    0.104524 0.850759 0.654189 -0.685852
F17   F     F_    0.850344 0.222901 0.356071 -0.680052
F18   F     F_    0.441387 0.063840 0.860162 -0.771929
F19   F     F_    0.509976 0.817871 0.253973 -0.752036
F20   F     F_    0.069099 0.556787 0.129924 -0.775895
F21   F     F_    0.003045 0.304885 0.692080 -0.717709
F22   F     F_    0.941979 0.565836 0.859843 -0.776719
F23   F     F_    0.008751 0.316923 0.257637 -0.749436
F24   F     F_    0.769183 0.936695 0.551702 -0.636710
H1    H     H_    0.706929 0.160769 0.330827 0.152624
H2    H     H_    0.739400 0.790627 0.685925 0.221426
H3    H     H_    0.471857 0.112895 0.246542 0.258568
H4    H     H_    0.485534 0.212082 0.271203 0.191301
H5    H     H_    0.528482 0.775625 0.818747 0.335838
H6    H     H_    0.545399 0.819334 0.903301 0.230324
H7    H     H_    0.461075 0.824387 0.945562 0.213417
H8    H     H_    0.532916 0.949096 0.866252 0.194809
H9    H     H_    0.493702 0.924980 0.808447 0.233342
H10   H     H_    0.634659 0.866633 0.707372 0.224458
H11   H     H_    0.630197 0.962835 0.682293 0.164794
H12   H     H_    0.071884 0.670356 0.881594 0.268346
H13   H     H_    0.692589 0.282152 0.687136 0.206341
H14   H     H_    0.011671 0.595244 0.912464 0.328651
H15   H     H_    0.090649 0.567695 0.881638 0.270347
H16   H     H_    0.100283 0.545263 0.713712 0.208580
H17   H     H_    0.153482 0.621510 0.697680 0.260110
H18   H     H_    0.014034 0.665192 0.768550 0.235104
H19   H     H_    0.081599 0.721226 0.715964 0.222109
H20   H     H_    0.010646 0.385640 0.074699 0.269474
H21   H     H_    0.943406 0.441779 0.092110 0.253526
H22   H     H_    0.019998 0.489911 0.048600 0.291672
H23   H     H_    0.921064 0.513394 0.249698 0.214170
H24   H     H_    0.255168 0.805671 0.316217 0.218335
H25   H     H_    0.990166 0.461867 0.230376 0.270362
H26   H     H_    0.920568 0.335160 0.255433 0.295036
H27   H     H_    0.855372 0.403987 0.305763 0.196951
H28   H     H_    0.937925 0.696313 0.077538 0.260950
H29   H     H_    0.007382 0.670717 0.074296 0.303549
H30   H     H_    0.944555 0.597458 0.110045 0.289550
H31   H     H_    0.862525 0.651270 0.282310 0.268223
H32   H     H_    0.905143 0.747617 0.237568 0.260961
H33   H     H_    0.973678 0.613234 0.246015 0.259739
H34   H     H_    0.980072 0.715066 0.271082 0.202444
H35   H     H_    0.794684 0.777324 0.320491 0.201144
H36   H     H_    0.967858 0.306843 0.873635 0.286743
H37   H     H_    0.000496 0.339320 0.940233 0.257138
H38   H     H_    0.927028 0.386911 0.968980 0.247950
H39   H     H_    0.031919 0.465067 0.852006 0.222629
H40   H     H_    0.997484 0.448892 0.784491 0.249291
H41   H     H_    0.092558 0.324153 0.732266 0.284384
H42   H     H_    0.131478 0.415677 0.709552 0.180013
H43   H     H_    0.531190 0.621675 0.769493 0.290595
H44   H     H_    0.473615 0.538517 0.821151 0.222241
H45   H     H_    0.543806 0.547303 0.675395 0.287523
H46   H     H_    0.234251 0.284210 0.693386 0.221405
H47   H     H_    0.435194 0.585058 0.716406 0.198107
H48   H     H_    0.493535 0.666743 0.661412 0.262303
H49   H     H_    0.431298 0.715459 0.859442 0.223694
H50   H     H_    0.376591 0.634135 0.907068 0.176349
H51   H     H_    0.657604 0.340220 0.888182 0.243779
H52   H     H_    0.573746 0.301182 0.957645 0.260512
H53   H     H_    0.586529 0.382470 0.017016 0.264517
H54   H     H_    0.569027 0.256502 0.114616 0.217877
H55   H     H_    0.647962 0.298354 0.056191 0.214447
H56   H     H_    0.685206 0.202232 0.882633 0.189887
H57   H     H_    0.201071 0.767584 0.679336 0.205240
H58   H     H_    0.614067 0.151154 0.987902 0.238807
H59   H     H_    0.472147 0.636028 0.218624 0.291849
H60   H     H_    0.520962 0.547131 0.186757 0.222817
H61   H     H_    0.448661 0.568727 0.327799 0.283233
H62   H     H_    0.556396 0.597882 0.294297 0.199204
H63   H     H_    0.506847 0.685450 0.328645 0.252547
H64   H     H_    0.580552 0.715307 0.119435 0.238745
H65   H     H_    0.627358 0.629319 0.096277 0.175118
H66   H     H_    0.409809 0.332771 0.030958 0.253231
H67   H     H_    0.479665 0.273327 0.920442 0.268296
H68   H     H_    0.760826 0.296918 0.311898 0.218583
H69   H     H_    0.460878 0.366374 0.889512 0.281619
H70   H     H_    0.419557 0.254310 0.842592 0.201099
H71   H     H_    0.354218 0.316264 0.944090 0.221367
H72   H     H_    0.321200 0.224962 0.096029 0.171457
H73   H     H_    0.389176 0.162712 0.002226 0.240664
H74   H     H_    0.026407 0.083175 0.734717 0.301793
H75   H     H_    0.953882 0.019161 0.826210 0.224397
H76   H     H_    0.009310 0.003262 0.678916 0.272576
H77   H     H_    0.902933 0.067491 0.740720 0.205876
H78   H     H_    0.974818 0.131798 0.650323 0.241392
H79   H     H_    0.290853 0.721211 0.797944 0.134018
H80   H     H_    0.947860 0.200806 0.816158 0.246876
H81   H     H_    0.878025 0.139045 0.904637 0.175961
H82   H     H_    0.150891 0.833510 0.888836 0.244793
H83   H     H_    0.068214 0.788774 0.961750 0.259997
H84   H     H_    0.079140 0.872726 0.019610 0.264569
H85   H     H_    0.069302 0.747354 0.113164 0.217318
H86   H     H_    0.146492 0.795741 0.052485 0.216723
H87   H     H_    0.188826 0.700298 0.879115 0.185715
H88   H     H_    0.118931 0.645121 0.980075 0.237256
H89   H     H_    0.970780 0.135069 0.222483 0.290795
H90   H     H_    0.782522 0.099222 0.950208 0.151942
H91   H     H_    0.019661 0.046207 0.190453 0.222944
H92   H     H_    0.947668 0.067980 0.331640 0.282364
H93   H     H_    0.055788 0.097272 0.296830 0.197433
H94   H     H_    0.006141 0.184781 0.331506 0.255610
H95   H     H_    0.079235 0.214447 0.122237 0.238120
H96   H     H_    0.126084 0.128452 0.098891 0.175622
H97   H     H_    0.910587 0.830318 0.032665 0.252553
H98   H     H_    0.981458 0.772144 0.921216 0.264604
H99   H     H_    0.962226 0.865534 0.891877 0.281662
H100  H     H_    0.924399 0.751094 0.841294 0.203850
H101  H     H_    0.714624 0.727372 0.193922 0.135310
H102  H     H_    0.857861 0.815004 0.939230 0.219701
H103  H     H_    0.821692 0.725727 0.095501 0.169903
H104  H     H_    0.888822 0.661545 0.004123 0.245635
H105  H     H_    0.269244 0.882494 0.677878 0.121035
H106  H     H_    0.221436 0.095265 0.051400 0.142090
H107  H     H_    0.787146 0.225222 0.800505 0.136759
H108  H     H_    0.283142 0.596845 0.951690 0.148758
H109  H     H_    0.214193 0.226523 0.194880 0.137204
H110  H     H_    0.722102 0.595595 0.050982 0.143322
H111  H     H_    0.174586 0.157440 0.804428 0.291746
H112  H     H_    0.127927 0.128938 0.946540 0.260674
H113  H     H_    0.136532 0.232044 0.909862 0.253341
H114  H     H_    0.214579 0.204419 0.947958 0.213297
H115  H     H_    0.261873 0.225039 0.807310 0.201637
H116  H     H_    0.290120 0.156112 0.668998 0.152266
H117  H     H_    0.263519 0.066438 0.781946 0.189236
H118  H     H_    0.232211 0.059179 0.915344 0.173279
H119  H     H_    0.787331 0.975872 0.879102 0.269870
H120  H     H_    0.827594 0.959574 0.940744 0.263033
H121  H     H_    0.813328 0.879203 0.879699 0.259736
H122  H     H_    0.696046 0.876354 0.022769 0.202531
H123  H     H_    0.693111 0.973764 0.068539 0.218267
H124  H     H_    0.744727 0.930477 0.153874 0.179956
H125  H     H_    0.758800 0.834875 0.097789 0.198462
H126  H     H_    0.823618 0.166706 0.198801 0.291853
H127  H     H_    0.729766 0.881589 0.323288 0.125931
H128  H     H_    0.871459 0.133011 0.058683 0.260418
H129  H     H_    0.863646 0.237394 0.087416 0.254626
H130  H     H_    0.786817 0.206380 0.048913 0.208790
H131  H     H_    0.738176 0.229065 0.189209 0.201794
H132  H     H_    0.736826 0.070269 0.219767 0.189656
H133  H     H_    0.768073 0.061246 0.087436 0.172804
H134  H     H_    0.171367 0.952974 0.052959 0.262543
H135  H     H_    0.182913 0.871765 0.116501 0.255842
H136  H     H_    0.208531 0.968255 0.119693 0.264002
H137  H     H_    0.301510 0.869520 0.977784 0.196017
H138  H     H_    0.203406 0.664189 0.331744 0.153182
H139  H     H_    0.305340 0.967619 0.931649 0.210011
H140  H     H_    0.254748 0.924240 0.844172 0.182278
H141  H     H_    0.243910 0.827159 0.896484 0.212127
H142  H     H_    0.675451 0.661342 0.802654 0.291861
H143  H     H_    0.628668 0.632208 0.944521 0.260462
H144  H     H_    0.638099 0.735525 0.908380 0.251671
H145  H     H_    0.716072 0.706670 0.945906 0.212709
H146  H     H_    0.763666 0.726239 0.804718 0.200623
H147  H     H_    0.763394 0.567597 0.782007 0.188588
H148  H     H_    0.731821 0.561060 0.915531 0.169973
H149  H     H_    0.768396 0.386242 0.678896 0.118181
H150  H     H_    0.285458 0.474878 0.879918 0.272103
H151  H     H_    0.326545 0.458736 0.940244 0.260996
H152  H     H_    0.311913 0.378347 0.879587 0.258750
H153  H     H_    0.194938 0.374792 0.024047 0.202829
H154  H     H_    0.191897 0.472418 0.069311 0.220222
H155  H     H_    0.244400 0.430074 0.153707 0.180080
H156  H     H_    0.257696 0.334061 0.099429 0.197359
H157  H     H_    0.320978 0.666934 0.203697 0.300120
H158  H     H_    0.371401 0.635583 0.062042 0.257102
H159  H     H_    0.361052 0.739443 0.094621 0.247045
H160  H     H_    0.789587 0.656104 0.668098 0.152275
H161  H     H_    0.287587 0.705805 0.049069 0.210185
H162  H     H_    0.237428 0.729902 0.188529 0.200599
H163  H     H_    0.236320 0.571199 0.222138 0.190560
H164  H     H_    0.268497 0.560781 0.089532 0.170453
H165  H     H_    0.675949 0.455693 0.058253 0.260642
H166  H     H_    0.688974 0.372167 0.116651 0.255862
H167  H     H_    0.715987 0.467905 0.120800 0.266444
H168  H     H_    0.807862 0.371658 0.973951 0.196740
H169  H     H_    0.809500 0.469635 0.929491 0.213128
H170  H     H_    0.754716 0.425502 0.849391 0.183101
H171  H     H_    0.231362 0.386192 0.324855 0.118544
H172  H     H_    0.744933 0.328899 0.902565 0.216361
H173  H     H_    0.579990 0.182193 0.865018 0.263094
H174  H     H_    0.501932 0.128493 0.923995 0.313327
H175  H     H_    0.573884 0.078354 0.896262 0.263432
H176  H     H_    0.555239 0.051400 0.758942 0.243658
H177  H     H_    0.635871 0.093944 0.700110 0.272819
H178  H     H_    0.509194 0.179501 0.760130 0.208857
H179  H     H_    0.583362 0.223434 0.711741 0.227868
H180  H     H_    0.511450 0.886050 0.073980 0.269547
H181  H     H_    0.443008 0.937818 0.090579 0.252391
H182  H     H_    0.299626 0.288712 0.320561 0.202561
H183  H     H_    0.517996 0.990102 0.047871 0.279637
H184  H     H_    0.419519 0.013478 0.248283 0.211036
H185  H     H_    0.489046 0.963569 0.230110 0.269721
H186  H     H_    0.420930 0.835620 0.253808 0.297771
H187  H     H_    0.354557 0.903538 0.307675 0.193713
H188  H     H_    0.430438 0.202087 0.088489 0.261662
H189  H     H_    0.506752 0.196228 0.071784 0.299760
H190  H     H_    0.455433 0.108980 0.108379 0.296764
H191  H     H_    0.365465 0.162507 0.280915 0.273712
H192  H     H_    0.409777 0.257982 0.243615 0.264387
N1    N     N_R   0.389620 0.081040 0.705440 -0.090203
N2    N     N_R   0.417680 0.920160 0.443370 -0.074296
N3    N     N_R   0.417680 0.079840 0.443370 -0.080937
N4    N     N_R   0.582320 0.920160 0.556630 -0.069742
N5    N     N_R   0.082320 0.579840 0.556630 -0.069596
N6    N     N_R   0.917680 0.420160 0.443370 -0.072657
N7    N     N_R   0.917680 0.579840 0.443370 -0.081822
N8    N     N_R   0.082320 0.420160 0.556630 -0.056716
N9    N     N_R   0.627920 0.078930 0.443400 -0.057974
N10   N     N_R   0.372080 0.921070 0.556600 -0.067420
N11   N     N_R   0.372080 0.078930 0.556600 -0.055014
N12   N     N_R   0.610380 0.918960 0.294560 -0.089844
N13   N     N_R   0.627920 0.921070 0.443400 -0.069969
N14   N     N_R   0.127920 0.578930 0.443400 -0.058893
N15   N     N_R   0.872080 0.421070 0.556600 -0.067434
N16   N     N_R   0.872080 0.578930 0.556600 -0.055337
N17   N     N_R   0.127920 0.421070 0.443400 -0.066852
N18   N     N_R   0.555090 0.077730 0.294590 -0.121225
N19   N     N_R   0.444910 0.922270 0.705410 -0.119813
N20   N     N_R   0.444910 0.077730 0.705410 -0.116116
N21   N     N_R   0.555090 0.922270 0.294590 -0.119322
N22   N     N_R   0.055090 0.577730 0.294590 -0.120911
N23   N     N_R   0.610380 0.081040 0.294560 -0.086561
N24   N     N_R   0.944910 0.422270 0.705410 -0.125408
N25   N     N_R   0.944910 0.577730 0.705410 -0.117278
N26   N     N_R   0.055090 0.422270 0.294590 -0.119850
N27   N     N_R   0.389620 0.918960 0.705440 -0.088674
N28   N     N_R   0.889620 0.581040 0.705440 -0.089886
N29   N     N_R   0.110380 0.418960 0.294560 -0.090002
N30   N     N_R   0.110380 0.581040 0.294560 -0.087914
N31   N     N_R   0.889620 0.418960 0.705440 -0.088284
N32   N     N_R   0.582320 0.079840 0.556630 -0.070444
Ni1   Ni    Ni4+2 0.382970 1.000000 0.629840 0.188037
Ni2   Ni    Ni4+2 0.617030 1.000000 0.370160 0.188082
Ni3   Ni    Ni4+2 0.882970 0.500000 0.629840 0.186719
Ni4   Ni    Ni4+2 0.117030 0.500000 0.370160 0.189907
Ni5   Ni    Ni4+2 0.514540 1.000000 0.629840 0.229011
Ni6   Ni    Ni4+2 0.485460 1.000000 0.370160 0.223677
Ni7   Ni    Ni4+2 0.014540 0.500000 0.629840 0.235995
Ni8   Ni    Ni4+2 0.985460 0.500000 0.370160 0.223376

loop_
_geom_bond_atom_site_label_1
_geom_bond_atom_site_label_2
_ccdc_geom_bond_type
C40   H16   S    
C112  H171  S    
C19   C20   S    
C35   C154  S    
C32   H4    S    
C105  C131  A    
N27   Ni1   S    
C106  C132  A    
C166  H117  S    
C21   H157  S    
C35   H35   S    
C103  N27   A    
C97   C132  A    
C16   H156  S    
C62   H73   S    
N9    Ni2   S    
C141  C154  S    
C69   H87   S    
C153  F5    S    
C167  H114  S    
C103  C126  A    
C1    C122  A    
N1    N20   A    
C104  N8    A    
C17   H154  S    
N28   Ni3   S    
C71   H83   S    
C19   H164  S    
N8    N17   A    
C100  C135  A    
C34   H190  S    
N18   Ni6   S    
C59   C60   S    
C51   H38   S    
C25   H165  S    
N12   Ni2   S    
C94   H110  S    
C53   H48   S    
C45   C47   S    
C107  N11   A    
C150  C159  S    
C86   C128  S    
C141  F10   S    
N11   Ni1   S    
C20   H162  S    
C54   H45   S    
C121  C128  A    
C68   H68   S    
C101  C137  A    
C64   H69   S    
C72   C73   S    
C80   C122  S    
C50   C51   S    
C19   C136  S    
C152  C161  S    
C40   H17   S    
C41   H15   S    
C75   C76   S    
C35   C157  S    
C37   C38   S    
C66   H78   S    
C24   C151  S    
N2    Ni6   S    
C5    H120  S    
C72   C86   S    
C9    C103  S    
C147  N31   A    
C60   H62   S    
C45   H33   S    
C101  N6    A    
N4    Ni5   S    
C58   H52   S    
C99   N4    A    
C141  C157  S    
N7    N16   A    
C97   N2    A    
C44   H22   S    
C57   H57   S    
C115  N19   A    
C39   C40   S    
C46   C153  S    
C47   H31   S    
C61   H61   S    
C158  H182  S    
C58   H53   S    
C6    H133  S    
C4    C5    S    
C42   H26   S    
C6    C7    S    
N17   Ni4   S    
C107  H116  S    
C83   C91   D    
C70   H86   S    
C24   C165  S    
C140  C159  S    
C118  C129  A    
C52   H49   S    
C150  F2    S    
C113  C124  A    
C48   H30   S    
C91   H108  S    
C61   H60   S    
C6    C92   S    
C84   C130  S    
C108  N13   A    
C32   C98   S    
N10   Ni1   S    
N24   Ni7   S    
C84   C93   D    
C3    H125  S    
C69   C70   S    
C86   C95   D    
C20   C21   S    
C51   H36   S    
C168  H112  S    
C22   C23   S    
C25   H167  S    
C36   H10   S    
C33   H192  S    
C12   H147  S    
C78   C87   D    
C109  C135  A    
C23   H168  S    
C30   H185  S    
C54   H44   S    
C119  C130  A    
C142  C161  S    
C120  C127  A    
C7    C8    S    
C53   C54   S    
C31   H183  S    
C49   H42   S    
C111  N16   A    
C81   C123  A    
C62   C80   S    
C36   C37   S    
C27   H176  S    
C83   C129  S    
N5    Ni7   S    
C152  F4    S    
C14   H146  S    
C24   C143  S    
C41   H14   S    
C151  F3    S    
C100  N5    A    
C140  C158  S    
N6    N15   A    
C73   H94   S    
C42   C101  S    
C47   C48   S    
C74   H89   S    
C3    C81   S    
C34   H188  S    
N7    Ni8   S    
C38   H6    S    
C105  N9    A    
C50   H40   S    
C28   H173  S    
C36   C99   S    
C52   C79   S    
C9    C10   S    
C145  C150  S    
C68   C148  S    
C5    H121  S    
C35   C144  S    
C66   C67   S    
C72   H95   S    
C22   H172  S    
C29   H187  S    
N15   Ni3   S    
C120  N25   A    
C5    H119  S    
C12   C114  S    
C26   C96   S    
C57   C156  S    
C154  F6    S    
C65   H81   S    
C168  H113  S    
C148  C164  S    
C45   C102  S    
C77   H98   S    
C55   C78   S    
C65   C84   S    
C99   C134  A    
N25   N28   A    
C29   C30   S    
C88   H79   S    
C88   C91   S    
N22   Ni8   S    
C17   C18   S    
C95   H109  S    
C41   H12   S    
C138  C163  S    
C96   C131  A    
C146  C165  S    
C32   H3    S    
C1    N1    A    
C55   H56   S    
C106  N10   A    
C21   H158  S    
C3    C4    S    
C63   H70   S    
C110  H149  S    
C52   C53   S    
C116  N20   A    
C31   H181  S    
N9    N32   A    
C130  C147  A    
C93   H107  S    
N21   Ni6   S    
C148  C152  S    
C121  F23   S    
C109  N14   A    
C145  F15   S    
C166  H118  S    
C146  F16   S    
C111  H160  S    
C6    H132  S    
C87   H90   S    
C67   H76   S    
C24   H24   S    
C1    C166  S    
C87   C93   S    
C56   C58   S    
C125  N29   A    
C28   H175  S    
C76   H100  S    
C10   C11   S    
C146  C151  S    
C17   H153  S    
C49   C50   S    
C19   H163  S    
C14   C15   S    
C22   H170  S    
C55   C56   S    
C26   H178  S    
C108  H127  S    
C51   H37   S    
C73   C74   S    
C15   H144  S    
C68   C155  S    
C53   H47   S    
C9    H141  S    
C68   C161  S    
C98   C133  A    
C26   C27   S    
C115  C126  A    
C116  C122  A    
C96   N32   A    
C92   C124  A    
C30   C31   S    
C31   H180  S    
C37   H8    S    
C80   C89   D    
C65   H80   S    
C75   H103  S    
C75   C85   S    
N6    Ni8   S    
N3    Ni6   S    
C16   C17   S    
C59   C82   S    
C70   C71   S    
C36   H11   S    
N19   N27   A    
C115  F12   S    
C64   H67   S    
C140  C153  S    
N24   N31   A    
C74   H92   S    
C57   C146  S    
N20   Ni5   S    
C49   C104  S    
C34   H189  S    
C4    H123  S    
C79   C88   D    
C89   H106  S    
C90   C94   S    
C90   H101  S    
C110  N15   A    
C56   H55   S    
C44   H21   S    
C119  F21   S    
C143  C160  S    
C16   H155  S    
C42   H27   S    
C62   H72   S    
C167  C168  S    
C139  C162  S    
C67   H74   S    
C117  N21   A    
C148  F17   S    
C69   H88   S    
C116  F18   S    
C39   H18   S    
C8    H126  S    
C60   C61   S    
C2    H2    S    
C89   C95   S    
C76   H102  S    
C62   C63   S    
C52   H50   S    
C61   H59   S    
C140  F9    S    
C135  C165  S    
C11   H134  S    
N1    Ni1   S    
C132  C160  S    
C57   C160  S    
C144  C163  S    
C13   H13   S    
C25   H166  S    
C15   H142  S    
C42   C43   S    
N2    N10   A    
C143  F13   S    
C82   C123  S    
C33   H191  S    
C12   H148  S    
C13   C164  S    
C48   H28   S    
C155  F7    S    
C102  N7    A    
C156  F8    S    
C150  C158  S    
C59   H64   S    
C110  C137  A    
C20   H161  S    
C13   C152  S    
C63   H71   S    
C2    C163  S    
C113  F1    S    
N8    Ni7   S    
C82   C90   D    
C104  C139  A    
C153  C162  S    
C32   C33   S    
C8    H129  S    
C107  C133  A    
C66   H77   S    
C151  C160  S    
C77   H97   S    
C114  C127  A    
C98   N3    A    
C156  C165  S    
C46   C159  S    
C114  N28   A    
C45   H34   S    
C58   H51   S    
C106  H105  S    
C121  N26   A    
N18   N23   A    
C73   H93   S    
C22   C147  S    
C48   H29   S    
C37   H9    S    
C38   H7    S    
C59   H65   S    
C28   H174  S    
C149  C157  S    
C18   H152  S    
C111  C138  A    
C113  N18   A    
C47   H32   S    
C10   H139  S    
C72   H96   S    
C43   C44   S    
C43   H23   S    
C29   H186  S    
C92   N23   A    
C143  C156  S    
C105  H1    S    
N5    N14   A    
C75   H104  S    
C70   H85   S    
C8    H128  S    
C27   H177  S    
C120  F22   S    
N14   Ni4   S    
C46   C145  S    
C145  C162  S    
C131  C161  S    
C133  C159  S    
C71   H82   S    
C102  C138  A    
C119  N24   A    
C49   H41   S    
N19   Ni5   S    
C108  C134  A    
C125  C128  A    
C142  C155  S    
C78   C124  S    
C2    C149  S    
C23   C25   S    
N13   Ni2   S    
N25   Ni7   S    
C7    H130  S    
C112  C139  A    
N26   Ni8   S    
C43   H25   S    
C30   H184  S    
C54   H43   S    
C109  H138  S    
C64   H66   S    
C71   H84   S    
C144  F14   S    
C55   H58   S    
C154  C163  S    
C76   C77   S    
N26   N29   A    
C117  F19   S    
C4    H122  S    
C118  F20   S    
C14   H145  S    
C13   C142  S    
C56   H54   S    
C60   H63   S    
C63   C64   S    
C44   H20   S    
C81   N12   A    
C144  C149  S    
C69   C83   S    
C168  H111  S    
C129  C136  A    
C67   H75   S    
C85   C94   D    
C167  H115  S    
C142  F11   S    
N23   Ni2   S    
C33   C34   S    
C38   H5    S    
C39   H19   S    
C50   H39   S    
N32   Ni5   S    
N29   Ni4   S    
C18   H150  S    
C40   C41   S    
C79   C126  S    
C12   C14   S    
N16   Ni3   S    
C166  C167  S    
C10   H137  S    
C11   H135  S    
C85   C127  S    
C23   H169  S    
C112  N17   A    
C77   H99   S    
C16   C125  S    
N4    N13   A    
C118  N22   A    
C26   H179  S    
C149  F24   S    
N22   N30   A    
C11   H136  S    
C15   H143  S    
C18   H151  S    
C74   H91   S    
C137  C164  S    
C9    H140  S    
N30   Ni4   S    
C155  C164  S    
C7    H131  S    
C29   C97   S    
C136  N30   A    
C3    H124  S    
C117  C123  A    
C39   C100  S    
N31   Ni3   S    
C46   H46   S    
N3    N11   A    
C158  C162  S    
C134  C157  S    
C65   C66   S    
C27   C28   S    
C2    C141  S    
C21   H159  S    
N12   N21   A    
