data_mof_unit_12365.cif
_audit_creation_date              2012-12-11T15:20:34-0500
_audit_creation_method            fapswitch 2.2
_symmetry_space_group_name_H-M    P1
_symmetry_Int_Tables_number       1
_space_group_crystal_system       triclinic
_cell_length_a                    13.004608
_cell_length_b                    13.072451
_cell_length_c                    15.332246
_cell_angle_alpha                 116.475417
_cell_angle_beta                  63.987654
_cell_angle_gamma                 96.890204
_cell_volume                      2087.54010997

loop_
_atom_site_label
_atom_site_type_symbol
_atom_type_description
_atom_site_fract_x
_atom_site_fract_y
_atom_site_fract_z
_atom_type_partial_charge
C1    C     C_R   0.004344 0.833543 0.050078 -0.246478
C2    C     C_R   0.300218 0.590779 0.789698 -0.118254
C3    C     C_R   0.258794 0.417369 0.049235 -0.257918
C4    C     C_R   0.679573 0.469881 0.221203 -0.134208
C5    C     C_R   0.064879 0.282067 0.688076 -0.259178
C6    C     C_R   0.362002 0.436292 0.978759 0.028485
C7    C     C_R   0.050048 0.172154 0.677573 -0.026409
C8    C     C_R   0.297844 0.558718 0.692748 0.089492
C9    C     C_R   0.021587 0.149331 0.033273 0.035342
C10   C     C_R   0.087274 0.006392 0.398244 0.569449
C11   C     C_R   0.080061 0.095165 0.492982 -0.395847
C12   C     C_R   0.673727 0.544933 0.322624 0.085403
C13   C     C_R   0.082498 0.074736 0.573908 -0.071172
C14   C     C_R   0.103018 0.962793 0.556809 0.613167
C15   C     C_R   0.101396 0.872001 0.464614 -0.406130
C16   C     C_R   0.753897 0.514960 0.892417 -0.079938
C17   C     C_R   0.088171 0.894125 0.388390 -0.086376
C18   C     C_R   0.594092 0.544830 0.499464 0.564706
C19   C     C_R   0.499552 0.539072 0.584715 -0.356088
C20   C     C_R   0.390637 0.567738 0.603050 0.066841
C21   C     C_R   0.372753 0.601951 0.536640 -0.284739
C22   C     C_R   0.465944 0.603887 0.446446 0.185287
C23   C     C_R   0.661440 0.455986 0.927376 0.104927
C24   C     C_R   0.576712 0.568374 0.424941 -0.084901
C25   C     C_2   0.472668 0.398760 0.958984 -0.187636
C26   C     C_2   0.568834 0.426511 0.895369 -0.177926
C27   C     C_2   0.848592 0.961647 0.073770 -0.167994
C28   C     C_R   0.010459 0.705734 0.305561 -0.182439
C29   C     C_2   0.831758 0.045552 0.170931 -0.145481
C30   C     C_R   0.676142 0.422545 0.993591 -0.152104
C31   C     C_R   0.093008 0.800690 0.206438 -0.091060
C32   C     C_R   0.783711 0.564505 0.312508 -0.037048
C33   C     C_R   0.912326 0.750509 0.946184 0.551614
C34   C     C_R   0.064245 0.803363 0.304353 0.147166
C35   C     C_R   0.922324 0.854750 0.022969 0.012822
C36   C     C_3   0.794233 0.111470 0.811106 0.187388
C37   C     C_3   0.708477 0.104732 0.915297 -0.314099
C38   C     C_3   0.584592 0.111635 0.931040 -1.033457
C39   C     C_3   0.159808 0.092399 0.282426 0.140313
C40   C     C_3   0.109694 0.208105 0.308423 -0.234585
C41   C     C_3   0.204525 0.279369 0.268622 -1.077735
C42   C     C_3   0.216184 0.974100 0.639492 0.169223
C43   C     C_3   0.231275 0.935842 0.714321 -0.256612
C44   C     C_3   0.333962 0.985105 0.737450 -1.013055
C45   C     C_R   0.338864 0.519882 0.956417 0.532464
C46   C     C_3   0.724943 0.587396 0.575121 0.166670
C47   C     C_3   0.696093 0.717569 0.620309 -0.395376
C48   C     C_3   0.737540 0.787747 0.706763 -0.968302
C49   C     C_3   0.444500 0.646867 0.378176 -0.343096
C50   C     C_3   0.501843 0.756688 0.381230 -0.890375
C51   C     C_3   0.921280 0.668938 0.775068 0.100869
C52   C     C_3   0.011664 0.736699 0.723989 -0.252517
C53   C     C_3   0.064037 0.672272 0.600629 -1.020845
C54   C     C_3   0.394974 0.701044 0.998187 0.137678
C55   C     C_3   0.496646 0.767877 0.962012 -0.245174
C56   C     C_R   0.972217 0.179228 0.777871 0.560184
C57   C     C_3   0.480059 0.890959 0.048695 -1.022221
C58   C     C_R   0.200517 0.505468 0.693709 -0.157504
C59   C     C_R   0.059165 0.254018 0.082007 -0.110849
C60   C     C_R   0.959666 0.169879 0.987466 -0.109963
H1    H     H_    0.034001 0.895758 0.107300 0.156341
H2    H     H_    0.107141 0.784980 0.453915 0.168352
H3    H     H_    0.510952 0.509576 0.635948 0.156881
H4    H     H_    0.286762 0.626736 0.555500 0.143325
H5    H     H_    0.470689 0.371645 0.016873 0.131449
H6    H     H_    0.571852 0.449007 0.834333 0.179768
H7    H     H_    0.800372 0.969800 0.034286 0.154777
H8    H     H_    0.874139 0.041345 0.216613 0.152780
H9    H     H_    0.774312 0.534837 0.826275 0.094887
H10   H     H_    0.990067 0.673618 0.364678 0.107506
H11   H     H_    0.631509 0.360737 0.022162 0.105941
H12   H     H_    0.167629 0.481257 0.634259 0.095271
H13   H     H_    0.152773 0.851000 0.170658 0.101889
H14   H     H_    0.810372 0.617795 0.374723 0.118936
H15   H     H_    0.781815 0.043295 0.741363 0.137253
H16   H     H_    0.774564 0.194885 0.815299 0.080707
H17   H     H_    0.727986 0.023033 0.913332 0.216275
H18   H     H_    0.717447 0.177001 0.985181 0.188734
H19   H     H_    0.568137 0.032443 0.871371 0.275903
H20   H     H_    0.524412 0.122214 0.013515 0.274079
H21   H     H_    0.566850 0.185552 0.921127 0.270388
H22   H     H_    0.201614 0.041542 0.193157 0.108240
H23   H     H_    0.098127 0.272202 0.135853 0.110812
H24   H     H_    0.229378 0.105980 0.309612 0.096196
H25   H     H_    0.051231 0.193133 0.269326 0.197045
H26   H     H_    0.058733 0.257433 0.397013 0.191227
H27   H     H_    0.261482 0.298395 0.309770 0.276289
H28   H     H_    0.165581 0.361950 0.287217 0.270368
H29   H     H_    0.256649 0.232454 0.179846 0.267943
H30   H     H_    0.216764 0.069006 0.672750 0.108646
H31   H     H_    0.290050 0.933717 0.558062 0.089745
H32   H     H_    0.152352 0.964521 0.792096 0.212817
H33   H     H_    0.244664 0.840765 0.675799 0.196657
H34   H     H_    0.907367 0.109745 0.954583 0.153714
H35   H     H_    0.414156 0.957710 0.661018 0.265154
H36   H     H_    0.343421 0.953445 0.790043 0.268806
H37   H     H_    0.320867 0.080374 0.779777 0.274164
H38   H     H_    0.818135 0.572082 0.549530 0.133372
H39   H     H_    0.679603 0.558777 0.639747 0.102959
H40   H     H_    0.736434 0.744736 0.554468 0.207362
H41   H     H_    0.601614 0.737983 0.657573 0.202085
H42   H     H_    0.709178 0.754934 0.768335 0.270236
H43   H     H_    0.700650 0.877489 0.747486 0.272187
H44   H     H_    0.832285 0.786570 0.669678 0.283850
H45   H     H_    0.356632 0.648800 0.818514 0.142079
H46   H     H_    0.477233 0.821630 0.466097 0.252937
H47   H     H_    0.596777 0.739239 0.338273 0.263957
H48   H     H_    0.473732 0.792435 0.340832 0.247092
H49   H     H_    0.474492 0.580385 0.293485 0.184662
H50   H     H_    0.350805 0.666227 0.408461 0.182673
H51   H     H_    0.863560 0.641395 0.734274 0.138212
H52   H     H_    0.962888 0.588592 0.758506 0.095338
H53   H     H_    0.971820 0.822376 0.750677 0.254033
H54   H     H_    0.080613 0.749048 0.751008 0.168241
H55   H     H_    0.097676 0.583619 0.572398 0.250311
H56   H     H_    0.248332 0.365157 0.090033 0.140602
H57   H     H_    0.135544 0.717643 0.564988 0.284499
H58   H     H_    0.999139 0.667075 0.570593 0.261558
H59   H     H_    0.383748 0.703930 0.075799 0.110198
H60   H     H_    0.316471 0.742528 0.011045 0.094385
H61   H     H_    0.576614 0.724247 0.944294 0.223312
H62   H     H_    0.506151 0.769361 0.886939 0.196945
H63   H     H_    0.403863 0.937981 0.063665 0.255060
H64   H     H_    0.557226 0.935450 0.021072 0.285955
H65   H     H_    0.468410 0.891829 0.125270 0.267250
H66   H     H_    0.117232 0.308047 0.625624 0.144064
H67   H     H_    0.061343 0.180388 0.505956 0.163758
H68   H     H_    0.610074 0.430663 0.201208 0.096209
N1    N     N_R   0.037310 0.720000 0.995790 -0.070143
N2    N     N_R   0.824890 0.517960 0.936420 -0.046781
N3    N     N_R   0.003210 0.648190 0.211380 -0.043652
N4    N     N_R   0.774330 0.457010 0.995840 -0.046157
N5    N     N_R   0.053760 0.709140 0.151960 -0.050537
N6    N     N_R   0.853860 0.498840 0.211410 -0.047113
N7    N     N_R   0.974240 0.667310 0.936390 -0.107203
N8    N     N_R   0.225670 0.542990 0.004160 -0.108602
N9    N     N_R   0.946240 0.290860 0.848040 -0.109759
N10   N     N_R   0.146140 0.501160 0.788590 -0.041656
N11   N     N_R   0.025760 0.332690 0.063610 -0.036188
N12   N     N_R   0.962690 0.280000 0.004210 -0.052025
N13   N     N_R   0.209210 0.553840 0.847990 -0.045134
N14   N     N_R   0.175110 0.482040 0.063580 -0.062477
N15   N     N_R   0.996790 0.351810 0.788620 -0.070547
N16   N     N_R   0.790790 0.446160 0.152010 -0.045825
Ni1   Ni    Ni4+2 0.130310 0.630310 0.999970 0.190118
Ni2   Ni    Ni4+2 0.869690 0.369690 0.000030 0.204174
Ni3   Ni    Ni4+2 0.985640 0.509470 0.863740 0.188793
Ni4   Ni    Ni4+2 0.014360 0.490530 0.136260 0.211799
O1    O     O_3   0.907799 0.092027 0.794319 -0.665400
O2    O     O_3   0.070065 0.031173 0.326135 -0.675079
O3    O     O_3   0.110992 0.940274 0.633808 -0.644168
O4    O     O_3   0.703623 0.518468 0.483071 -0.670945
O5    O     O_3   0.852336 0.736731 0.886733 -0.682094
O6    O     O_3   0.417428 0.587104 0.916500 -0.702449

loop_
_geom_bond_atom_site_label_1
_geom_bond_atom_site_label_2
_ccdc_geom_bond_type
C46   O4    S    
C46   H39   S    
C55   H61   S    
C51   H52   S    
C47   H41   S    
C6    C45   A    
C54   H60   S    
C27   C29   D    
C41   H29   S    
C19   C20   A    
C31   N5    A    
C3    C6    A    
C30   H11   S    
C52   H53   S    
N15   Ni3   S    
C32   N6    A    
C39   O2    S    
C8    C20   S    
C18   C24   A    
C21   C22   A    
C36   C37   S    
C59   H23   S    
C39   H24   S    
C18   C19   A    
C1    N1    A    
C3    H56   S    
C57   H65   S    
C33   O5    S    
C36   O1    S    
C5    N15   A    
C6    C25   S    
C38   H19   S    
C10   C17   A    
C48   H44   S    
C42   H31   S    
C46   C47   S    
C23   C26   S    
C40   H26   S    
C21   H4    S    
N8    N14   A    
C36   H16   S    
C8    C58   A    
N1    N7    A    
C19   H3    S    
C14   O3    S    
C4    C12   A    
C16   N2    A    
N1    Ni1   S    
N8    Ni1   S    
N13   Ni1   S    
C58   N10   A    
N9    N15   A    
C55   H62   S    
C28   C34   A    
C54   H59   S    
C12   C32   A    
C50   H48   S    
C3    N14   A    
C7    C56   A    
C18   O4    S    
C41   H27   S    
C28   H10   S    
N11   Ni4   S    
C4    H68   S    
C51   C52   S    
C26   H6    S    
C23   C30   A    
N14   Ni4   S    
N9    Ni2   S    
C25   H5    S    
N16   Ni2   S    
N12   Ni2   S    
C39   C40   S    
C5    C7    A    
C53   H58   S    
C27   C35   S    
C25   C26   D    
C48   H43   S    
C37   H17   S    
C47   H40   S    
C42   H30   S    
C40   H25   S    
C5    H66   S    
N2    N4    A    
C43   C44   S    
C4    N16   A    
C37   C38   S    
C44   H36   S    
C36   H15   S    
C57   H63   S    
C29   H8    S    
C44   H37   S    
C33   N7    A    
C47   C48   S    
C59   N11   A    
N10   Ni3   S    
C48   H42   S    
C31   C34   A    
N3    Ni4   S    
C27   H7    S    
C42   O3    S    
C60   N12   A    
C22   C49   S    
C11   H67   S    
C40   C41   S    
C16   C23   A    
N7    Ni3   S    
C55   C57   S    
C38   H21   S    
C50   H47   S    
C22   C24   A    
N5    Ni1   S    
C42   C43   S    
C52   C53   S    
C1    C35   A    
C49   H49   S    
C15   C17   A    
C41   H28   S    
C54   C55   S    
C51   O5    S    
C45   N8    A    
C51   H51   S    
N2    Ni3   S    
C2    C8    A    
C16   H9    S    
C39   H22   S    
N3    N5    A    
N10   N13   A    
C1    H1    S    
C54   O6    S    
N11   N12   A    
C52   H54   S    
N6    Ni4   S    
C37   H18   S    
C12   C24   S    
C2    H45   S    
C43   H32   S    
C43   H33   S    
C28   N3    A    
N4    Ni2   S    
C9    C60   A    
C44   H35   S    
C10   O2    S    
C57   H64   S    
C32   H14   S    
C56   N9    A    
C11   C13   A    
C58   H12   S    
C38   H20   S    
C30   N4    A    
C33   C35   A    
C15   H2    S    
C53   H57   S    
C46   H38   S    
C31   H13   S    
C10   C11   A    
N6    N16   A    
C7    C13   S    
C20   C21   A    
C49   C50   S    
C17   C34   S    
C50   H46   S    
C2    N13   A    
C14   C15   A    
C45   O6    S    
C9    C59   A    
C56   O1    S    
C13   C14   A    
C53   H55   S    
C49   H50   S    
C60   H34   S    
