data_mof_unit_42110.cif
_audit_creation_date              2012-12-11T17:36:21-0500
_audit_creation_method            fapswitch 2.2
_symmetry_space_group_name_H-M    P1
_symmetry_Int_Tables_number       1
_space_group_crystal_system       triclinic
_cell_length_a                    25.793067
_cell_length_b                    6.890213
_cell_length_c                    21.659469
_cell_angle_alpha                 89.874703
_cell_angle_beta                  96.29083
_cell_angle_gamma                 89.886547
_cell_volume                      3826.11756759

loop_
_atom_site_label
_atom_site_type_symbol
_atom_type_description
_atom_site_fract_x
_atom_site_fract_y
_atom_site_fract_z
_atom_type_partial_charge
O1    O     O_R   0.208650 0.594520 0.175450 -0.547693
O2    O     O_R   0.791350 0.405480 0.824550 -0.547978
O3    O     O_R   0.291350 0.094520 0.324550 -0.546420
O4    O     O_R   0.708650 0.905480 0.675450 -0.546276
O5    O     O_R   0.192980 0.260780 0.300160 -0.505881
O6    O     O_R   0.807020 0.739220 0.699840 -0.509413
O7    O     O_R   0.307020 0.760780 0.199840 -0.507680
O8    O     O_R   0.692980 0.239220 0.800160 -0.509117
C1    C     C_R   0.177468 0.432721 0.316504 0.763044
C2    C     C_R   0.822461 0.567218 0.683478 0.768565
C3    C     C_R   0.322538 0.932760 0.183543 0.761742
C4    C     C_R   0.677519 0.067246 0.816525 0.763520
O9    O     O_R   0.202550 0.264660 0.174420 -0.526177
O10   O     O_R   0.797450 0.735340 0.825580 -0.526580
O11   O     O_R   0.297450 0.764660 0.325580 -0.525854
O12   O     O_R   0.702550 0.235340 0.674420 -0.525275
O13   O     O_R   0.300990 0.096480 0.197920 -0.543063
O14   O     O_R   0.699010 0.903520 0.802080 -0.544370
O15   O     O_R   0.199010 0.596480 0.302080 -0.542548
O16   O     O_R   0.800990 0.403520 0.697920 -0.543810
C5    C     C_R   0.191239 0.433444 0.150840 0.745708
C6    C     C_R   0.808639 0.566767 0.849349 0.753068
C7    C     C_R   0.308783 0.932547 0.349321 0.750952
C8    C     C_R   0.691239 0.067470 0.650656 0.752337
O17   O     O_3   0.282290 0.427760 0.257860 -0.352048
O18   O     O_3   0.717710 0.572240 0.742140 -0.352688
O19   O     O_3   0.217710 0.927760 0.242140 -0.352118
O20   O     O_3   0.782290 0.072240 0.757860 -0.354275
V1    V     V_3+5 0.244010 0.152080 0.248540 1.620494
V2    V     V_3+5 0.755990 0.847920 0.751460 1.620441
V3    V     V_3+5 0.255990 0.652080 0.251460 1.621002
V4    V     V_3+5 0.744010 0.347920 0.748540 1.624558
C9    C     C_R   0.657620 0.067518 0.590784 -0.119110
C10   C     C_R   0.342453 0.932656 0.409148 -0.119456
C11   C     C_R   0.842161 0.563588 0.909170 -0.120827
C12   C     C_R   0.157164 0.438889 0.091608 -0.126379
C13   C     C_R   0.641622 0.198079 0.485899 0.459328
C14   C     C_R   0.358531 0.803088 0.514137 0.462087
C15   C     C_R   0.858850 0.688573 0.014230 0.456797
C16   C     C_R   0.147360 0.405351 0.979546 0.469108
C17   C     C_R   0.674220 0.170844 0.541171 -0.215665
C18   C     C_R   0.325907 0.829625 0.458854 -0.214534
C19   C     C_R   0.826494 0.669637 0.958576 -0.218397
C20   C     C_R   0.178869 0.415060 0.036196 -0.225360
C21   C     C_R   0.605956 0.001698 0.586604 -0.122868
C22   C     C_R   0.394096 0.998707 0.413230 -0.127208
C23   C     C_R   0.892733 0.486116 0.913879 -0.126041
C24   C     C_R   0.103223 0.462843 0.090480 -0.140747
C25   C     C_R   0.570980 0.032370 0.531801 0.045102
C26   C     C_R   0.429101 0.968683 0.468052 0.042542
C27   C     C_R   0.927312 0.504171 0.969613 0.045848
C28   C     C_R   0.069263 0.443337 0.034395 0.035588
C29   C     C_R   0.591568 0.108282 0.478352 -0.060519
C30   C     C_R   0.408531 0.893191 0.521557 -0.064832
C31   C     C_R   0.907162 0.585898 0.022521 -0.066868
C32   C     C_R   0.091897 0.396577 0.978987 -0.064383
C33   C     C_R   0.516173 0.992707 0.528752 0.079690
C34   C     C_R   0.483899 0.008610 0.471104 0.081827
C35   C     C_R   0.981619 0.451835 0.973978 0.081602
C36   C     C_R   0.013804 0.471767 0.031573 0.079728
C37   C     C_R   0.508016 0.049153 0.417339 -0.198200
C38   C     C_R   0.492028 0.952870 0.582553 -0.183459
C39   C     C_R   0.989213 0.515116 0.084859 -0.195170
C40   C     C_R   0.004764 0.379480 0.922775 -0.200562
C41   C     C_R   0.561086 0.093041 0.420010 -0.038094
C42   C     C_R   0.438916 0.909083 0.579867 -0.021864
C43   C     C_R   0.936459 0.564190 0.081269 -0.037731
C44   C     C_R   0.058248 0.342786 0.925626 -0.032520
H1    H     H_    0.406076 0.070184 0.372757 0.143269
H2    H     H_    0.593909 0.929887 0.626987 0.148841
H3    H     H_    0.089341 0.494175 0.134437 0.154676
H4    H     H_    0.904126 0.418970 0.872591 0.143837
H5    H     H_    0.287839 0.761393 0.453291 0.155910
H6    H     H_    0.712321 0.238815 0.546816 0.155209
H7    H     H_    0.220959 0.410352 0.037068 0.154975
H8    H     H_    0.789469 0.745934 0.952530 0.157057
H9    H     H_    0.486785 0.034685 0.371817 0.167778
H10   H     H_    0.513216 0.968220 0.628077 0.162877
H11   H     H_    0.009672 0.503652 0.130758 0.167372
H12   H     H_    0.981658 0.341461 0.880117 0.154917
C45   C     C_R   0.448533 0.825894 0.108061 -0.223885
C46   C     C_R   0.551760 0.176203 0.892148 -0.133115
C47   C     C_R   0.052289 0.324790 0.393701 -0.223413
C48   C     C_R   0.948422 0.676504 0.608529 -0.120259
C49   C     C_R   0.410622 0.815958 0.151357 0.414898
C50   C     C_R   0.589445 0.183886 0.848506 0.337238
C51   C     C_R   0.090052 0.313628 0.350245 0.413566
C52   C     C_R   0.910602 0.683418 0.652005 0.397056
C53   C     C_R   0.366740 0.943939 0.144224 -0.169785
C54   C     C_R   0.633371 0.056297 0.855897 -0.159710
C55   C     C_R   0.133406 0.443699 0.356114 -0.173158
C56   C     C_R   0.866721 0.556436 0.644300 -0.177519
C57   C     C_R   0.364681 0.088614 0.098134 -0.159848
C58   C     C_R   0.635560 0.912739 0.902310 -0.138726
C59   C     C_R   0.135169 0.590152 0.401415 -0.151968
C60   C     C_R   0.864696 0.413964 0.597785 -0.143901
H13   H     H_    0.332253 0.189622 0.092258 0.143474
H14   H     H_    0.668043 0.811999 0.908359 0.140561
H15   H     H_    0.167239 0.692271 0.406515 0.145437
H16   H     H_    0.832244 0.313690 0.591527 0.143291
C61   C     C_R   0.403639 0.104939 0.058517 -0.001804
C62   C     C_R   0.596584 0.896932 0.941906 -0.055934
C63   C     C_R   0.096384 0.607042 0.441236 0.001541
C64   C     C_R   0.903809 0.398743 0.558357 -0.058309
H17   H     H_    0.400637 0.218690 0.023658 0.163348
H18   H     H_    0.599581 0.783553 0.976891 0.161863
H19   H     H_    0.099158 0.722235 0.475426 0.164348
H20   H     H_    0.900954 0.286192 0.523274 0.163148
C65   C     C_R   0.445297 0.974022 0.062397 -0.028291
C66   C     C_R   0.554906 0.027845 0.937875 -0.015130
C67   C     C_R   0.055169 0.475078 0.438367 -0.030255
C68   C     C_R   0.945443 0.529234 0.562676 -0.030374
C69   C     C_1   0.483928 0.992760 0.018343 0.028271
C70   C     C_1   0.516261 0.008674 0.981899 0.057908
C71   C     C_1   0.016600 0.494679 0.482446 0.031693
C72   C     C_1   0.984220 0.510621 0.518817 0.059053
C73   C     C_2   0.584460 0.088339 0.360460 0.966124
O21   O     O_2   0.626100 0.005665 0.357488 -0.490306
O22   O     O_R   0.557489 0.169436 0.306997 -0.638259
H21   H     H_    0.576966 0.154264 0.269095 0.337450
C74   C     C_2   0.414921 0.917083 0.638972 0.943593
O23   O     O_2   0.437404 0.845285 0.686268 -0.505977
O24   O     O_R   0.367796 0.016072 0.641145 -0.618617
H22   H     H_    0.355827 0.015449 0.684194 0.347866
C75   C     C_2   0.911987 0.562796 0.140152 0.967616
O25   O     O_2   0.868975 0.489848 0.141751 -0.495111
O26   O     O_R   0.939233 0.636120 0.194482 -0.637388
H23   H     H_    0.918828 0.624205 0.231738 0.336234
C76   C     C_2   0.075489 0.220264 0.875582 0.922593
O27   O     O_2   0.103269 0.078886 0.888772 -0.497296
O28   O     O_R   0.057734 0.260632 0.813548 -0.622441
H24   H     H_    0.071921 0.166079 0.783741 0.342752
S1    S     S_3+6 0.660375 0.384822 0.436141 0.047030
O29   O     O_2   0.695165 0.302487 0.391388 -0.267587
O30   O     O_2   0.613317 0.478189 0.400911 -0.318829
O31   O     O_3   0.693739 0.555540 0.479350 -0.512462
H25   H     H_    0.699435 0.661443 0.449847 0.389275
S2    S     S_3+6 0.340020 0.616401 0.564072 0.039076
O32   O     O_2   0.387213 0.523861 0.599276 -0.311844
O33   O     O_2   0.305204 0.698307 0.608853 -0.283879
O34   O     O_3   0.306795 0.445005 0.521017 -0.511482
H26   H     H_    0.301794 0.338141 0.550447 0.388451
S3    S     S_3+6 0.842808 0.879963 0.063768 0.043744
O35   O     O_2   0.806018 0.807126 0.107745 -0.265838
O36   O     O_2   0.891055 0.960710 0.099881 -0.324344
O37   O     O_3   0.813072 0.058989 0.020202 -0.512574
H27   H     H_    0.810299 0.168360 0.049282 0.389045
S4    S     S_3+6 0.179629 0.446205 0.912293 0.074743
O38   O     O_2   0.198114 0.256523 0.888389 -0.277794
O39   O     O_2   0.143995 0.546068 0.862457 -0.282435
O40   O     O_3   0.231849 0.588570 0.931269 -0.489957
H28   H     H_    0.248397 0.603168 0.892358 0.395274
C77   C     C_2   0.490494 0.677565 0.108440 0.951016
O41   O     O_2   0.478911 0.506346 0.102641 -0.503818
O42   O     O_R   0.543144 0.729967 0.115109 -0.618623
H29   H     H_    0.548639 0.873541 0.123395 0.284726
C78   C     C_2   0.510525 0.327194 0.891937 0.881112
O43   O     O_2   0.465125 0.280686 0.894866 -0.539288
O44   O     O_R   0.523907 0.523281 0.888990 -0.618599
H30   H     H_    0.492674 0.612627 0.889453 0.322892
C79   C     C_2   0.010788 0.175706 0.394551 0.949773
O45   O     O_2   0.022892 0.005154 0.401859 -0.506432
O46   O     O_R   0.957979 0.226746 0.387380 -0.619904
H31   H     H_    0.952063 0.369690 0.377952 0.283738
C80   C     C_2   0.989597 0.827228 0.609041 0.911935
O47   O     O_2   0.035020 0.780549 0.606029 -0.530022
O48   O     O_R   0.976130 0.023308 0.612355 -0.628501
H32   H     H_    0.007331 0.112466 0.612119 0.317243
S5    S     S_3+6 0.421152 0.658123 0.217172 0.017758
O49   O     O_2   0.401451 0.750761 0.272885 -0.364938
O50   O     O_2   0.392350 0.471545 0.202518 -0.328859
O51   O     O_3   0.484935 0.608922 0.235312 -0.473149
H33   H     H_    0.486219 0.512206 0.269359 0.396010
S6    S     S_3+6 0.578090 0.335584 0.781288 0.048708
O52   O     O_2   0.605460 0.525844 0.794295 -0.293187
O53   O     O_2   0.598669 0.241985 0.726273 -0.364692
O54   O     O_3   0.514074 0.378765 0.762481 -0.443315
H34   H     H_    0.498919 0.250863 0.750002 0.353902
S7    S     S_3+6 0.080025 0.150067 0.286093 0.014111
O55   O     O_2   0.099405 0.237755 0.229388 -0.368158
O56   O     O_2   0.109423 0.965364 0.302733 -0.331638
O57   O     O_3   0.016402 0.098248 0.268480 -0.474218
H35   H     H_    0.015488 0.996042 0.236281 0.393899
S8    S     S_3+6 0.921728 0.832946 0.719467 0.025870
O58   O     O_2   0.894093 0.023546 0.706905 -0.321624
O59   O     O_2   0.901349 0.735509 0.774041 -0.365346
O60   O     O_3   0.985774 0.874267 0.738197 -0.474313
H36   H     H_    0.987978 0.946728 0.777839 0.376837

loop_
_geom_bond_atom_site_label_1
_geom_bond_atom_site_label_2
_ccdc_geom_bond_type
O17   V3    S    
S3    O37   S    
C47   C51   A    
O1    C5    A    
C78   O43   D    
C51   C55   A    
O19   V1    S    
C9    C21   A    
S5    O49   D    
O12   C8    A    
O3    C7    A    
O46   H31   S    
C10   C18   A    
S4    O40   S    
C56   C60   A    
C11   C23   A    
C1    C55   S    
C79   O45   D    
C25   C33   A    
O24   H22   S    
C5    C12   S    
C39   H11   S    
O7    C3    A    
C6    C11   S    
C35   C40   A    
C48   C68   A    
C36   C39   A    
C46   C66   A    
O9    V1    S    
S4    O39   D    
C14   C18   A    
C73   O22   S    
O16   V4    S    
O4    C8    A    
C59   H15   S    
C52   S8    S    
C68   C72   S    
C58   H14   S    
C61   C65   A    
C71   C72   T    
O1    V3    S    
C45   C77   S    
S8    O58   D    
O2    V4    S    
O3    V1    S    
O57   H35   S    
C22   H1    S    
C48   C80   S    
C28   C36   A    
C17   H6    S    
S6    O52   D    
O34   H26   S    
C1    O15   A    
C15   C31   A    
C52   C56   A    
C2    O16   A    
C16   C32   A    
O2    C6    A    
S1    O31   S    
O40   H28   S    
C12   C24   A    
C10   C22   A    
C77   O42   S    
C11   C19   A    
C66   C70   S    
C16   C20   A    
C65   C69   S    
S7    O57   S    
C13   C29   A    
C34   C37   A    
O11   C7    A    
C47   C79   S    
O15   V3    S    
C35   C36   A    
C78   O44   S    
O17   V1    S    
C40   H12   S    
O10   V2    S    
C79   O46   S    
C59   C63   A    
C45   C49   A    
C54   C58   A    
O5    V1    S    
C61   H17   S    
C39   C43   A    
O7    V3    S    
C16   S4    S    
O19   V3    S    
C26   C34   A    
O20   V4    S    
S4    O38   D    
C50   C54   A    
C57   C61   A    
O48   H32   S    
C64   C68   A    
C46   C78   S    
C38   C42   A    
O18   V4    S    
C15   C19   A    
C33   C38   A    
C46   C50   A    
C55   C59   A    
C53   C57   A    
C49   S5    S    
C50   S6    S    
O8    V4    S    
C20   H7    S    
O5    C1    A    
C37   C41   A    
C67   C71   S    
C3    C53   S    
C57   H13   S    
C31   C43   A    
O44   H30   S    
C14   C30   A    
C21   C25   A    
O8    C4    A    
C7    C10   S    
C14   S2    S    
C42   C74   S    
O9    C5    A    
C26   C30   A    
S6    O54   S    
C74   O23   D    
O37   H27   S    
S2    O33   D    
O14   V2    S    
O6    V2    S    
C51   S7    S    
C15   S3    S    
O18   V2    S    
C37   H9    S    
C60   C64   A    
C75   O25   D    
S5    O51   S    
C47   C67   A    
C12   C20   A    
C27   C35   A    
C24   H3    S    
O28   H24   S    
C40   C44   A    
C64   H20   S    
C29   C41   A    
O51   H33   S    
S1    O30   D    
C69   C70   T    
S5    O50   D    
C4    C54   S    
C19   H8    S    
S3    O36   D    
C3    O13   A    
C18   H5    S    
C49   C53   A    
C21   H2    S    
C38   H10   S    
C48   C52   A    
C45   C65   A    
O31   H25   S    
S2    O34   S    
O6    C2    A    
C23   C27   A    
O22   H21   S    
O11   V3    S    
C30   C42   A    
C63   C67   A    
O12   V4    S    
C22   C26   A    
C8    C9    S    
S8    O60   S    
C9    C17   A    
O10   C6    A    
C43   C75   S    
S3    O35   D    
C76   O27   D    
O60   H36   S    
C32   C44   A    
O13   V1    S    
C33   C34   A    
S1    O29   D    
C25   C29   A    
C60   H16   S    
O20   V2    S    
S8    O59   D    
C62   H18   S    
C27   C31   A    
C13   C17   A    
C44   C76   S    
C13   S1    S    
S6    O53   D    
C23   H4    S    
C74   O24   S    
C62   C66   A    
S2    O32   D    
C2    C56   S    
S7    O55   D    
C28   C32   A    
C80   O47   D    
C24   C28   A    
C58   C62   A    
C80   O48   S    
O54   H34   S    
C4    O14   A    
O42   H29   S    
C75   O26   S    
C41   C73   S    
C63   H19   S    
S7    O56   D    
C77   O41   D    
C73   O21   D    
O4    V2    S    
O26   H23   S    
C76   O28   S    
