data_mof_unit_40436.cif
_audit_creation_date              2012-12-11T16:26:31-0500
_audit_creation_method            fapswitch 2.2
_symmetry_space_group_name_H-M    P1
_symmetry_Int_Tables_number       1
_space_group_crystal_system       triclinic
_cell_length_a                    13.984039
_cell_length_b                    13.983545
_cell_length_c                    31.940857
_cell_angle_alpha                 90.001067
_cell_angle_beta                  89.994187
_cell_angle_gamma                 120.000195
_cell_volume                      5409.11545151

loop_
_atom_site_label
_atom_site_type_symbol
_atom_type_description
_atom_site_fract_x
_atom_site_fract_y
_atom_site_fract_z
_atom_type_partial_charge
C1    C     C_R   0.567804 0.443738 0.810684 0.557274
C2    C     C_R   0.443763 0.567797 0.189324 0.556928
C3    C     C_3   0.875215 0.075350 0.673498 -0.373434
C4    C     C_3   0.277635 0.261472 0.840288 -0.003840
C5    C     C_3   0.211183 0.153324 0.816640 -0.360639
C6    C     C_3   0.951005 0.738920 0.639789 -0.009698
C7    C     C_3   0.924536 0.800668 0.672831 -0.373463
C8    C     C_3   0.738721 0.016457 0.840378 -0.003769
C9    C     C_3   0.846921 0.058250 0.816753 -0.360663
C10   C     C_3   0.260883 0.212498 0.639981 -0.009633
C11   C     C_3   0.199288 0.124449 0.673094 -0.373464
C12   C     C_3   0.738689 0.951497 0.359647 -0.009182
C13   C     C_R   0.432539 0.876647 0.310528 0.556799
C14   C     C_3   0.799602 0.924748 0.326339 -0.373399
C15   C     C_3   0.017751 0.739992 0.159196 -0.003914
C16   C     C_3   0.060049 0.848377 0.182737 -0.360673
C17   C     C_3   0.212099 0.261180 0.360065 -0.009551
C18   C     C_3   0.124056 0.199627 0.326950 -0.373542
C19   C     C_3   0.722090 0.983244 0.159646 -0.003722
C20   C     C_3   0.788390 0.941328 0.183265 -0.360621
C21   C     C_3   0.048460 0.787711 0.360220 -0.009831
C22   C     C_3   0.074855 0.875982 0.327211 -0.373478
C23   C     C_3   0.263611 0.278045 0.160477 -0.003461
C24   C     C_R   0.124088 0.556268 0.189314 0.557175
C25   C     C_3   0.155513 0.210906 0.184088 -0.360712
C26   C     C_1   0.003373 0.515036 0.018718 -0.022067
C27   C     C_1   0.527200 0.995519 0.481293 -0.025132
C28   C     C_1   0.484410 0.487921 0.018712 -0.022094
C29   C     C_1   0.004309 0.530870 0.481287 -0.025131
C30   C     C_1   0.511877 0.996592 0.018713 -0.022076
C31   C     C_1   0.468832 0.473195 0.481283 -0.025118
C32   C     C_1   0.531690 0.004482 0.518706 -0.025121
C33   C     C_R   0.876678 0.432569 0.689472 0.556481
C34   C     C_1   0.996550 0.511622 0.981291 -0.022063
C35   C     C_1   0.473247 0.468805 0.518701 -0.025123
C36   C     C_1   0.515274 0.003393 0.981284 -0.022071
C37   C     C_1   0.995594 0.526514 0.518707 -0.025129
C38   C     C_1   0.487799 0.484519 0.981281 -0.022051
C39   C     C_R   0.930453 0.470193 0.851794 0.020840
C40   C     C_R   0.539559 0.069760 0.648107 0.041632
C41   C     C_R   0.529726 0.460278 0.851784 0.020650
C42   C     C_R   0.930468 0.469915 0.648134 0.041587
C43   C     C_R   0.539688 0.069468 0.851784 0.020578
C44   C     C_R   0.556255 0.124068 0.810683 0.557265
C45   C     C_R   0.530166 0.460509 0.648117 0.041574
C46   C     C_R   0.469711 0.930193 0.351898 0.041642
C47   C     C_R   0.069531 0.539734 0.148209 0.020712
C48   C     C_R   0.460510 0.530077 0.351865 0.041621
C49   C     C_R   0.470237 0.930522 0.148214 0.020662
C50   C     C_R   0.069527 0.539454 0.351867 0.041543
C51   C     C_R   0.460385 0.529762 0.148231 0.020080
C52   C     C_R   0.930754 0.559244 0.873211 0.251546
C53   C     C_R   0.616409 0.041213 0.631804 0.267510
C54   C     C_R   0.440294 0.371656 0.873102 0.251530
C55   C     C_R   0.567450 0.444104 0.689469 0.556553
C56   C     C_R   0.958136 0.574948 0.631675 0.267496
C57   C     C_R   0.628320 0.068774 0.873130 0.251557
C58   C     C_R   0.424972 0.383378 0.631727 0.267425
C59   C     C_R   0.575209 0.959050 0.368163 0.267466
C60   C     C_R   0.069238 0.628488 0.126793 0.251598
C61   C     C_R   0.383254 0.424949 0.368279 0.267524
C62   C     C_R   0.559491 0.931103 0.126847 0.251477
C63   C     C_R   0.041861 0.616825 0.368326 0.267402
C64   C     C_R   0.371940 0.440035 0.126971 0.251504
C65   C     C_R   0.956844 0.574741 0.915852 -0.096250
C66   C     C_R   0.875911 0.432180 0.810686 0.557346
C67   C     C_R   0.609802 0.014044 0.588665 -0.110348
C68   C     C_R   0.424627 0.382106 0.915742 -0.096093
C69   C     C_R   0.985281 0.595253 0.588520 -0.110457
C70   C     C_R   0.617813 0.042692 0.915773 -0.096084
C71   C     C_R   0.404571 0.390139 0.588578 -0.110485
C72   C     C_R   0.595801 0.986253 0.411296 -0.110326
C73   C     C_R   0.043123 0.617884 0.084154 -0.096227
C74   C     C_R   0.390007 0.404554 0.411428 -0.110390
C75   C     C_R   0.575064 0.957186 0.084206 -0.096062
C76   C     C_R   0.014680 0.609959 0.411479 -0.110550
C77   C     C_R   0.555903 0.123349 0.689471 0.556728
C78   C     C_R   0.382302 0.424410 0.084323 -0.095678
C79   C     C_R   0.986038 0.505560 0.936795 -0.005934
C80   C     C_R   0.530441 0.017364 0.563086 0.003174
C81   C     C_R   0.494028 0.480248 0.936781 -0.005982
C82   C     C_R   0.982988 0.512783 0.563107 0.003297
C83   C     C_R   0.519613 0.013878 0.936786 -0.005981
C84   C     C_R   0.487140 0.469976 0.563094 0.003268
C85   C     C_R   0.513016 0.982601 0.436917 0.003141
C86   C     C_R   0.013895 0.519496 0.063213 -0.005942
C87   C     C_R   0.469985 0.487053 0.436888 0.003262
C88   C     C_R   0.444103 0.567427 0.310526 0.556502
C89   C     C_R   0.505743 0.986105 0.063211 -0.005984
C90   C     C_R   0.016927 0.529753 0.436887 0.003319
C91   C     C_R   0.480226 0.494168 0.063214 -0.006099
C92   C     C_R   0.995630 0.424299 0.915010 -0.130058
C93   C     C_R   0.451033 0.038031 0.580195 -0.135306
C94   C     C_R   0.575698 0.571029 0.915089 -0.130100
C95   C     C_R   0.963415 0.413254 0.580393 -0.135253
C96   C     C_R   0.428831 0.004647 0.915067 -0.130109
C97   C     C_R   0.586907 0.549678 0.580303 -0.135252
C98   C     C_R   0.412786 0.961563 0.419851 -0.135329
C99   C     C_R   0.432192 0.875930 0.189316 0.557376
C100  C     C_R   0.004296 0.428641 0.084999 -0.130098
C101  C     C_R   0.549831 0.586717 0.419650 -0.135272
C102  C     C_R   0.424266 0.995441 0.084948 -0.130073
C103  C     C_R   0.036499 0.449799 0.419600 -0.135216
C104  C     C_R   0.570897 0.576141 0.084847 -0.130148
C105  C     C_R   0.968308 0.406800 0.872713 -0.159104
C106  C     C_R   0.454843 0.062978 0.622375 -0.175855
C107  C     C_R   0.593360 0.561331 0.872796 -0.158985
C108  C     C_R   0.938411 0.392332 0.622579 -0.175749
C109  C     C_R   0.438582 0.031969 0.872771 -0.159171
C110  C     C_R   0.123328 0.555894 0.310530 0.556487
C111  C     C_R   0.607912 0.545688 0.622484 -0.175698
C112  C     C_R   0.391634 0.936613 0.377674 -0.175857
C113  C     C_R   0.031646 0.438476 0.127294 -0.159399
C114  C     C_R   0.545837 0.607718 0.377467 -0.175833
C115  C     C_R   0.406701 0.968124 0.127246 -0.158960
C116  C     C_R   0.061547 0.453908 0.377418 -0.175626
C117  C     C_R   0.561268 0.593749 0.127149 -0.159061
C118  C     C_3   0.982313 0.722257 0.840814 -0.003940
C119  C     C_3   0.940063 0.788371 0.817267 -0.360652
C120  C     C_3   0.787468 0.048700 0.640242 -0.009286
Cr1   Cr    Cr6+3 0.504240 0.249200 0.750000 1.044314
Cr2   Cr    Cr6+3 0.744960 0.495760 0.750000 1.044407
Cr3   Cr    Cr6+3 0.750800 0.255040 0.750000 1.043788
Cr4   Cr    Cr6+3 0.249200 0.504240 0.250000 1.044139
Cr5   Cr    Cr6+3 0.495760 0.744960 0.250000 1.043379
Cr6   Cr    Cr6+3 0.255040 0.750800 0.250000 1.044549
H1    H     H_    0.050773 0.688361 0.067060 0.116206
H2    H     H_    0.688228 0.050017 0.932808 0.116358
H3    H     H_    0.006114 0.673268 0.574078 0.082924
H4    H     H_    0.361451 0.311690 0.932755 0.116355
H5    H     H_    0.029546 0.368651 0.142882 0.152054
H6    H     H_    0.311035 0.915773 0.365831 0.138768
H7    H     H_    0.630887 0.662006 0.142606 0.152709
H8    H     H_    0.081248 0.393476 0.365405 0.138165
H9    H     H_    0.338821 0.970016 0.142794 0.151964
H10   H     H_    0.606180 0.687933 0.365489 0.137642
H11   H     H_    0.394895 0.083526 0.634253 0.138406
H12   H     H_    0.674360 0.008248 0.425520 0.083497
H13   H     H_    0.970406 0.339076 0.857123 0.151858
H14   H     H_    0.688204 0.605897 0.634437 0.138422
H15   H     H_    0.368840 0.030168 0.857239 0.152219
H16   H     H_    0.918718 0.312201 0.634593 0.137780
H17   H     H_    0.661381 0.631066 0.857287 0.152156
H18   H     H_    0.981085 0.351930 0.068832 0.120203
H19   H     H_    0.349044 0.960403 0.439531 0.113192
H20   H     H_    0.647259 0.630091 0.068555 0.120130
H21   H     H_    0.036541 0.386394 0.439118 0.113027
H22   H     H_    0.370645 0.018420 0.068741 0.120077
H23   H     H_    0.311991 0.360925 0.067368 0.116739
H24   H     H_    0.613075 0.650200 0.439205 0.113076
H25   H     H_    0.388269 0.038917 0.560547 0.113173
H26   H     H_    0.018817 0.370785 0.931178 0.120103
H27   H     H_    0.650458 0.612801 0.560726 0.113071
H28   H     H_    0.352261 0.981750 0.931288 0.120107
H29   H     H_    0.963348 0.349797 0.560871 0.113039
H30   H     H_    0.629390 0.647553 0.931330 0.120036
H31   H     H_    0.035953 0.707161 0.819158 0.125113
H32   H     H_    0.032191 0.772304 0.867982 0.112464
H33   H     H_    0.886795 0.805633 0.838061 0.141409
H34   H     H_    0.993869 0.667146 0.425931 0.082816
H35   H     H_    0.010811 0.867990 0.806563 0.077661
H36   H     H_    0.891393 0.741175 0.789532 0.167031
H37   H     H_    0.821789 0.117202 0.616968 0.111665
H38   H     H_    0.769034 0.969817 0.624962 0.124746
H39   H     H_    0.844864 0.007616 0.696902 0.146933
H40   H     H_    0.951317 0.084866 0.658655 0.079946
H41   H     H_    0.895408 0.153533 0.689680 0.170418
H42   H     H_    0.293790 0.330489 0.818607 0.125222
H43   H     H_    0.227344 0.261742 0.867295 0.112494
H44   H     H_    0.192868 0.082528 0.837453 0.141537
H45   H     H_    0.638098 0.949782 0.067157 0.116353
H46   H     H_    0.132108 0.145294 0.805689 0.077733
H47   H     H_    0.258641 0.151446 0.789061 0.166948
H48   H     H_    0.882956 0.705300 0.616334 0.111643
H49   H     H_    0.030446 0.798813 0.624705 0.124951
H50   H     H_    0.991841 0.837500 0.696418 0.147094
H51   H     H_    0.916114 0.867734 0.657832 0.079985
H52   H     H_    0.845829 0.743239 0.688829 0.170077
H53   H     H_    0.669770 0.963502 0.818692 0.125267
H54   H     H_    0.738488 0.965969 0.867403 0.112416
H55   H     H_    0.917659 0.110837 0.837570 0.141606
H56   H     H_    0.332915 0.326427 0.425819 0.083072
H57   H     H_    0.855088 0.987255 0.805832 0.077751
H58   H     H_    0.848764 0.107508 0.789155 0.166824
H59   H     H_    0.294421 0.177951 0.616536 0.111498
H60   H     H_    0.200928 0.231949 0.624899 0.124927
H61   H     H_    0.162572 0.155045 0.696686 0.147025
H62   H     H_    0.132154 0.048892 0.658161 0.080042
H63   H     H_    0.256790 0.103242 0.689070 0.170058
H64   H     H_    0.704344 0.882894 0.382879 0.111589
H65   H     H_    0.799292 0.030230 0.374974 0.124692
H66   H     H_    0.837220 0.992615 0.302993 0.146853
H67   H     H_    0.666538 0.992339 0.574396 0.083363
H68   H     H_    0.865986 0.914843 0.341145 0.079961
H69   H     H_    0.741435 0.846747 0.310095 0.170602
H70   H     H_    0.964117 0.671273 0.180860 0.125095
H71   H     H_    0.967857 0.740159 0.132034 0.112461
H72   H     H_    0.113310 0.918892 0.161935 0.141518
H73   H     H_    0.989325 0.857272 0.193451 0.077630
H74   H     H_    0.108741 0.849857 0.210465 0.167055
H75   H     H_    0.177716 0.295048 0.383442 0.111764
H76   H     H_    0.231229 0.201094 0.375235 0.124886
H77   H     H_    0.154480 0.162538 0.303448 0.146933
H78   H     H_    0.949205 0.637577 0.932945 0.116187
H79   H     H_    0.048327 0.132770 0.341901 0.080012
H80   H     H_    0.103198 0.257245 0.310860 0.170201
H81   H     H_    0.706028 0.036117 0.181355 0.125344
H82   H     H_    0.772444 0.033839 0.132656 0.112598
H83   H     H_    0.806608 0.888823 0.162425 0.141354
H84   H     H_    0.867516 0.012265 0.194241 0.077728
H85   H     H_    0.740865 0.891955 0.210827 0.166912
H86   H     H_    0.116295 0.822314 0.383762 0.111452
H87   H     H_    0.968769 0.767717 0.375197 0.125023
H88   H     H_    0.007790 0.845320 0.303518 0.147128
H89   H     H_    0.326384 0.333156 0.574206 0.083020
H90   H     H_    0.082701 0.951227 0.342216 0.080049
H91   H     H_    0.153843 0.897731 0.311341 0.169851
H92   H     H_    0.332773 0.295976 0.182349 0.125480
H93   H     H_    0.265061 0.227443 0.133801 0.112461
H94   H     H_    0.084581 0.190754 0.163083 0.141680
H95   H     H_    0.148828 0.132795 0.195547 0.077969
H96   H     H_    0.152467 0.258724 0.211330 0.167020
O1    O     O_R   0.480350 0.140770 0.796330 -0.510069
O2    O     O_R   0.140770 0.480350 0.203670 -0.510241
O3    O     O_R   0.519650 0.660420 0.296330 -0.537231
O4    O     O_R   0.339580 0.859230 0.203670 -0.510002
O5    O     O_R   0.514930 0.348530 0.793250 -0.449001
O6    O     O_R   0.833600 0.485070 0.706750 -0.450454
O7    O     O_R   0.651470 0.166400 0.793250 -0.448951
O8    O     O_R   0.514930 0.348530 0.706750 -0.450763
O9    O     O_R   0.833600 0.485070 0.793250 -0.448992
O10   O     O_R   0.651470 0.166400 0.706750 -0.451107
O11   O     O_R   0.348530 0.514930 0.293250 -0.450640
O12   O     O_R   0.660420 0.519650 0.703670 -0.536352
O13   O     O_R   0.485070 0.833600 0.206750 -0.449035
O14   O     O_R   0.166400 0.651470 0.293250 -0.450442
O15   O     O_R   0.348530 0.514930 0.206750 -0.449214
O16   O     O_R   0.485070 0.833600 0.293250 -0.451360
O17   O     O_R   0.166400 0.651470 0.206750 -0.448973
O18   O     O_3   0.666667 0.333333 0.750000 -0.262573
O19   O     O_3   0.333333 0.666667 0.250000 -0.262481
O20   O     O_3   0.891448 0.621869 0.854439 -0.536387
O21   O     O_3   0.691385 0.036999 0.659632 -0.545194
O22   O     O_3   0.377316 0.269924 0.854231 -0.536536
O23   O     O_R   0.859230 0.339580 0.796330 -0.510114
O24   O     O_3   0.961205 0.653883 0.659375 -0.544933
O25   O     O_3   0.730103 0.107625 0.854286 -0.536390
O26   O     O_3   0.345956 0.307857 0.659489 -0.545090
O27   O     O_3   0.654509 0.963617 0.340306 -0.545301
O28   O     O_3   0.108586 0.730434 0.145561 -0.536315
O29   O     O_3   0.307648 0.345950 0.340539 -0.545073
O30   O     O_3   0.622350 0.892148 0.145669 -0.536708
O31   O     O_3   0.038930 0.692766 0.340624 -0.544948
O32   O     O_3   0.270410 0.376521 0.145915 -0.536750
O33   O     O_R   0.480350 0.140770 0.703670 -0.536439
O34   O     O_R   0.660420 0.519650 0.796330 -0.510052
O35   O     O_R   0.859230 0.339580 0.703670 -0.537043
O36   O     O_R   0.140770 0.480350 0.296330 -0.536536
O37   O     O_R   0.519650 0.660420 0.203670 -0.510183
O38   O     O_R   0.339580 0.859230 0.296330 -0.536154

loop_
_geom_bond_atom_site_label_1
_geom_bond_atom_site_label_2
_ccdc_geom_bond_type
Cr5   O37   S    
C60   O28   S    
C14   H69   S    
C34   C79   S    
C65   C79   A    
C22   H90   S    
C46   C59   A    
C101  H24   S    
C19   C20   S    
C77   O33   A    
C91   C104  A    
C57   O25   S    
C33   O6    A    
C117  H7    S    
Cr5   O13   S    
C119  H35   S    
C108  H16   S    
C72   C85   A    
C3    H41   S    
C113  H5    S    
C9    H55   S    
C17   H75   S    
Cr3   O35   S    
C88   O11   A    
C53   C67   A    
C18   H79   S    
C11   H61   S    
C68   C81   A    
C48   C114  A    
C13   O38   A    
C71   C84   A    
C46   C112  A    
C23   O32   S    
Cr2   O34   S    
C13   C46   S    
C89   C102  A    
Cr2   O18   S    
C19   O30   S    
C105  H13   S    
C6    H49   S    
C36   C83   S    
C15   C16   S    
C60   C73   A    
C50   C110  S    
C10   H59   S    
C7    H51   S    
C47   C113  A    
C16   H72   S    
C20   H85   S    
C27   C85   S    
C118  C119  S    
C85   C98   A    
C120  H37   S    
C102  H22   S    
C47   C60   A    
C87   C101  A    
C26   C34   T    
C96   H28   S    
Cr3   O10   S    
Cr4   O2    S    
C8    O25   S    
C8    C9    S    
C92   H26   S    
Cr1   O8    S    
C5    H44   S    
C48   C88   S    
Cr5   O19   S    
C18   H77   S    
C102  C115  A    
C20   H84   S    
C25   H95   S    
C98   H19   S    
Cr6   O14   S    
C64   O32   S    
C16   H74   S    
C1    O34   A    
C26   C86   S    
C59   C72   A    
C14   H66   S    
C1    O5    A    
C72   H12   S    
C39   C52   A    
C14   H68   S    
C23   H92   S    
Cr4   O36   S    
C21   C22   S    
C19   H81   S    
C101  C114  A    
C55   O8    A    
Cr6   O4    S    
C64   C78   A    
C30   C89   S    
Cr5   O3    S    
Cr6   O17   S    
C119  H36   S    
C29   C90   S    
C110  O14   A    
C111  H14   S    
Cr1   O33   S    
C50   C63   A    
C24   O2    A    
C82   C95   A    
C23   H93   S    
C94   C107  A    
C31   C87   S    
C4    H43   S    
C51   C64   A    
C103  H21   S    
C11   H62   S    
C15   H71   S    
C104  H20   S    
C98   C112  A    
C100  H18   S    
Cr3   O23   S    
C43   C57   A    
Cr5   O16   S    
C106  H11   S    
C6    H48   S    
C33   O35   A    
C73   H1    S    
C56   O24   S    
C66   O9    A    
C17   O29   S    
C12   O27   S    
C4    H42   S    
C7    H52   S    
C11   H63   S    
C120  O21   S    
C54   O22   S    
C68   H4    S    
C44   O7    A    
C59   O27   S    
C78   H23   S    
Cr2   O9    S    
C52   O20   S    
C93   C106  A    
C49   C99   S    
C99   O13   A    
C8    H54   S    
C88   O3    A    
Cr3   O7    S    
C28   C38   T    
C61   O29   S    
C92   C105  A    
Cr2   O6    S    
C7    H50   S    
Cr6   O19   S    
C17   C18   S    
Cr1   O1    S    
C25   H96   S    
C44   O1    A    
C20   H83   S    
C112  H6    S    
C78   C91   A    
C42   C56   A    
C70   C83   A    
C16   H73   S    
C79   C92   A    
C6    C7    S    
C24   O17   A    
C32   C80   S    
Cr4   O11   S    
C1    C41   S    
C9    H57   S    
C49   C115  A    
C22   H91   S    
C12   C14   S    
C40   C53   A    
C97   H27   S    
C10   C11   S    
C22   H88   S    
C43   C44   S    
C75   H45   S    
C19   H82   S    
C74   C87   A    
C39   C66   S    
C21   H87   S    
C37   C82   S    
C93   H25   S    
C10   O26   S    
C84   C97   A    
C55   O12   A    
C107  H17   S    
C45   C58   A    
C86   C100  A    
C3    H39   S    
C71   H89   S    
C40   C106  A    
Cr3   O18   S    
C120  H38   S    
C70   H2    S    
C3    C120  S    
C39   C105  A    
C12   H65   S    
C33   C42   S    
C76   H34   S    
C77   O10   A    
C49   C62   A    
C41   C107  A    
Cr2   O12   S    
C27   C32   T    
C40   C77   S    
C24   C47   S    
C5    H47   S    
C6    O24   S    
C119  H33   S    
C67   C80   A    
C53   O21   S    
C4    C5    S    
C25   H94   S    
C109  H15   S    
C35   C84   S    
C45   C111  A    
C2    O15   A    
C110  O36   A    
C13   O16   A    
C74   H56   S    
C15   O28   S    
C30   C36   T    
C61   C74   A    
Cr1   O18   S    
C12   H64   S    
C96   C109  A    
C104  C117  A    
C2    C51   S    
Cr1   O5    S    
C21   H86   S    
Cr6   O38   S    
C18   H80   S    
C58   O26   S    
C103  C116  A    
Cr4   O19   S    
C38   C81   S    
C9    H58   S    
C67   H67   S    
C81   C94   A    
C8    H53   S    
C48   C61   A    
C63   O31   S    
C65   H78   S    
C115  H9    S    
C69   H3    S    
C97   C111  A    
C83   C96   A    
C31   C35   T    
C62   O30   S    
C10   H60   S    
C5    H46   S    
C51   C117  A    
C2    O37   A    
C28   C91   S    
C95   H29   S    
C23   C25   S    
C41   C54   A    
C17   H76   S    
C62   C75   A    
C90   C103  A    
C99   O4    A    
C118  H32   S    
C95   C108  A    
C75   C89   A    
C57   C70   A    
C21   O31   S    
C15   H70   S    
C116  H8    S    
C45   C55   S    
C94   H30   S    
C56   C69   A    
C63   C76   A    
C29   C37   T    
Cr4   O15   S    
C114  H10   S    
C58   C71   A    
C118  H31   S    
C54   C68   A    
C73   C86   A    
C43   C109  A    
C50   C116  A    
C80   C93   A    
C100  C113  A    
C42   C108  A    
C4    O22   S    
C52   C65   A    
C118  O20   S    
C3    H40   S    
C76   C90   A    
C69   C82   A    
C66   O23   A    
