data_mof_unit_16713.cif
_audit_creation_date              2012-12-11T14:17:48-0500
_audit_creation_method            fapswitch 2.2
_symmetry_space_group_name_H-M    P1
_symmetry_Int_Tables_number       1
_space_group_crystal_system       triclinic
_cell_length_a                    11.228687
_cell_length_b                    11.228756
_cell_length_c                    18.75404
_cell_angle_alpha                 90.000611
_cell_angle_beta                  90.000497
_cell_angle_gamma                 120.000062
_cell_volume                      2047.79189158

loop_
_atom_site_label
_atom_site_type_symbol
_atom_type_description
_atom_site_fract_x
_atom_site_fract_y
_atom_site_fract_z
_atom_type_partial_charge
Br1   Br    Br    0.804842 0.171701 0.654268 -0.412356
Br2   Br    Br    0.828178 0.632936 0.654340 -0.412423
Br3   Br    Br    0.366879 0.195179 0.654277 -0.412309
Br4   Br    Br    0.171690 0.804834 0.345710 -0.412353
Br5   Br    Br    0.632969 0.828189 0.345632 -0.412464
Br6   Br    Br    0.195236 0.367049 0.345641 -0.412419
C1    C     C_R   0.518514 0.456406 0.147450 0.545109
C2    C     C_R   0.012699 0.401429 0.536390 0.374747
C3    C     C_R   0.388737 0.987302 0.536385 0.374746
C4    C     C_R   0.598577 0.611266 0.536390 0.374711
C5    C     C_R   0.746742 0.064345 0.567193 0.260431
C6    C     C_R   0.935494 0.682256 0.567253 0.260386
C7    C     C_R   0.317625 0.253260 0.567195 0.260519
C8    C     C_R   0.064371 0.746748 0.432796 0.260459
C9    C     C_R   0.682259 0.935477 0.432731 0.260369
C10   C     C_R   0.253236 0.317744 0.432735 0.260438
C11   C     C_R   0.838015 0.035158 0.532500 0.005000
C12   C     C_R   0.543594 0.062112 0.147448 0.545099
C13   C     C_R   0.964766 0.802788 0.532616 0.005155
C14   C     C_R   0.197149 0.161992 0.532508 0.005145
C15   C     C_R   0.035137 0.837997 0.467477 0.005091
C16   C     C_R   0.802813 0.964788 0.467360 0.005129
C17   C     C_R   0.161988 0.197195 0.467365 0.005187
C18   C     C_R   0.519241 0.456717 0.353803 0.613154
C19   C     C_R   0.543284 0.062522 0.353803 0.613130
C20   C     C_R   0.937467 0.480760 0.353807 0.613162
C21   C     C_R   0.456706 0.519243 0.646191 0.613159
C22   C     C_R   0.062530 0.543288 0.646194 0.613129
C23   C     C_R   0.937892 0.481486 0.147450 0.545101
C24   C     C_R   0.480756 0.937459 0.646190 0.613135
C25   C     C_R   0.505676 0.994625 0.925096 -0.000182
C26   C     C_R   0.005412 0.511067 0.925103 -0.000178
C27   C     C_R   0.488941 0.494341 0.925102 -0.000184
C28   C     C_R   0.994633 0.505677 0.074906 -0.000178
C29   C     C_R   0.511054 0.005392 0.074899 -0.000181
C30   C     C_R   0.494323 0.488951 0.074905 -0.000180
C31   C     C_R   0.403611 0.006654 0.962449 0.027023
C32   C     C_R   0.993389 0.396977 0.962459 0.027021
C33   C     C_R   0.603027 0.596411 0.962460 0.027019
C34   C     C_R   0.456404 0.518519 0.852552 0.545092
C35   C     C_R   0.006654 0.403611 0.037551 0.027022
C36   C     C_R   0.396972 0.993385 0.037540 0.027024
C37   C     C_R   0.596390 0.603041 0.037552 0.027021
C38   C     C_R   0.617332 0.003334 0.036625 -0.138797
C39   C     C_R   0.996701 0.614017 0.036632 -0.138802
C40   C     C_R   0.385991 0.382674 0.036627 -0.138796
C41   C     C_R   0.003374 0.617353 0.963381 -0.138801
C42   C     C_R   0.614002 0.996669 0.963374 -0.138799
C43   C     C_R   0.382660 0.386009 0.963376 -0.138796
C44   C     C_R   0.307371 0.030753 0.927338 -0.082725
C45   C     C_R   0.062119 0.543599 0.852553 0.545094
C46   C     C_R   0.969295 0.276635 0.927353 -0.082728
C47   C     C_R   0.723371 0.692661 0.927357 -0.082726
C48   C     C_R   0.030738 0.307361 0.072659 -0.082728
C49   C     C_R   0.276633 0.969303 0.072643 -0.082734
C50   C     C_R   0.692637 0.723377 0.072663 -0.082719
C51   C     C_R   0.195634 0.019581 0.964268 -0.143446
C52   C     C_R   0.980457 0.176070 0.964289 -0.143449
C53   C     C_R   0.823935 0.804387 0.964296 -0.143448
C54   C     C_R   0.019546 0.195618 0.035728 -0.143444
C55   C     C_R   0.176081 0.980485 0.035705 -0.143452
C56   C     C_R   0.481486 0.937892 0.852550 0.545083
C57   C     C_R   0.804381 0.823932 0.035734 -0.143436
C58   C     C_R   0.501268 0.997903 0.574710 -0.005889
C59   C     C_R   0.002037 0.503311 0.574726 -0.005850
C60   C     C_R   0.496650 0.498732 0.574713 -0.005875
C61   C     C_R   0.997939 0.501283 0.425281 -0.005870
C62   C     C_R   0.503296 0.002001 0.425265 -0.005858
C63   C     C_R   0.498715 0.496706 0.425268 -0.005846
C64   C     C_R   0.617433 0.019841 0.535969 -0.077898
C65   C     C_R   0.979997 0.597480 0.535999 -0.077946
C66   C     C_R   0.402431 0.382565 0.535970 -0.077904
C67   C     C_R   0.401406 0.012650 0.463601 0.374765
C68   C     C_R   0.019888 0.617449 0.464023 -0.077923
C69   C     C_R   0.597464 0.979954 0.463992 -0.077963
C70   C     C_R   0.382508 0.402533 0.463994 -0.077950
C71   C     C_R   0.987356 0.388761 0.463604 0.374721
C72   C     C_R   0.611252 0.598605 0.463604 0.374721
Cr1   Cr    Cr6+3 0.768550 0.541320 0.250660 1.109690
Cr2   Cr    Cr6+3 0.458680 0.227230 0.250660 1.109679
Cr3   Cr    Cr6+3 0.772770 0.231450 0.250660 1.109668
Cr4   Cr    Cr6+3 0.541320 0.768550 0.749340 1.109686
Cr5   Cr    Cr6+3 0.227230 0.458680 0.749340 1.109699
Cr6   Cr    Cr6+3 0.231450 0.772770 0.749340 1.109674
F1    F     F_    0.318390 0.052006 0.431952 -0.620954
F2    F     F_    0.948082 0.266420 0.431939 -0.621006
F3    F     F_    0.733615 0.681637 0.431952 -0.621000
F4    F     F_    0.052060 0.318420 0.568041 -0.620947
F5    F     F_    0.266390 0.948017 0.568045 -0.620953
F6    F     F_    0.681638 0.733609 0.568055 -0.620982
H1    H     H_    0.706816 0.011469 0.062999 0.158274
H2    H     H_    0.060747 0.318955 0.128182 0.152088
H3    H     H_    0.258209 0.939290 0.128165 0.152070
H4    H     H_    0.681039 0.741792 0.128185 0.152089
H5    H     H_    0.125055 0.040016 0.936132 0.103487
H6    H     H_    0.960008 0.085045 0.936158 0.103479
H7    H     H_    0.914965 0.874962 0.936170 0.103480
H8    H     H_    0.039955 0.125028 0.063865 0.103480
H9    H     H_    0.085065 0.960054 0.063835 0.103474
H10   H     H_    0.874965 0.914943 0.063871 0.103475
H11   H     H_    0.933975 0.064465 0.557899 0.150347
H12   H     H_    0.988562 0.695365 0.063005 0.158269
H13   H     H_    0.935575 0.869489 0.558072 0.150465
H14   H     H_    0.130449 0.066039 0.557921 0.150266
H15   H     H_    0.064374 0.933931 0.442059 0.150208
H16   H     H_    0.869545 0.935640 0.441893 0.150356
H17   H     H_    0.066101 0.130474 0.441900 0.150323
H18   H     H_    0.304644 0.293183 0.062998 0.158276
H19   H     H_    0.011526 0.706847 0.937010 0.158275
H20   H     H_    0.695345 0.988516 0.937004 0.158271
H21   H     H_    0.293170 0.304664 0.937003 0.158276
H22   H     H_    0.318971 0.060766 0.871816 0.152071
H23   H     H_    0.939285 0.258215 0.871830 0.152074
H24   H     H_    0.741793 0.681070 0.871834 0.152083
O1    O     O_R   0.910960 0.572410 0.171010 -0.513661
O2    O     O_R   0.528530 0.639750 0.824400 -0.509074
O3    O     O_R   0.111220 0.471470 0.824400 -0.509087
O4    O     O_R   0.360250 0.888780 0.824400 -0.509080
O5    O     O_R   0.909330 0.572400 0.331540 -0.466676
O6    O     O_R   0.427600 0.336930 0.331540 -0.466693
O7    O     O_R   0.663070 0.090670 0.331540 -0.466713
O8    O     O_R   0.572400 0.909330 0.668460 -0.466672
O9    O     O_R   0.336930 0.427600 0.668460 -0.466651
O10   O     O_R   0.090670 0.663070 0.668460 -0.466697
O11   O     O_R   0.638240 0.528520 0.324410 -0.421833
O12   O     O_R   0.427590 0.338550 0.171010 -0.513660
O13   O     O_R   0.471480 0.109720 0.324410 -0.421829
O14   O     O_R   0.890280 0.361760 0.324410 -0.421831
O15   O     O_R   0.528520 0.638240 0.675590 -0.421834
O16   O     O_R   0.109720 0.471480 0.675590 -0.421823
O17   O     O_R   0.361760 0.890280 0.675590 -0.421841
O18   O     O_3   0.666667 0.333333 0.250630 -0.317478
O19   O     O_3   0.333333 0.666667 0.749370 -0.317489
O20   O     O_R   0.661450 0.089040 0.171010 -0.513655
O21   O     O_R   0.572410 0.910960 0.828990 -0.513670
O22   O     O_R   0.338550 0.427590 0.828990 -0.513670
O23   O     O_R   0.089040 0.661450 0.828990 -0.513659
O24   O     O_R   0.639750 0.528530 0.175600 -0.509069
O25   O     O_R   0.471470 0.111220 0.175600 -0.509083
O26   O     O_R   0.888780 0.360250 0.175600 -0.509073

loop_
_geom_bond_atom_site_label_1
_geom_bond_atom_site_label_2
_ccdc_geom_bond_type
C72   F3    S    
Cr3   O26   S    
C9    C69   A    
Cr2   O6    S    
Cr2   O18   S    
Cr1   O1    S    
C3    C58   A    
C1    C30   S    
C42   H20   S    
C61   C71   A    
C66   C70   A    
Br2   C6    S    
C47   C53   A    
C5    C64   A    
Cr3   O20   S    
C48   C54   A    
C46   H23   S    
C62   C69   A    
C50   H4    S    
C34   O22   A    
C40   C43   A    
C27   C33   A    
C20   C61   S    
C8    C68   A    
C8    C15   A    
C13   C15   A    
C54   H8    S    
C32   C46   A    
C52   C54   A    
C24   O17   A    
Cr4   O21   S    
C63   C70   A    
C31   C36   A    
C29   C36   A    
C11   H11   S    
C52   H6    S    
C13   H13   S    
C9    C16   A    
C60   C66   A    
C24   O8    A    
Cr1   O5    S    
C30   C40   A    
C26   C32   A    
C12   C29   S    
Br3   C7    S    
C49   H3    S    
C43   H21   S    
C4    C60   A    
Cr1   O11   S    
C2    C59   A    
Br4   C8    S    
C34   O2    A    
C25   C56   S    
C63   C72   A    
C55   H9    S    
C28   C35   A    
C3    C67   A    
C56   O4    A    
C18   C63   S    
C39   C41   A    
C4    C72   A    
Cr6   O19   S    
C18   O6    A    
C27   C34   S    
Br5   C9    S    
C20   O5    A    
C32   C35   A    
C3    F5    S    
C61   C68   A    
C21   O9    A    
Cr3   O18   S    
C33   C37   A    
C62   C67   A    
C16   H16   S    
C23   C28   S    
C25   C31   A    
C40   H18   S    
C2    F4    S    
C56   O21   A    
C26   C45   S    
C48   H2    S    
C57   H10   S    
C36   C49   A    
C65   C68   A    
C14   C17   A    
C17   H17   S    
C44   H22   S    
C50   C57   A    
C28   C39   A    
C20   O14   A    
Cr4   O15   S    
C51   C55   A    
C29   C38   A    
C67   F1    S    
Cr5   O22   S    
C38   H1    S    
C46   C52   A    
Cr5   O16   S    
C45   O23   A    
C7    C66   A    
C6    C65   A    
Cr6   O23   S    
C10   C17   A    
C58   C64   A    
C25   C42   A    
Cr3   O14   S    
C2    C71   A    
C21   O15   A    
C26   C41   A    
C47   H24   S    
C23   O26   A    
C5    C11   A    
C7    C14   A    
C10   C70   A    
C44   C51   A    
C71   F2    S    
C1    O24   A    
C22   O10   A    
C19   C62   S    
C14   H14   S    
Cr2   O13   S    
Cr6   O10   S    
Cr2   O25   S    
C19   O7    A    
Cr6   O17   S    
C53   C57   A    
C11   C16   A    
Cr5   O3    S    
Cr4   O19   S    
C22   C59   S    
C19   O13   A    
Cr4   O2    S    
C21   C60   S    
C59   C65   A    
C31   C44   A    
C33   C47   A    
Cr2   O12   S    
C41   H19   S    
C53   H7    S    
Cr1   O18   S    
C49   C55   A    
C6    C13   A    
C45   O3    A    
C12   O20   A    
C22   O16   A    
C1    O12   A    
C23   O1    A    
C12   O25   A    
C35   C48   A    
Cr5   O19   S    
C39   H12   S    
Br6   C10   S    
C37   C50   A    
Cr1   O24   S    
C4    F6    S    
Cr6   O4    S    
C24   C58   S    
C51   H5    S    
Cr3   O7    S    
C64   C69   A    
C30   C37   A    
Br1   C5    S    
Cr5   O9    S    
C18   O11   A    
C27   C43   A    
Cr4   O8    S    
C15   H15   S    
C38   C42   A    
