data_mof_unit_65262.cif
_audit_creation_date              2012-12-10T16:49:27-0500
_audit_creation_method            fapswitch 2.2
_symmetry_space_group_name_H-M    P1
_symmetry_Int_Tables_number       1
_space_group_crystal_system       triclinic
_cell_length_a                    18.771746
_cell_length_b                    18.823348
_cell_length_c                    18.778328
_cell_angle_alpha                 109.428308
_cell_angle_beta                  109.20797
_cell_angle_gamma                 109.296918
_cell_volume                      5137.88131008

loop_
_atom_site_label
_atom_site_type_symbol
_atom_type_description
_atom_site_fract_x
_atom_site_fract_y
_atom_site_fract_z
_atom_type_partial_charge
C1    C     C_R   0.380759 0.383178 0.502181 0.921757
C2    C     C_2   0.312907 0.323592 0.506351 -0.328740
C3    C     C_2   0.422221 0.173244 0.179847 -0.152795
C4    C     C_R   0.496483 0.615793 0.619513 0.883686
C5    C     C_2   0.494372 0.184889 0.175021 -0.336153
C6    C     C_2   0.422193 0.246098 0.240979 -0.156514
C7    C     C_2   0.494455 0.306010 0.316803 -0.334226
C8    C     C_2   0.746552 0.743096 0.421661 -0.153622
C9    C     C_2   0.806259 0.818607 0.494233 -0.332493
C10   C     C_2   0.674232 0.681879 0.421787 -0.157600
C11   C     C_2   0.687094 0.676528 0.493742 -0.338068
C12   C     C_R   0.503930 0.675961 0.762845 0.104240
C13   C     C_R   0.381331 0.995617 0.876090 0.930854
C14   C     C_R   0.501312 0.877797 0.878481 0.887006
C15   C     C_R   0.618767 0.998168 0.117530 0.926677
C16   C     C_R   0.619245 0.616934 0.497923 0.943063
C17   C     C_R   0.498034 0.116771 0.114603 0.934039
C18   C     C_R   0.883103 0.002526 0.381378 0.933681
C19   C     C_R   0.121401 0.118524 0.501917 0.931338
C20   C     C_R   0.116775 0.997284 0.618576 0.931412
C21   C     C_R   0.878676 0.881498 0.498164 0.932773
C22   C     C_2   0.180838 0.920510 0.673008 -0.151267
C23   C     C_R   0.493144 0.678047 0.685622 -0.139570
C24   C     C_2   0.176090 0.992725 0.686280 -0.335257
C25   C     C_2   0.242182 0.919974 0.744838 -0.159012
C26   C     C_2   0.318195 0.992009 0.804161 -0.340220
C27   C     C_2   0.816666 0.077078 0.325057 -0.158974
C28   C     C_R   0.498068 0.378035 0.380417 0.934505
C29   C     C_2   0.823333 0.006021 0.313115 -0.328236
C30   C     C_2   0.755783 0.076120 0.251553 -0.158164
C31   C     C_2   0.681699 0.002633 0.190239 -0.321230
C32   C     C_R   0.503810 0.605267 0.774088 -0.234849
C33   C     C_R   0.520899 0.608200 0.853358 -0.275761
C34   C     C_R   0.483957 0.743721 0.672183 -0.204760
C35   C     C_R   0.537003 0.681356 0.923571 0.610048
C36   C     C_R   0.534996 0.750266 0.911744 -0.235769
C37   C     C_R   0.514250 0.746656 0.830470 -0.030449
C38   C     C_3   0.514189 0.613457 0.003559 -0.333346
C39   C     C_3   0.472001 0.877631 0.716621 -0.869148
C40   C     C_R   0.487439 0.810398 0.735626 0.165774
C41   C     C_R   0.503687 0.812166 0.815076 -0.089925
C42   C     C_2   0.253176 0.257373 0.578492 -0.154795
C43   C     C_2   0.193991 0.181502 0.506078 -0.331906
C44   C     C_2   0.325519 0.318783 0.578529 -0.160275
H1    H     H_    0.475021 0.743412 0.611962 0.166501
H2    H     H_    0.751686 0.712077 0.549815 0.158569
H3    H     H_    0.137652 0.861193 0.610758 0.167084
H4    H     H_    0.489442 0.546444 0.721823 0.170118
H5    H     H_    0.212096 0.048776 0.750975 0.156402
H6    H     H_    0.226410 0.860118 0.747192 0.167337
H7    H     H_    0.338086 0.048678 0.796097 0.158654
H8    H     H_    0.858241 0.136598 0.387247 0.167694
H9    H     H_    0.789099 0.950029 0.248626 0.167848
H10   H     H_    0.770174 0.136032 0.249517 0.165275
H11   H     H_    0.662401 0.945494 0.197591 0.167198
H12   H     H_    0.248453 0.287554 0.449987 0.157524
H13   H     H_    0.522840 0.553683 0.859547 0.141867
H14   H     H_    0.549948 0.806710 0.967352 0.164331
H15   H     H_    0.250197 0.273118 0.638227 0.163287
H16   H     H_    0.202568 0.161667 0.449526 0.158213
H17   H     H_    0.387440 0.362113 0.638213 0.157258
H18   H     H_    0.545090 0.572639 0.993305 0.167003
H19   H     H_    0.444203 0.577036 0.953625 0.155799
H20   H     H_    0.517656 0.629379 0.067463 0.197169
H21   H     H_    0.531814 0.941855 0.759668 0.256912
H22   H     H_    0.454016 0.861662 0.648487 0.230000
H23   H     H_    0.362324 0.111625 0.136371 0.166093
H24   H     H_    0.418123 0.881540 0.726903 0.232466
H25   H     H_    0.551117 0.248990 0.211234 0.156364
H26   H     H_    0.362229 0.248492 0.225341 0.164843
H27   H     H_    0.551326 0.298101 0.336684 0.158090
H28   H     H_    0.749046 0.727589 0.361698 0.167268
H29   H     H_    0.798169 0.838337 0.551102 0.158477
H30   H     H_    0.612065 0.639112 0.362333 0.165625
O1    O     O_R   0.460610 0.409240 0.550770 -0.624022
O2    O     O_R   0.909530 0.949160 0.358700 -0.623106
O3    O     O_R   0.090460 0.141840 0.551380 -0.620323
O4    O     O_R   0.358470 0.409870 0.449260 -0.625802
O5    O     O_R   0.090460 0.039050 0.448590 -0.621798
O6    O     O_R   0.090470 0.050840 0.641300 -0.627732
O7    O     O_R   0.090460 0.948050 0.538510 -0.615605
O8    O     O_R   0.909540 0.960950 0.551410 -0.622168
O9    O     O_R   0.909540 0.858160 0.448620 -0.618856
O10   O     O_R   0.551070 0.590720 0.641790 -0.625269
O11   O     O_R   0.448930 0.591350 0.540280 -0.624290
O12   O     O_R   0.358520 0.946380 0.906940 -0.617181
O13   O     O_R   0.641530 0.590130 0.550740 -0.620243
O14   O     O_R   0.539390 0.590760 0.449230 -0.616460
O15   O     O_R   0.551070 0.408650 0.459720 -0.621685
O16   O     O_R   0.448930 0.409280 0.358210 -0.620325
O17   O     O_R   0.460650 0.048500 0.906910 -0.624411
O18   O     O_3   0.560126 0.691560 0.006215 -0.612707
O19   O     O_R   0.551120 0.956920 0.905770 -0.618941
O20   O     O_R   0.449000 0.854790 0.905800 -0.628394
O21   O     O_R   0.641600 0.047410 0.086710 -0.616655
O22   O     O_R   0.539480 0.945290 0.086740 -0.622289
O23   O     O_R   0.551130 0.138990 0.087850 -0.627467
O24   O     O_R   0.449000 0.036870 0.087880 -0.614517
O25   O     O_R   0.909540 0.051950 0.461490 -0.616058
Zn1   Zn    Zn3+2 0.568200 0.499580 0.567780 0.954555
Zn2   Zn    Zn3+2 0.431800 0.500420 0.432220 0.950506
Zn3   Zn    Zn3+2 0.568250 0.065080 0.996810 0.950394
Zn4   Zn    Zn3+2 0.431870 0.928710 0.996840 0.960073
Zn5   Zn    Zn3+2 0.000000 0.068630 0.568630 0.952554
Zn6   Zn    Zn3+2 0.000000 0.931370 0.431370 0.959223

loop_
_geom_bond_atom_site_label_1
_geom_bond_atom_site_label_2
_ccdc_geom_bond_type
O2    Zn6   S    
C27   C29   D    
C39   H21   S    
C39   H24   S    
C35   C36   A    
C3    C6    S    
O14   Zn2   S    
C30   H10   S    
C12   C23   A    
C9    H29   S    
O6    Zn5   S    
C34   C40   A    
C36   C37   A    
C38   H19   S    
C36   H14   S    
C7    H27   S    
C30   C31   D    
C5    C17   S    
O24   Zn4   S    
C38   O18   S    
O5    Zn6   S    
C1    C2    S    
C12   C37   A    
C19   O3    A    
C25   H6    S    
C5    H25   S    
O4    Zn2   S    
C20   C24   S    
C2    C44   D    
C8    C9    D    
C22   C25   S    
C13   O12   A    
C16   O13   A    
C33   H13   S    
C28   O15   A    
C17   O24   A    
C14   O19   A    
O23   Zn3   S    
O21   Zn3   S    
C35   O18   S    
C22   H3    S    
C20   O7    A    
C13   O17   A    
C27   C30   S    
C1    O4    A    
C32   H4    S    
C42   C44   S    
O12   Zn4   S    
C19   C43   S    
C38   H20   S    
O7    Zn6   S    
C8    H28   S    
C20   O6    A    
O15   Zn1   S    
O10   Zn1   S    
C21   O9    A    
C15   O22   A    
C18   C29   S    
C4    C23   S    
C4    O11   A    
C25   C26   D    
C7    C28   S    
O9    Zn6   S    
C1    O1    A    
O19   Zn3   S    
O16   Zn2   S    
C11   C16   S    
C4    O10   A    
C23   C34   A    
C34   H1    S    
C19   O5    A    
C43   H16   S    
C14   C41   S    
C40   C41   A    
O20   Zn4   S    
C39   H22   S    
C22   C24   D    
C13   C26   S    
C42   C43   D    
O17   Zn3   S    
C39   C40   S    
O11   Zn2   S    
C27   H8    S    
O13   Zn1   S    
O3    Zn5   S    
C24   H5    S    
C6    H26   S    
C18   O2    A    
C3    H23   S    
C3    C5    D    
C42   H15   S    
C15   C31   S    
C6    C7    D    
C44   H17   S    
C32   C33   A    
C2    H12   S    
C26   H7    S    
C15   O21   A    
C10   H30   S    
C9    C21   S    
C29   H9    S    
O1    Zn1   S    
C33   C35   A    
O25   Zn5   S    
C37   C41   A    
C10   C11   D    
C21   O8    A    
C8    C10   S    
C18   O25   A    
O22   Zn4   S    
C16   O14   A    
O8    Zn5   S    
C11   H2    S    
C28   O16   A    
C31   H11   S    
C17   O23   A    
C14   O20   A    
C12   C32   A    
C38   H18   S    
