data_mof_unit_27712.cif
_audit_creation_date              2012-12-10T17:18:56-0500
_audit_creation_method            fapswitch 2.2
_symmetry_space_group_name_H-M    P1
_symmetry_Int_Tables_number       1
_space_group_crystal_system       triclinic
_cell_length_a                    10.196758
_cell_length_b                    10.828411
_cell_length_c                    13.635925
_cell_angle_alpha                 92.423686
_cell_angle_beta                  99.574337
_cell_angle_gamma                 96.143713
_cell_volume                      1473.33225934

loop_
_atom_site_label
_atom_site_type_symbol
_atom_type_description
_atom_site_fract_x
_atom_site_fract_y
_atom_site_fract_z
_atom_type_partial_charge
C1    C     C_R   0.054544 0.732683 0.496211 0.937588
C2    C     C_R   0.947764 0.267828 0.509066 0.940573
C3    C     C_R   0.475928 0.605379 0.107102 0.363843
C4    C     C_R   0.523798 0.394073 0.892962 0.364487
C5    C     C_R   0.339556 0.615056 0.084272 -0.143014
C6    C     C_R   0.660192 0.384447 0.915772 -0.143125
C7    C     C_2   0.089402 0.865745 0.502521 -0.313039
C8    C     C_2   0.921644 0.136716 0.522728 -0.322819
C9    C     C_2   0.001501 0.936784 0.530803 -0.118745
C10   C     C_2   0.024244 0.068968 0.528143 -0.120452
C11   C     C_2   0.430491 0.512141 0.507901 0.525032
C12   C     C_2   0.569508 0.487849 0.492113 0.526634
C13   C     C_R   0.093370 0.515373 0.686015 0.912312
C14   C     C_R   0.906617 0.484596 0.313984 0.921859
C15   C     C_R   0.143146 0.527776 0.793592 -0.172463
C16   C     C_R   0.856764 0.472044 0.206404 -0.175643
C17   C     C_R   0.134734 0.593690 0.964143 -0.179117
C18   C     C_R   0.865106 0.406042 0.035847 -0.178728
C19   C     C_R   0.070598 0.571073 0.865295 0.371495
C20   C     C_R   0.929310 0.428802 0.134675 0.371843
C21   C     C_R   0.273520 0.500330 0.824151 -0.183171
C22   C     C_R   0.726294 0.499258 0.175874 -0.181772
C23   C     C_R   0.332785 0.508714 0.923693 0.101285
C24   C     C_R   0.666975 0.490809 0.076344 0.101120
C25   C     C_R   0.267180 0.568110 0.992538 0.052097
C26   C     C_R   0.732595 0.431466 0.007483 0.052225
C27   C     C_R   0.463149 0.474760 0.953301 -0.042988
C28   C     C_R   0.536580 0.524698 0.046760 -0.043668
H1    H     H_    0.293648 0.671937 0.133304 0.189588
H2    H     H_    0.706110 0.327583 0.866735 0.189348
H3    H     H_    0.665932 0.517150 0.231467 0.236600
H4    H     H_    0.333869 0.482333 0.768572 0.236615
H5    H     H_    0.083196 0.636416 0.017749 0.186930
H6    H     H_    0.916661 0.363360 0.982231 0.186666
H7    H     H_    0.125345 0.109797 0.524139 0.206554
H8    H     H_    0.907086 0.897466 0.550185 0.202738
H9    H     H_    0.820783 0.095464 0.526671 0.178959
H10   H     H_    0.183528 0.905477 0.483097 0.176757
H11   H     H_    0.665048 0.624554 0.588391 0.189703
H12   H     H_    0.334959 0.375456 0.411603 0.191354
N1    N     N_2   0.322180 0.446120 0.460900 -0.200922
N2    N     N_2   0.677820 0.553880 0.539100 -0.200415
O1    O     O_R   0.935190 0.693030 0.507870 -0.617283
O2    O     O_R   0.064810 0.306970 0.492130 -0.617248
O3    O     O_R   0.142080 0.658430 0.482770 -0.561524
O4    O     O_R   0.857920 0.341570 0.517230 -0.561318
O5    O     O_R   0.969700 0.527180 0.651960 -0.570562
O6    O     O_R   0.030300 0.472820 0.348040 -0.566784
O7    O     O_R   0.176600 0.492580 0.626860 -0.572360
O8    O     O_R   0.823400 0.507420 0.373140 -0.568860
Zn1   Zn    Zn3+2 0.861850 0.523100 0.516760 1.068549
Zn2   Zn    Zn3+2 0.138150 0.476900 0.483240 1.068579
Cl1   Cl    Cl    0.093900 0.389356 0.164715 -0.595481
Cl2   Cl    Cl    0.906108 0.610767 0.835214 -0.598933
Cl3   Cl    Cl    0.566457 0.716857 0.199197 -0.592675
Cl4   Cl    Cl    0.433241 0.282581 0.800879 -0.599163
F1    F     F_    0.581831 0.393579 0.426478 -0.654360
F2    F     F_    0.418163 0.606402 0.573545 -0.654700

loop_
_geom_bond_atom_site_label_1
_geom_bond_atom_site_label_2
_ccdc_geom_bond_type
C5    C25   A    
C9    H8    S    
O5    Zn1   S    
C11   C12   S    
C10   H7    S    
C14   C16   S    
C23   C27   A    
C11   F2    S    
C9    C10   S    
N1    Zn2   S    
C18   C20   A    
C18   C26   A    
C13   C15   S    
O6    Zn2   S    
N2    Zn1   S    
C16   C20   A    
O7    Zn2   S    
C17   C25   A    
O2    Zn2   S    
C23   C25   A    
O8    Zn1   S    
C14   O8    A    
C2    O4    A    
C15   C19   A    
C18   H6    S    
C1    O3    A    
C6    C26   A    
C17   H5    S    
O1    Zn1   S    
C13   O7    A    
C12   F1    S    
C19   Cl2   S    
C4    C6    A    
C3    C28   A    
C17   C19   A    
C7    H10   S    
C24   C26   A    
C11   N1    D    
H11   N2    S    
C5    H1    S    
C21   C23   A    
C21   H4    S    
C22   C24   A    
C8    H9    S    
C16   C22   A    
C12   N2    D    
C15   C21   A    
C4    C27   A    
C8    C10   D    
C22   H3    S    
C2    C8    S    
C27   C28   A    
C7    C9    D    
H12   N1    S    
C14   O6    A    
O3    Zn2   S    
C6    H2    S    
C3    Cl3   S    
C1    C7    S    
C13   O5    A    
O4    Zn1   S    
C1    O1    A    
C4    Cl4   S    
C24   C28   A    
C2    O2    A    
C20   Cl1   S    
C3    C5    A    
