data_mof_unit_28376.cif
_audit_creation_date              2012-12-10T19:09:22-0500
_audit_creation_method            fapswitch 2.2
_symmetry_space_group_name_H-M    P1
_symmetry_Int_Tables_number       1
_space_group_crystal_system       triclinic
_cell_length_a                    14.921993
_cell_length_b                    16.022716
_cell_length_c                    10.236353
_cell_angle_alpha                 89.997637
_cell_angle_beta                  89.999942
_cell_angle_gamma                 90.000891
_cell_volume                      2447.41839864

loop_
_atom_site_label
_atom_site_type_symbol
_atom_type_description
_atom_site_fract_x
_atom_site_fract_y
_atom_site_fract_z
_atom_type_partial_charge
C1    C     C_R   0.122018 0.379643 0.500693 0.941681
C2    C     C_R   0.122022 0.620356 0.499310 0.941844
C3    C     C_R   0.622011 0.879636 0.499312 0.941702
C4    C     C_R   0.622012 0.120366 0.500685 0.941866
C5    C     C_3   0.906392 0.508591 0.078496 -0.395543
C6    C     C_3   0.906426 0.491062 0.921514 -0.395363
C7    C     C_3   0.406428 0.991059 0.078486 -0.395351
C8    C     C_3   0.406392 0.008581 0.921504 -0.395536
C9    C     C_R   0.874010 0.385459 0.501258 0.826102
C10   C     C_R   0.873967 0.614503 0.498731 0.825847
C11   C     C_R   0.374008 0.885460 0.498745 0.826037
C12   C     C_R   0.373965 0.114501 0.501266 0.825781
C13   C     C_3   0.827719 0.254957 0.614258 0.168661
C14   C     C_3   0.800026 0.278805 0.370681 0.153133
C15   C     C_3   0.827618 0.744985 0.385661 0.168818
C16   C     C_3   0.799871 0.721079 0.629297 0.153333
C17   C     C_3   0.300070 0.778756 0.629302 0.153144
C18   C     C_3   0.327695 0.754994 0.385681 0.168768
C19   C     C_3   0.299912 0.221124 0.370721 0.153348
C20   C     C_3   0.327589 0.244946 0.614400 0.168920
C21   C     C_3   0.237606 0.704241 0.627989 0.088498
C22   C     C_3   0.261356 0.681547 0.386233 0.078720
C23   C     C_3   0.237644 0.295784 0.372081 0.088112
C24   C     C_3   0.261265 0.318403 0.613888 0.078752
C25   C     C_3   0.761338 0.181548 0.613752 0.078801
C26   C     C_3   0.737588 0.204269 0.371993 0.088483
C27   C     C_3   0.761253 0.818405 0.386126 0.078834
C28   C     C_3   0.737632 0.795760 0.627938 0.088109
C29   C     C_3   0.706924 0.351796 0.537191 -0.307936
C30   C     C_3   0.706832 0.648170 0.462709 -0.307425
C31   C     C_3   0.206916 0.851797 0.462898 -0.308003
C32   C     C_3   0.206822 0.148166 0.537202 -0.307490
C33   C     C_3   0.802960 0.319796 0.506266 -0.011810
C34   C     C_3   0.802872 0.680146 0.493680 -0.011950
C35   C     C_3   0.302963 0.819792 0.493741 -0.011801
C36   C     C_3   0.302872 0.180147 0.506313 -0.011939
C37   C     C_3   0.189961 0.691886 0.495320 -0.152619
C38   C     C_3   0.189929 0.308100 0.504705 -0.152364
C39   C     C_3   0.689944 0.191900 0.504667 -0.152630
C40   C     C_3   0.689918 0.808090 0.495308 -0.152372
C41   C     C_3   0.140171 0.776362 0.465074 -0.494410
C42   C     C_3   0.140093 0.223618 0.534822 -0.494329
C43   C     C_3   0.640160 0.276376 0.534921 -0.494484
C44   C     C_3   0.640086 0.723608 0.465186 -0.494395
C45   C     C_3   0.031683 0.419273 0.071573 0.426337
C46   C     C_3   0.049733 0.428729 0.916567 0.414688
C47   C     C_3   0.031310 0.580855 0.928472 0.426554
C48   C     C_3   0.049504 0.571421 0.083414 0.414842
C49   C     C_3   0.549734 0.928728 0.083444 0.414668
C50   C     C_3   0.531700 0.919278 0.928432 0.426319
C51   C     C_3   0.549497 0.071428 0.916577 0.414828
C52   C     C_3   0.531312 0.080854 0.071521 0.426549
H1    H     H_    0.897531 0.233296 0.594706 0.146605
H2    H     H_    0.869545 0.258809 0.346347 0.186706
H3    H     H_    0.897434 0.766641 0.405185 0.146914
H4    H     H_    0.869402 0.740917 0.653842 0.187067
H5    H     H_    0.369595 0.758738 0.653567 0.186659
H6    H     H_    0.397533 0.733362 0.405127 0.146640
H7    H     H_    0.369447 0.240989 0.346243 0.187028
H8    H     H_    0.397431 0.266573 0.594985 0.146954
H9    H     H_    0.182708 0.722876 0.691486 0.219673
H10   H     H_    0.224653 0.682147 0.292565 0.230896
H11   H     H_    0.182742 0.277376 0.308401 0.219510
H12   H     H_    0.224502 0.317796 0.707536 0.230781
H13   H     H_    0.724635 0.182188 0.707423 0.230896
H14   H     H_    0.682689 0.222887 0.308482 0.219672
H15   H     H_    0.724491 0.817760 0.292474 0.230780
H16   H     H_    0.682731 0.777374 0.691638 0.219520
H17   H     H_    0.705165 0.382618 0.634490 0.231831
H18   H     H_    0.685681 0.399698 0.464930 0.217261
H19   H     H_    0.705051 0.617443 0.365340 0.231846
H20   H     H_    0.685586 0.600191 0.534841 0.217288
H21   H     H_    0.185674 0.899642 0.535246 0.217284
H22   H     H_    0.205133 0.882691 0.365651 0.231813
H23   H     H_    0.185578 0.100244 0.464983 0.217311
H24   H     H_    0.205017 0.117365 0.634517 0.231832
H25   H     H_    0.087212 0.787971 0.539457 0.213899
H26   H     H_    0.105625 0.772773 0.369351 0.249461
H27   H     H_    0.087239 0.212012 0.460276 0.213987
H28   H     H_    0.105408 0.227208 0.630436 0.249256
H29   H     H_    0.605567 0.272772 0.630609 0.249405
H30   H     H_    0.587237 0.288014 0.460489 0.213972
H31   H     H_    0.605353 0.727214 0.369608 0.249198
H32   H     H_    0.587270 0.711974 0.539782 0.214064
H33   H     H_    0.857477 0.467260 0.128106 0.258885
H34   H     H_    0.878596 0.427912 0.902670 0.259807
H35   H     H_    0.857326 0.532196 0.871889 0.258739
H36   H     H_    0.878314 0.571643 0.097378 0.259794
H37   H     H_    0.378599 0.927908 0.097338 0.259812
H38   H     H_    0.357484 0.967237 0.871905 0.258916
H39   H     H_    0.378304 0.071629 0.902612 0.259799
H40   H     H_    0.357328 0.032196 0.128101 0.258770
N1    N     N_3   0.998760 0.500000 0.138610 -0.172979
N2    N     N_3   0.998760 0.500000 0.861390 -0.172937
N3    N     N_3   0.498760 1.000000 0.138610 -0.172932
N4    N     N_3   0.498760 1.000000 0.861390 -0.172975
O1    O     O_R   0.092530 0.407440 0.616040 -0.565389
O2    O     O_R   0.092530 0.407440 0.383960 -0.555270
O3    O     O_R   0.092530 0.592560 0.383960 -0.565369
O4    O     O_R   0.092530 0.592560 0.616040 -0.555108
O5    O     O_R   0.592530 0.907440 0.616040 -0.555264
O6    O     O_R   0.592530 0.907440 0.383960 -0.565373
O7    O     O_R   0.592530 0.092560 0.383960 -0.555096
O8    O     O_R   0.592530 0.092560 0.616040 -0.565352
O9    O     O_R   0.907330 0.407420 0.616040 -0.556499
O10   O     O_R   0.907330 0.407420 0.383960 -0.567852
O11   O     O_R   0.907330 0.592580 0.383960 -0.556347
O12   O     O_R   0.907330 0.592580 0.616040 -0.567952
O13   O     O_R   0.407330 0.907420 0.616040 -0.567763
O14   O     O_R   0.407330 0.907420 0.383960 -0.556563
O15   O     O_R   0.407330 0.092580 0.383960 -0.567853
O16   O     O_R   0.407330 0.092580 0.616040 -0.556410
Zn1   Zn    Zn3+2 0.999890 0.500000 0.654960 1.078541
Zn2   Zn    Zn3+2 0.999890 0.500000 0.345040 1.078525
Zn3   Zn    Zn3+2 0.499890 1.000000 0.654960 1.078531
Zn4   Zn    Zn3+2 0.499890 1.000000 0.345040 1.078552
O17   O     O_3   0.825139 0.292392 0.738788 -0.707299
H41   H     H_    0.847144 0.250217 0.802262 0.398852
O18   O     O_3   0.770718 0.337232 0.276228 -0.725990
H42   H     H_    0.772140 0.309077 0.189866 0.395266
O19   O     O_3   0.825006 0.707530 0.261148 -0.707168
H43   H     H_    0.846871 0.749732 0.197611 0.398967
O20   O     O_3   0.770324 0.662638 0.723575 -0.725911
H44   H     H_    0.771543 0.690759 0.809969 0.395296
O21   O     O_3   0.270809 0.837157 0.723821 -0.725947
H45   H     H_    0.272218 0.808961 0.810155 0.395296
O22   O     O_3   0.325020 0.792468 0.261176 -0.707351
H46   H     H_    0.347034 0.750331 0.197650 0.398811
O23   O     O_3   0.270414 0.162708 0.276380 -0.725863
H47   H     H_    0.271603 0.190872 0.190016 0.395333
O24   O     O_3   0.324878 0.207451 0.738885 -0.707218
H48   H     H_    0.346746 0.249614 0.802477 0.398932
Br1   Br    Br    0.307104 0.611060 0.697995 -0.263373
Br2   Br    Br    0.331480 0.580640 0.386335 -0.303122
Br3   Br    Br    0.307539 0.388871 0.302540 -0.263665
Br4   Br    Br    0.331447 0.419298 0.614060 -0.302853
Br5   Br    Br    0.831394 0.080606 0.613701 -0.303046
Br6   Br    Br    0.807131 0.111111 0.302022 -0.263420
Br7   Br    Br    0.831373 0.919334 0.385899 -0.302780
Br8   Br    Br    0.807585 0.888822 0.697433 -0.263724
Br9   Br    Br    0.951685 0.325968 0.118214 -0.411094
Br10  Br    Br    0.019635 0.323254 0.829707 -0.404448
Br11  Br    Br    0.950799 0.673841 0.882215 -0.410960
Br12  Br    Br    0.019248 0.676773 0.170453 -0.403831
Br13  Br    Br    0.519615 0.823253 0.170306 -0.404615
Br14  Br    Br    0.451739 0.825957 0.881764 -0.411052
Br15  Br    Br    0.519212 0.176776 0.829528 -0.403982
Br16  Br    Br    0.450818 0.173843 0.117790 -0.410906
Br17  Br    Br    0.134830 0.365815 0.129570 -0.330539
Br18  Br    Br    0.176773 0.441607 0.864573 -0.260172
Br19  Br    Br    0.134052 0.634877 0.870328 -0.331017
Br20  Br    Br    0.176672 0.558995 0.135070 -0.260808
Br21  Br    Br    0.676773 0.941602 0.135453 -0.260137
Br22  Br    Br    0.634874 0.865862 0.870438 -0.330447
Br23  Br    Br    0.676669 0.059022 0.864917 -0.260790
Br24  Br    Br    0.634065 0.134857 0.129668 -0.330951

loop_
_geom_bond_atom_site_label_1
_geom_bond_atom_site_label_2
_ccdc_geom_bond_type
C16   C28   S    
C9    C33   S    
C42   H28   S    
C29   C33   S    
C11   O13   A    
C10   O12   A    
C28   Br8   S    
C17   O21   S    
C44   H31   S    
C13   C25   S    
C14   C33   S    
C30   H19   S    
O20   H44   S    
C46   Br10  S    
C45   C46   S    
C51   Br23  S    
C22   Br2   S    
C32   C36   S    
O9    Zn1   S    
C28   H16   S    
C16   O20   S    
C38   C42   S    
C19   C36   S    
C41   H25   S    
C5    C6    S    
C26   C39   S    
O2    Zn2   S    
C3    O5    A    
C28   C40   S    
C9    O9    A    
C7    H37   S    
C4    O7    A    
C47   Br11  S    
C48   Br12  S    
C52   N3    S    
C16   C34   S    
C5    H36   S    
C18   H6    S    
C20   C24   S    
C6    N2    S    
C8    N4    S    
C32   H24   S    
C24   C38   S    
N4    Zn3   S    
O15   Zn4   S    
C12   C36   S    
C15   O19   S    
C18   C35   S    
C27   C40   S    
C15   C34   S    
C21   H9    S    
C51   N4    S    
C5    H33   S    
C50   Br14  S    
C23   H11   S    
C2    O4    A    
C42   H27   S    
C24   H12   S    
C29   C43   S    
C11   O14   A    
C45   Br9   S    
C25   Br5   S    
C30   C44   S    
C10   O11   A    
O3    Zn2   S    
C21   Br1   S    
N2    Zn1   S    
C29   H17   S    
C48   N1    S    
C30   C34   S    
C51   C52   S    
C26   H14   S    
C7    C8    S    
C25   H13   S    
C1    O1    A    
C41   H26   S    
C31   H22   S    
C39   C43   S    
C19   H7    S    
C9    O10   A    
C22   C37   S    
C27   Br7   S    
C6    H35   S    
C15   H3    S    
O12   Zn1   S    
C19   C23   S    
C16   H4    S    
O11   Zn2   S    
C13   C33   S    
C32   H23   S    
C18   O22   S    
C22   H10   S    
O8    Zn3   S    
C15   C27   S    
C47   C48   S    
C46   N2    S    
C4    C39   S    
C51   Br15  S    
N3    Zn4   S    
C14   C26   S    
C49   Br13  S    
C10   C34   S    
C8    H39   S    
C49   N3    S    
O19   H43   S    
C1    C38   S    
C3    O6    A    
C27   H15   S    
C46   Br18  S    
O10   Zn2   S    
C45   N1    S    
C49   C50   S    
C48   Br20  S    
O21   H45   S    
O5    Zn3   S    
C31   C35   S    
C20   H8    S    
C20   O24   S    
O1    Zn1   S    
O22   H46   S    
O14   Zn4   S    
C12   O16   A    
C29   H18   S    
C49   Br21  S    
C19   O23   S    
C31   C41   S    
C14   H2    S    
C18   C22   S    
O4    Zn1   S    
C47   Br19  S    
C30   H20   S    
C26   Br6   S    
C1    O2    A    
C3    C40   S    
C8    H38   S    
C5    N1    S    
O18   H42   S    
C23   Br3   S    
C52   Br24  S    
C23   C38   S    
C7    N3    S    
C6    H34   S    
C44   H32   S    
C11   C35   S    
C2    O3    A    
O23   H47   S    
O17   H41   S    
C25   C39   S    
C2    C37   S    
C24   Br4   S    
C50   Br22  S    
C43   H29   S    
C7    H40   S    
C4    O8    A    
C47   N2    S    
O7    Zn4   S    
C45   Br17  S    
N1    Zn2   S    
O16   Zn3   S    
O6    Zn4   S    
C37   C41   S    
C17   C21   S    
C31   H21   S    
C13   H1    S    
O13   Zn3   S    
C20   C36   S    
C40   C44   S    
C21   C37   S    
C52   Br16  S    
C14   O18   S    
C50   N4    S    
C13   O17   S    
C43   H30   S    
C32   C42   S    
C17   C35   S    
C12   O15   A    
O24   H48   S    
C17   H5    S    
