data_mof_unit_58047.cif
_audit_creation_date              2013-03-05T16:09:06-0500
_audit_creation_method            fapswitch 2.2
_symmetry_space_group_name_H-M    P1
_symmetry_Int_Tables_number       1
_space_group_crystal_system       triclinic
_cell_length_a                    18.213222
_cell_length_b                    7.121603
_cell_length_c                    13.117858
_cell_angle_alpha                 90.040303
_cell_angle_beta                  71.251017
_cell_angle_gamma                 90.002292
_cell_volume                      1611.19424708

loop_
_atom_site_label
_atom_site_type_symbol
_atom_site_description
_atom_site_fract_x
_atom_site_fract_y
_atom_site_fract_z
_atom_type_partial_charge
O1    O     O_R   0.453880 0.506200 0.150010 -0.590891
O2    O     O_R   0.546120 0.006200 0.849990 -0.581159
O3    O     O_R   0.604080 0.177770 0.007280 -0.587195
O4    O     O_R   0.395920 0.677770 0.992720 -0.581069
C1    C     C_R   0.635931 0.344526 0.001650 1.018827
C2    C     C_R   0.364068 0.844511 0.998347 1.016867
O5    O     O_R   0.458010 0.176640 0.159130 -0.578308
O6    O     O_R   0.541990 0.676640 0.840870 -0.584461
O7    O     O_R   0.399010 0.004010 0.002930 -0.591407
O8    O     O_R   0.600990 0.504010 0.997070 -0.586051
C3    C     C_R   0.442217 0.345068 0.201373 1.200480
C4    C     C_R   0.557782 0.845197 0.798565 1.196276
O9    O     O_3   0.480810 0.338440 0.948570 -0.281426
O10   O     O_3   0.519190 0.838440 0.051430 -0.277308
V1    V     V_3+5 0.503560 0.064490 0.009540 1.328581
V2    V     V_3+5 0.496440 0.564490 0.990460 1.333491
C5    C     C_R   0.584368 0.798916 0.504669 0.793968
C6    C     C_R   0.415822 0.424168 0.493180 0.796448
C7    C     C_R   0.593454 0.851068 0.681656 -0.660608
C8    C     C_R   0.406374 0.355689 0.318036 -0.656544
C9    C     C_R   0.958230 0.878744 0.381459 0.251703
C10   C     C_R   0.042619 0.329602 0.619600 0.254666
C11   C     C_R   0.928939 0.843268 0.493340 0.195731
C12   C     C_R   0.071215 0.361217 0.507211 0.194420
C13   C     C_R   0.847714 0.813229 0.542864 0.269184
C14   C     C_R   0.152303 0.393230 0.456868 0.272922
C15   C     C_R   0.795751 0.833556 0.481254 0.042032
C16   C     C_R   0.204455 0.379840 0.518572 0.040653
C17   C     C_R   0.828429 0.838373 0.367353 -0.033662
C18   C     C_R   0.172018 0.382349 0.632427 -0.035565
C19   C     C_R   0.712474 0.840037 0.527229 -0.163480
C20   C     C_R   0.287654 0.374616 0.472443 -0.161339
C21   C     C_R   0.665739 0.811040 0.459578 -0.490208
C22   C     C_R   0.334503 0.411847 0.538983 -0.489824
C23   C     C_R   0.700728 0.799726 0.347977 0.960630
C24   C     C_R   0.299660 0.430919 0.650287 0.961196
C25   C     C_R   0.780087 0.820286 0.302919 -0.346011
C26   C     C_R   0.220363 0.409553 0.696142 -0.344220
C27   C     C_R   0.673163 0.883696 0.636722 0.752231
C28   C     C_R   0.326735 0.323574 0.364094 0.751502
C29   C     C_R   0.549194 0.809290 0.615555 0.605306
C30   C     C_R   0.450786 0.406064 0.382573 0.598781
C31   C     C_R   0.909013 0.861595 0.318811 -0.303340
C32   C     C_R   0.091633 0.357722 0.681548 -0.302577
H1    H     H_    0.803320 0.819028 0.215912 0.142512
H2    H     H_    0.197157 0.416930 0.783069 0.140159
C33   C     C_1   0.216218 0.858679 0.000593 -0.137009
C34   C     C_1   0.783783 0.358725 0.999400 -0.134762
C35   C     C_1   0.283562 0.852564 0.999381 -0.105334
C36   C     C_1   0.716438 0.352620 0.000613 -0.105744
O11   O     O_R   0.899030 0.205490 0.002790 -0.584631
O12   O     O_R   0.100970 0.705490 0.997210 -0.594297
O13   O     O_R   0.042000 0.536370 0.840840 -0.581866
O14   O     O_R   0.958000 0.036370 0.159160 -0.566021
C37   C     C_R   0.057178 0.367735 0.798764 1.025305
C38   C     C_R   0.943008 0.868573 0.201346 1.021842
O15   O     O_R   0.895930 0.535070 0.992690 -0.586915
O16   O     O_R   0.104070 0.035070 0.007310 -0.577769
O17   O     O_R   0.953870 0.707520 0.150040 -0.593738
O18   O     O_R   0.046130 0.207520 0.849960 -0.576339
C39   C     C_R   0.864244 0.366719 0.998531 0.991661
C40   C     C_R   0.135759 0.866709 0.001462 0.990347
O19   O     O_3   0.019200 0.374340 0.051340 -0.264668
O20   O     O_3   0.980800 0.874340 0.948660 -0.259449
V3    V     V_3+5 0.996440 0.648350 0.990470 1.287758
V4    V     V_3+5 0.003560 0.148350 0.009530 1.303473
F1    F     F_    0.471202 0.787613 0.658454 -0.598929
F2    F     F_    0.528713 0.428050 0.338825 -0.604063
F3    F     F_    0.658201 0.775802 0.280746 -0.620799
F4    F     F_    0.342284 0.463250 0.716576 -0.619585
F5    F     F_    0.538505 0.776021 0.441960 -0.569500
F6    F     F_    0.461898 0.452884 0.554995 -0.570457
F7    F     F_    0.709328 0.973509 0.698330 -0.638151
F8    F     F_    0.290357 0.226952 0.305149 -0.639661
N1    N     N_R   0.038639 0.926043 0.329608 0.256268
O21   O     O_R   0.093620 0.814565 0.335174 -0.273434
O22   O     O_R   0.057215 0.076809 0.271118 -0.310798
N2    N     N_R   0.963182 0.275454 0.672863 0.258184
O23   O     O_R   0.906210 0.382853 0.670146 -0.271292
O24   O     O_R   0.947813 0.127185 0.733924 -0.314063
N3    N     N_R   0.819907 0.741223 0.650908 0.295743
O25   O     O_R   0.775768 0.592999 0.672249 -0.337171
O26   O     O_R   0.833067 0.831396 0.729660 -0.229060
N4    N     N_R   0.179808 0.460445 0.347730 0.296615
O27   O     O_R   0.166619 0.365793 0.270486 -0.228760
O28   O     O_R   0.224519 0.607527 0.323764 -0.337171
N5    N     N_R   0.981741 0.837146 0.555493 0.281437
O29   O     O_R   0.041780 0.947036 0.532703 -0.344115
O30   O     O_R   0.973452 0.714437 0.631388 -0.331065
N6    N     N_R   0.017848 0.364393 0.445817 0.281263
O31   O     O_R   0.957034 0.256865 0.471520 -0.346019
O32   O     O_R   0.025970 0.483867 0.368340 -0.329173

loop_
_geom_bond_atom_site_label_1
_geom_bond_atom_site_label_2
_geom_bond_distance
_ccdc_geom_bond_type
O16   C40   1.322145 A    
C13   N3    1.437973 S    
N5    O29   1.299108 A    
O19   V3    2.198267 S    
C15   C17   1.419949 A    
O1    C3    1.313378 A    
O2    C4    1.312136 A    
C33   C40   1.462909 S    
N3    O25   1.301765 A    
C34   C39   1.462923 S    
C33   C35   1.222312 T    
O5    C3    1.313461 A    
C23   C25   1.382344 A    
C12   C14   1.429137 A    
C6    C30   1.390364 A    
C8    C28   1.399320 A    
N2    O24   1.300740 A    
C18   C26   1.408645 A    
C9    C31   1.402580 A    
O16   V4    1.992138 S    
C10   C32   1.401236 A    
C28   F8    1.356060 S    
O11   C39   1.321296 A    
C19   C21   1.428295 A    
O13   V3    2.031755 S    
C34   C36   1.222323 T    
O19   V4    1.752513 S    
O18   V4    2.029328 S    
O6    V2    2.032834 S    
C11   N5    1.447617 S    
C37   O18   1.306735 A    
C17   C31   1.409359 A    
C30   F2    1.358214 S    
C18   C32   1.408245 A    
C5    C21   1.410772 A    
C2    O7    1.312748 A    
N3    O26   1.302031 A    
C24   F4    1.358492 S    
O13   C37   1.313149 A    
C6    F6    1.356754 S    
O14   C38   1.308644 A    
C3    C8    1.459973 S    
C15   C19   1.441635 A    
C16   C20   1.440238 A    
N4    O27   1.301644 A    
C10   N2    1.442443 S    
C29   F1    1.358125 S    
N2    O23   1.298774 A    
O11   V4    1.976433 S    
O20   V4    2.197241 S    
O4    V2    1.992160 S    
N1    O21   1.298280 A    
C6    C22   1.410791 A    
N6    O32   1.297424 A    
O6    C4    1.315277 A    
O1    V2    2.027785 S    
O2    V1    2.027195 S    
N1    O22   1.300084 A    
C7    C27   1.399668 A    
O4    C2    1.313194 A    
C5    F5    1.357400 S    
C9    C11   1.414059 A    
C10   C12   1.415060 A    
C1    C36   1.463114 S    
C25   H1    1.082281 S    
C24   C26   1.382942 A    
C20   C28   1.416982 A    
O3    V1    1.992116 S    
C14   N4    1.438630 S    
O15   V3    1.992098 S    
O3    C1    1.313330 A    
C12   N6    1.448151 S    
C8    C30   1.392647 A    
O15   C39   1.322119 A    
O14   V4    2.032815 S    
C13   C15   1.435858 A    
C9    N1    1.442507 S    
C14   C16   1.435552 A    
C38   O17   1.311848 A    
O20   V3    1.753243 S    
C16   C18   1.418704 A    
O7    V1    1.981161 S    
C1    O8    1.312758 A    
O8    V2    1.981223 S    
O17   V3    2.028732 S    
C32   C37   1.463799 S    
N6    O31   1.298894 A    
C4    C7    1.461285 S    
O5    V1    2.031774 S    
C21   C23   1.398530 A    
C19   C27   1.417959 A    
C22   C24   1.398952 A    
C27   F7    1.355555 S    
C2    C35   1.463092 S    
C5    C29   1.390153 A    
C26   H2    1.082479 S    
C31   C38   1.465251 S    
C11   C13   1.427836 A    
C23   F3    1.358551 S    
O9    V2    1.753242 S    
C17   C25   1.408707 A    
N5    O30   1.297013 A    
O10   V1    1.753972 S    
N4    O28   1.301914 A    
O12   C40   1.321131 A    
O12   V3    1.976377 S    
C7    C29   1.392542 A    
C20   C22   1.427824 A    
