data_mof_unit_25325.cif
_audit_creation_date              2012-12-11T20:30:30-0500
_audit_creation_method            fapswitch 2.2
_symmetry_space_group_name_H-M    P1
_symmetry_Int_Tables_number       1
_space_group_crystal_system       triclinic
_cell_length_a                    8.329987
_cell_length_b                    17.354253
_cell_length_c                    18.933352
_cell_angle_alpha                 103.518406
_cell_angle_beta                  91.664455
_cell_angle_gamma                 98.610744
_cell_volume                      2625.34768156

loop_
_atom_site_label
_atom_site_type_symbol
_atom_type_description
_atom_site_fract_x
_atom_site_fract_y
_atom_site_fract_z
_atom_type_partial_charge
Ba1   Ba    Ba6+2 0.853800 0.535410 0.467450 1.661657
Ba2   Ba    Ba6+2 0.336030 0.464660 0.532560 1.697042
C1    C     C_3   0.635323 0.813378 0.290696 -0.187703
C2    C     C_R   0.905101 0.411600 0.086220 -0.042051
C3    C     C_R   0.747291 0.373836 0.059080 -0.093783
C4    C     C_3   0.121602 0.695979 0.290340 0.346853
C5    C     C_R   0.681820 0.381896 0.992608 0.441620
C6    C     C_R   0.780761 0.420366 0.947237 -0.001828
C7    C     C_R   0.942232 0.455387 0.972342 -0.025882
C8    C     C_R   0.722065 0.424947 0.877925 -0.043212
C9    C     C_R   0.824147 0.458012 0.830435 -0.062815
C10   C     C_R   0.985523 0.495561 0.856046 -0.043890
C11   C     C_R   0.041127 0.495918 0.928299 0.015775
C12   C     C_3   0.587629 0.728697 0.301650 0.349583
C13   C     C_R   0.770286 0.453012 0.757572 -0.022681
C14   C     C_R   0.883019 0.477297 0.709664 -0.230150
C15   C     C_R   0.034458 0.526112 0.735435 0.078796
C16   C     C_3   0.127294 0.717855 0.217044 -0.381927
C17   C     C_R   0.087122 0.536784 0.811613 -0.094923
C18   C     C_R   0.159235 0.492718 0.070853 0.040156
C19   C     C_R   0.218361 0.493355 0.142667 0.001836
C20   C     C_R   0.114202 0.457054 0.188620 -0.030520
C21   C     C_R   0.961003 0.413478 0.157907 -0.023441
C22   C     C_R   0.231683 0.588338 0.847600 0.373026
C23   C     C_3   0.459956 0.337768 0.304149 0.302260
C24   C     C_R   0.289556 0.584167 0.917133 0.019851
C25   C     C_R   0.195524 0.537311 0.957181 -0.014830
C26   C     C_R   0.254540 0.535081 0.027833 0.042623
C27   C     C_R   0.439999 0.628993 0.949058 -0.043988
C28   C     C_3   0.206050 0.728389 0.650089 0.688140
C29   C     C_R   0.499545 0.624105 0.016085 -0.123427
C30   C     C_R   0.411526 0.574346 0.054642 0.059644
C31   C     C_R   0.382501 0.528802 0.167180 -0.035502
C32   C     C_R   0.482926 0.560717 0.117537 0.030751
C33   C     C_R   0.436794 0.532682 0.240366 -0.021033
C34   C     C_3   0.456902 0.314290 0.221448 -0.316140
C35   C     C_R   0.326075 0.504580 0.287169 -0.290919
C36   C     C_R   0.166587 0.465960 0.263375 0.038714
C37   C     C_2   0.431585 0.722232 0.491220 -0.239883
C38   C     C_3   0.306691 0.778484 0.499630 0.006162
C39   C     C_2   0.384468 0.862421 0.498585 -0.088595
C40   C     C_3   0.104863 0.796197 0.661943 -0.278555
C41   C     C_2   0.547721 0.884443 0.510559 0.005875
C42   C     C_2   0.648744 0.824505 0.524742 -0.098555
C43   C     C_1   0.578952 0.750269 0.522861 0.147698
C44   C     C_R   0.797231 0.135574 0.523654 -0.101049
C45   C     C_3   0.054786 0.298337 0.713848 0.370391
C46   C     C_R   0.858367 0.216697 0.532201 -0.010992
C47   C     C_R   0.618142 0.233630 0.465970 0.100583
C48   C     C_R   0.556621 0.151840 0.456004 -0.004600
C49   C     C_R   0.644166 0.102157 0.486249 0.059896
C50   C     C_2   0.628230 0.967749 0.515380 -0.065744
C51   C     C_2   0.570461 0.016843 0.478654 -0.061434
C52   C     C_3   0.953402 0.284957 0.362022 0.339268
C53   C     C_R   0.768510 0.264885 0.503531 -0.240899
C54   C     C_3   0.926407 0.192858 0.335930 0.263925
C55   C     C_3   0.728641 0.664149 0.700404 0.356765
C56   C     C_3   0.057010 0.274420 0.786742 -0.216988
C57   C     C_3   0.755750 0.710345 0.780529 -0.170380
C58   C     C_3   0.081923 0.161917 0.306846 -0.269796
C59   C     C_3   0.781726 0.658431 0.832586 -0.496046
C60   C     C_3   0.643403 0.813332 0.210075 -0.363597
C61   C     C_3   0.986026 0.186086 0.778926 -0.271320
C62   C     C_3   0.833999 0.448422 0.630246 -0.262450
C63   C     C_3   0.663457 0.559057 0.117351 -0.343765
C64   C     C_3   0.541900 0.264350 0.713794 0.631930
C65   C     C_3   0.503012 0.197690 0.754154 0.234951
C66   C     C_R   0.002509 0.452983 0.043055 0.019770
Cl1   Cl    Cl    0.761800 0.160276 0.267727 -0.654046
Cl2   Cl    Cl    0.476795 0.222562 0.621295 -0.717764
Cl3   Cl    Cl    0.611995 0.222525 0.840524 -0.675985
Cl4   Cl    Cl    0.470934 0.349431 0.972382 -0.652926
Cl5   Cl    Cl    0.331019 0.670862 0.817816 -0.672370
Cl6   Cl    Cl    0.406777 0.779103 0.674670 -0.688935
H1    H     H_    0.583288 0.733123 0.361059 -0.003754
H2    H     H_    0.755836 0.840468 0.319652 0.126408
H3    H     H_    0.863512 0.758344 0.786965 0.129395
H4    H     H_    0.648997 0.740278 0.796463 0.219229
H5    H     H_    0.465653 0.703206 0.274182 -0.029180
H6    H     H_    0.544605 0.851015 0.314935 0.086052
H7    H     H_    0.339224 0.352080 0.320656 -0.013374
H8    H     H_    0.554985 0.391470 0.323802 0.054718
H9    H     H_    0.359908 0.262094 0.199432 0.143555
H10   H     H_    0.433004 0.365031 0.198557 0.051241
H11   H     H_    0.576352 0.298235 0.204296 0.155417
H12   H     H_    0.139969 0.839287 0.715537 0.152745
H13   H     H_    0.253779 0.741799 0.207829 0.112611
H14   H     H_    0.139736 0.355727 0.720125 0.073171
H15   H     H_    0.930734 0.308511 0.700697 -0.077242
H16   H     H_    0.183969 0.286024 0.811004 0.167987
H17   H     H_    0.984924 0.312440 0.824651 0.113941
H18   H     H_    0.675184 0.283657 0.718550 -0.072670
H19   H     H_    0.540667 0.141501 0.722854 0.057223
H20   H     H_    0.370398 0.185505 0.761031 0.099873
H21   H     H_    0.995548 0.667468 0.294838 0.133197
H22   H     H_    0.669232 0.343855 0.092592 0.110507
H23   H     H_    0.120205 0.829240 0.618413 0.061410
H24   H     H_    0.597515 0.399661 0.860148 0.171711
H25   H     H_    0.881926 0.381897 0.189733 0.105847
H26   H     H_    0.516871 0.667801 0.922763 0.138574
H27   H     H_    0.616272 0.659767 0.037725 0.076365
H28   H     H_    0.205229 0.652153 0.291757 -0.033139
H29   H     H_    0.366685 0.510995 0.343351 0.063697
H30   H     H_    0.461515 0.994188 0.442455 0.074470
H31   H     H_    0.777697 0.843411 0.539930 0.091937
H32   H     H_    0.872335 0.099726 0.545104 0.065550
H33   H     H_    0.738583 0.987522 0.550459 0.078831
H34   H     H_    0.976299 0.772851 0.663626 0.110186
H35   H     H_    0.306057 0.905785 0.493845 0.075565
H36   H     H_    0.440070 0.127549 0.426237 0.060575
H37   H     H_    0.401554 0.660576 0.459685 0.050063
H38   H     H_    0.820865 0.326066 0.505940 0.016387
H39   H     H_    0.083203 0.663196 0.173120 0.070684
H40   H     H_    0.048430 0.763746 0.215747 0.139178
H41   H     H_    0.189642 0.692637 0.592829 -0.051618
H42   H     H_    0.165581 0.160599 0.352835 0.074696
H43   H     H_    0.051374 0.100343 0.271257 0.148386
H44   H     H_    0.145764 0.201315 0.274490 0.140625
H45   H     H_    0.837939 0.304501 0.379992 -0.012126
H46   H     H_    0.782776 0.694250 0.889475 0.150367
H47   H     H_    0.684621 0.605278 0.823299 0.157306
H48   H     H_    0.902125 0.640540 0.825600 0.143935
H49   H     H_    0.743770 0.782278 0.186530 0.141998
H50   H     H_    0.527286 0.782623 0.179055 0.117570
H51   H     H_    0.666793 0.876203 0.204334 0.148862
H52   H     H_    0.070460 0.146931 0.751077 0.138639
H53   H     H_    0.969200 0.174485 0.833700 0.175263
H54   H     H_    0.866602 0.170438 0.747141 0.142761
H55   H     H_    0.923372 0.439594 0.591958 0.155632
H56   H     H_    0.047712 0.303930 0.407936 -0.001268
H57   H     H_    0.781386 0.384340 0.620719 0.067130
H58   H     H_    0.759854 0.489421 0.612441 0.117816
H59   H     H_    0.686901 0.506426 0.135982 0.135552
H60   H     H_    0.706502 0.547857 0.061527 0.083706
H61   H     H_    0.735684 0.616361 0.148086 0.146123
H62   H     H_    0.891385 0.165988 0.381965 -0.014395
H63   H     H_    0.839455 0.639442 0.681787 -0.067147
H64   H     H_    0.623087 0.615085 0.693075 0.078794
O1    O     O_2   0.871520 0.445720 0.321500 -0.463738
O2    O     O_2   0.188925 0.221399 0.526111 -0.415398
O3    O     O_3   0.102900 0.238275 0.658704 -0.555936
O4    O     O_3   0.121030 0.451930 0.411150 -0.499605
O5    O     O_3   0.581210 0.598010 0.542960 -0.497582
O6    O     O_2   0.335820 0.303580 0.452320 -0.457137
O7    O     O_3   0.494753 0.272961 0.330951 -0.601337
O8    O     O_2   0.448321 0.479484 0.756602 -0.486570
O9    O     O_3   0.457027 0.327994 0.741747 -0.591265
O10   O     O_3   0.662190 0.593100 0.375060 -0.466768
O11   O     O_2   0.783768 0.539477 0.254029 -0.501170
O12   O     O_3   0.696527 0.721143 0.663089 -0.584236
O13   O     O_3   0.000309 0.318052 0.303867 -0.623456
O14   O     O_3   0.702983 0.681191 0.272179 -0.609531
O15   O     O_2   0.853880 0.696450 0.547730 -0.503259
O16   O     O_3   0.085100 0.636210 0.413950 -0.491085
O17   O     O_2   0.976428 0.773641 0.454466 -0.485649
O18   O     O_3   0.167539 0.765253 0.347011 -0.614347
O19   O     O_2   0.318180 0.554310 0.678550 -0.417546
O20   O     O_3   0.068680 0.548140 0.588860 -0.534350
O21   O     O_3   0.527520 0.406960 0.624950 -0.434483
O22   O     O_3   0.164562 0.682402 0.700336 -0.570354
O23   O     O_3   0.608500 0.402060 0.457050 -0.497593
O24   O     O_3   0.104610 0.363860 0.586060 -0.511953
P1    P     P_3+3 0.038810 0.422920 0.331160 0.984980
P2    P     P_3+3 0.678260 0.686080 0.568600 1.031747
P3    P     P_3+3 0.133079 0.739824 0.430419 0.948624
P4    P     P_3+3 0.150900 0.577150 0.668860 1.060178
P5    P     P_3+3 0.062575 0.259784 0.574786 1.016003
P6    P     P_3+3 0.642917 0.583885 0.282891 0.921085
P7    P     P_3+3 0.513679 0.301208 0.426107 0.991459
P8    P     P_3+3 0.552220 0.416462 0.720386 0.984499

loop_
_geom_bond_atom_site_label_1
_geom_bond_atom_site_label_2
_ccdc_geom_bond_type
C6    C7    A    
C46   C53   A    
C21   H25   S    
O21   P8    S    
C53   H38   S    
Ba2   O6    S    
C57   H3    S    
C60   H50   S    
C5    C6    A    
C57   H4    S    
C42   H31   S    
C42   C43   D    
C28   O22   S    
C54   Cl1   S    
C24   C25   A    
C29   H27   S    
Ba1   O20   S    
C33   C35   A    
C43   P2    S    
C22   C24   A    
C15   P4    S    
C28   Cl6   S    
C41   C50   S    
C55   C57   S    
C19   C31   A    
C34   H9    S    
C13   C14   A    
C20   C36   A    
C48   H36   S    
Ba2   O23   S    
C59   H47   S    
Ba1   Ba2   S    
C8    H24   S    
C7    C11   A    
Ba1   O4    S    
C34   H10   S    
O14   P6    S    
C9    C13   A    
C62   H58   S    
Ba1   P2    S    
Ba2   O21   S    
C65   H20   S    
O16   P3    S    
C58   H44   S    
C40   H12   S    
O22   P4    S    
C56   H17   S    
Ba2   P4    S    
C61   H54   S    
Ba1   O1    S    
O9    P8    S    
C37   C43   D    
O23   P7    S    
O2    P5    D    
C37   H37   S    
C64   C65   S    
Ba1   O23   S    
C39   H35   S    
C52   H45   S    
C59   H46   S    
C23   H7    S    
Ba2   O5    S    
C45   H15   S    
Ba2   O24   S    
O11   P6    D    
C52   H56   S    
C1    H6    S    
C16   H39   S    
C60   H49   S    
C54   H62   S    
C48   C49   A    
O7    P7    S    
C28   H41   S    
C4    C16   S    
C44   C46   A    
O3    P5    S    
C57   C59   S    
O15   P2    D    
C26   C30   A    
C50   H33   S    
C40   H23   S    
O4    P1    S    
C3    C5    A    
C2    C21   A    
C14   C15   A    
C64   H18   S    
C18   C26   A    
C47   C53   A    
C44   C49   A    
C54   C58   S    
C13   P8    S    
C59   H48   S    
C49   C51   S    
C30   C32   A    
C41   C42   S    
C35   C36   A    
Ba1   O5    S    
C14   C62   S    
C29   C30   A    
C62   H57   S    
Ba2   O20   S    
C55   O12   S    
C33   P6    S    
C38   P3    S    
C55   H63   S    
C58   H43   S    
C12   H5    S    
C18   C19   A    
C62   H55   S    
Ba1   O15   S    
C1    H2    S    
C56   H16   S    
C64   O9    S    
C63   H61   S    
C1    C12   S    
C63   H59   S    
C36   P1    S    
C4    H21   S    
O13   P1    S    
O8    P8    D    
C32   C63   S    
C23   H8    S    
Ba2   O4    S    
C58   H42   S    
O5    P2    S    
C5    Cl4   S    
C3    H22   S    
C50   C51   D    
O20   P4    S    
C2    C66   A    
C1    C60   S    
C56   C61   S    
C16   H40   S    
C38   C39   S    
C27   H26   S    
C18   C66   A    
C28   C40   S    
C39   C41   D    
C63   H60   S    
C2    C3    A    
O19   P4    D    
C60   H51   S    
C35   H29   S    
C9    C10   A    
C52   C54   S    
C52   O13   S    
C34   H11   S    
O12   P2    S    
C45   O3    S    
C16   H13   S    
C45   H14   S    
O1    P1    D    
C17   C22   A    
C7    C66   A    
C27   C29   A    
C12   H1    S    
C45   C56   S    
C47   P7    S    
C31   C33   A    
C64   Cl2   S    
C46   P5    S    
O18   P3    S    
O17   P3    D    
Ba2   O19   S    
O10   P6    S    
C44   H32   S    
C10   C17   A    
C65   H19   S    
C15   C17   A    
C31   C32   A    
C55   H64   S    
C65   Cl3   S    
C4    H28   S    
Ba1   O16   S    
C22   Cl5   S    
C4    O18   S    
C61   H52   S    
C8    C9    A    
C23   C34   S    
O24   P5    S    
C37   C38   S    
C10   C11   A    
Ba1   P1    S    
C24   C27   A    
C6    C8    A    
C47   C48   A    
C12   O14   S    
C25   C26   A    
O6    P7    D    
C20   C21   A    
C11   C25   A    
Ba1   O10   S    
C23   O7    S    
C51   H30   S    
C19   C20   A    
C40   H34   S    
C61   H53   S    
