data_mof_unit_34498.cif
_audit_creation_date              2012-12-10T17:09:51-0500
_audit_creation_method            fapswitch 2.2
_symmetry_space_group_name_H-M    P1
_symmetry_Int_Tables_number       1
_space_group_crystal_system       triclinic
_cell_length_a                    10.755145
_cell_length_b                    13.077492
_cell_length_c                    11.762319
_cell_angle_alpha                 99.512251
_cell_angle_beta                  93.880876
_cell_angle_gamma                 91.598869
_cell_volume                      1626.60051552

loop_
_atom_site_label
_atom_site_type_symbol
_atom_type_description
_atom_site_fract_x
_atom_site_fract_y
_atom_site_fract_z
_atom_type_partial_charge
C1    C     C_R   0.501084 0.299589 0.478807 0.801938
C2    C     C_R   0.064522 0.512160 0.607233 -0.004803
C3    C     C_R   0.123747 0.518169 0.503610 -0.164447
C4    C     C_R   0.050481 0.504460 0.396975 0.001884
C5    C     C_R   0.928732 0.461406 0.390422 -0.095379
C6    C     C_R   0.870050 0.461242 0.494081 -0.152532
C7    C     C_R   0.489212 0.816603 0.535382 -0.129852
C8    C     C_R   0.508033 0.186499 0.467201 -0.178638
C9    C     C_R   0.549978 0.018052 0.356972 -0.026848
C10   C     C_R   0.569807 0.127391 0.376252 0.124477
C11   C     C_R   0.457753 0.135868 0.551706 -0.002320
C12   C     C_R   0.261532 0.509421 0.501440 0.818817
C13   C     C_R   0.489265 0.032966 0.553291 0.121361
C14   C     C_R   0.504815 0.970866 0.446938 -0.037001
C15   C     C_R   0.472124 0.864636 0.435707 0.031284
C16   C     C_R   0.508590 0.881366 0.646370 -0.118676
C17   C     C_R   0.504225 0.990133 0.655429 0.000555
C18   C     C_R   0.392923 0.390401 0.020255 0.042910
C19   C     C_R   0.390462 0.411929 0.143133 0.162786
C20   C     C_R   0.554861 0.539367 0.155306 0.103362
C21   C     C_R   0.537518 0.538498 0.033150 -0.087812
C22   C     C_R   0.459616 0.460338 0.964236 -0.012898
C23   C     C_R   0.496159 0.701339 0.521617 0.791286
C24   C     C_R   0.448527 0.457607 0.841980 -0.003521
C25   C     C_R   0.606069 0.590160 0.856680 0.158250
C26   C     C_R   0.598493 0.612194 0.977500 -0.066696
C27   C     C_R   0.735992 0.484260 0.497848 0.819100
C28   C     C_R   0.117173 0.554777 0.719698 0.116567
C29   C     C_R   0.074682 0.516588 0.815194 -0.132806
C30   C     C_R   0.972578 0.445872 0.803120 0.091183
C31   C     C_R   0.903735 0.421294 0.694493 0.001152
C32   C     C_R   0.944579 0.464156 0.598554 0.039132
Cu1   Cu    Cu3+1 0.509250 0.507730 0.615930 0.937614
Cu2   Cu    Cu3+1 0.490750 0.492270 0.384070 0.922126
H1    H     H_    0.380374 0.407758 0.786359 0.129944
H2    H     H_    0.120855 0.543764 0.900056 0.144603
N1    N     N_R   0.523180 0.519350 0.790130 -0.244798
N2    N     N_R   0.476820 0.480650 0.209890 -0.262023
O1    O     O_R   0.506570 0.354460 0.582000 -0.571799
O2    O     O_R   0.490940 0.341410 0.386200 -0.638856
O3    O     O_R   0.327470 0.506530 0.597920 -0.603953
O4    O     O_R   0.311840 0.493480 0.402120 -0.560573
O5    O     O_R   0.509060 0.658590 0.613800 -0.577602
O6    O     O_R   0.493430 0.645540 0.418000 -0.613274
O7    O     O_R   0.688160 0.506520 0.597880 -0.608254
O8    O     O_R   0.672530 0.493470 0.402080 -0.623355
C33   C     C_2   0.089694 0.552723 0.298128 0.489075
H3    H     H_    0.045691 0.530182 0.211777 0.151943
O9    O     O_2   0.165712 0.625282 0.313764 -0.596145
C34   C     C_2   0.533244 0.058324 0.769831 0.392205
H4    H     H_    0.518613 0.029550 0.849376 0.094672
O10   O     O_2   0.578630 0.145989 0.776598 -0.557660
C35   C     C_3   0.662787 0.177989 0.307658 -0.330510
C36   C     C_3   0.794351 0.137272 0.321826 -0.746442
H5    H     H_    0.821465 0.135382 0.414172 0.280697
H6    H     H_    0.801564 0.058651 0.271273 0.253266
H7    H     H_    0.862523 0.188883 0.289669 0.255880
H8    H     H_    0.629757 0.167399 0.214860 0.228953
H9    H     H_    0.674367 0.262054 0.338589 0.205649
C37   C     C_2   0.355408 0.181255 0.621812 0.376057
H10   H     H_    0.326037 0.259379 0.619334 0.068420
O11   O     O_2   0.295856 0.128843 0.677614 -0.564795
C38   C     C_2   0.709384 0.639326 0.805103 0.453079
H11   H     H_    0.696036 0.669372 0.725644 0.093462
O12   O     O_2   0.814453 0.646363 0.852771 -0.545542
C39   C     C_3   0.332102 0.289040 0.953339 -0.389904
C40   C     C_3   0.386403 0.193750 0.995504 -0.719787
H12   H     H_    0.489548 0.196544 0.993883 0.263856
H13   H     H_    0.362146 0.187978 0.084278 0.227797
H14   H     H_    0.347432 0.122465 0.938122 0.258563
H15   H     H_    0.230152 0.288104 0.959979 0.244333
H16   H     H_    0.346034 0.277913 0.860419 0.226400
C41   C     C_2   0.629317 0.719614 0.040836 0.525294
H17   H     H_    0.589395 0.744755 0.121762 -0.000635
O13   O     O_2   0.693917 0.782305 0.002658 -0.506441
C42   C     C_2   0.291101 0.360224 0.197115 0.393832
H18   H     H_    0.309640 0.324779 0.272264 0.113085
O14   O     O_2   0.183662 0.355837 0.155780 -0.565050
C43   C     C_2   0.666029 0.595421 0.220634 0.327292
H19   H     H_    0.659807 0.644756 0.302747 0.118622
O15   O     O_2   0.767971 0.588184 0.180747 -0.571104
C44   C     C_3   0.202887 0.651314 0.742755 -0.326358
C45   C     C_3   0.139417 0.743382 0.809598 -0.723242
H20   H     H_    0.049645 0.756821 0.762864 0.260069
H21   H     H_    0.121606 0.729487 0.897774 0.254899
H22   H     H_    0.200504 0.814468 0.818021 0.270371
H23   H     H_    0.289287 0.635613 0.793177 0.241102
H24   H     H_    0.229261 0.675502 0.661276 0.220300
C46   C     C_3   0.937351 0.401659 0.908682 -0.367360
C47   C     C_3   0.957957 0.285008 0.895773 -0.749049
H25   H     H_    0.877310 0.239348 0.847007 0.251415
H26   H     H_    0.043065 0.264640 0.850011 0.246143
H27   H     H_    0.968520 0.261744 0.982389 0.297329
H28   H     H_    0.994795 0.440465 0.986887 0.249665
H29   H     H_    0.838809 0.417684 0.925725 0.220490
C48   C     C_2   0.798123 0.343325 0.679530 0.421538
H30   H     H_    0.737113 0.339711 0.748587 0.112020
O16   O     O_2   0.779772 0.280959 0.590197 -0.573466
C49   C     C_2   0.869264 0.405326 0.277810 0.395046
H31   H     H_    0.770137 0.389544 0.263199 0.115176
O17   O     O_2   0.932586 0.368356 0.200244 -0.544483
C50   C     C_3   0.392568 0.811676 0.328442 -0.354000
C51   C     C_3   0.289818 0.879402 0.288327 -0.739864
H32   H     H_    0.234829 0.911033 0.361913 0.257660
H33   H     H_    0.328950 0.944352 0.250435 0.253736
H34   H     H_    0.225921 0.831720 0.220567 0.257634
H35   H     H_    0.450824 0.783926 0.256744 0.177153
H36   H     H_    0.341450 0.743685 0.348383 0.281321
C52   C     C_2   0.534225 0.839135 0.754340 0.345487
H37   H     H_    0.626157 0.851390 0.799333 0.101037
O18   O     O_2   0.450964 0.796785 0.797117 -0.547066
C53   C     C_2   0.593136 0.952833 0.253128 0.377980
H38   H     H_    0.641334 0.882701 0.262394 0.061631
O19   O     O_2   0.574448 0.976339 0.157384 -0.534349

loop_
_geom_bond_atom_site_label_1
_geom_bond_atom_site_label_2
_ccdc_geom_bond_type
C6    C32   A    
C21   C26   A    
C38   O12   D    
C1    C8    S    
Cu1   O7    S    
C41   H17   S    
Cu2   O4    S    
C53   O19   D    
C35   H9    S    
C33   O9    D    
C35   C36   S    
C29   H2    S    
Cu1   O1    S    
C47   H27   S    
C45   H20   S    
Cu2   O2    S    
C2    C32   A    
C19   C42   S    
C42   O14   D    
C52   O18   D    
C5    C6    A    
C44   H24   S    
C31   C48   S    
C26   C41   S    
C23   O5    A    
C37   O11   D    
C18   C19   A    
C25   C38   S    
C46   H28   S    
C10   C35   S    
C12   O4    A    
C3    C12   S    
C1    O2    A    
C25   N1    A    
C39   H16   S    
C39   H15   S    
C16   C17   A    
C48   O16   D    
C34   O10   D    
C50   H36   S    
Cu2   O8    S    
C9    C10   A    
C6    C27   S    
C27   O7    A    
C9    C53   S    
C7    C15   A    
C39   C40   S    
C18   C22   A    
C13   C14   A    
C41   O13   D    
C30   C46   S    
C53   H38   S    
C16   C52   S    
Cu1   Cu2   S    
C36   H6    S    
C24   H1    S    
C28   C44   S    
C40   H12   S    
Cu1   O5    S    
C5    C49   S    
Cu2   O6    S    
C42   H18   S    
C43   O15   D    
C34   H4    S    
C25   C26   A    
Cu1   N1    S    
C23   O6    A    
C38   H11   S    
C37   H10   S    
C40   H13   S    
C46   H29   S    
C9    C14   A    
C29   C30   A    
C19   N2    A    
C20   N2    A    
C47   H26   S    
C33   H3    S    
C48   H30   S    
C24   N1    A    
C50   H35   S    
C51   H33   S    
C27   O8    A    
C7    C16   A    
C45   H21   S    
C22   C24   A    
C11   C37   S    
C12   O3    A    
C36   H5    S    
C28   C29   A    
C20   C43   S    
C49   O17   D    
Cu2   N2    S    
C31   C32   A    
C4    C5    A    
C17   C34   S    
C35   H8    S    
C18   C39   S    
C49   H31   S    
C13   C17   A    
C40   H14   S    
Cu1   O3    S    
C2    C3    A    
C52   H37   S    
C11   C13   A    
C47   H25   S    
C30   C31   A    
C8    C11   A    
C7    C23   S    
C51   H34   S    
C15   C50   S    
C50   C51   S    
C1    O1    A    
C43   H19   S    
C44   H23   S    
C45   H22   S    
C20   C21   A    
C8    C10   A    
C44   C45   S    
C51   H32   S    
C14   C15   A    
C2    C28   A    
C46   C47   S    
C21   C22   A    
C4    C33   S    
C3    C4    A    
C36   H7    S    
