data_mof_unit_41071.cif
_audit_creation_date              2012-12-11T16:26:30-0500
_audit_creation_method            fapswitch 2.2
_symmetry_space_group_name_H-M    P1
_symmetry_Int_Tables_number       1
_space_group_crystal_system       triclinic
_cell_length_a                    6.935348
_cell_length_b                    17.691425
_cell_length_c                    19.392538
_cell_angle_alpha                 108.433569
_cell_angle_beta                  89.365879
_cell_angle_gamma                 91.135002
_cell_volume                      2256.83432045

loop_
_atom_site_label
_atom_site_type_symbol
_atom_type_description
_atom_site_fract_x
_atom_site_fract_y
_atom_site_fract_z
_atom_type_partial_charge
O1    O     O_R   0.494330 0.415720 0.413720 -0.520112
O2    O     O_R   0.819330 0.430070 0.560210 -0.521790
O3    O     O_R   0.994320 0.584280 0.586280 -0.526386
C1    C     C_R   0.650067 0.414135 0.581123 0.805352
O4    O     O_R   0.823730 0.406300 0.412670 -0.542115
O5    O     O_R   0.998760 0.560340 0.437690 -0.546618
C2    C     C_R   0.651813 0.378399 0.388984 0.737210
O6    O     O_R   0.489890 0.439660 0.562310 -0.514576
O7    O     O_3   0.662340 0.550560 0.508380 -0.381933
V1    V     V_3+5 0.935370 0.490620 0.498450 1.544156
O8    O     O_R   0.328750 0.569930 0.439790 -0.547904
C3    C     C_R   0.161415 0.584677 0.417824 0.681021
O9    O     O_R   0.324340 0.593700 0.587330 -0.541419
C4    C     C_R   0.155696 0.614143 0.617072 0.767912
V2    V     V_3+5 0.435940 0.509380 0.501550 1.531781
O10   O     O_3   0.159100 0.449440 0.491620 -0.328543
H1    H     H_    0.308731 0.857664 0.562276 0.176138
C5    C     C_R   0.052285 0.594480 0.763880 0.166657
C6    C     C_R   0.003092 0.587771 0.831818 -0.128121
C7    C     C_R   0.994532 0.654209 0.892737 0.288629
C8    C     C_R   0.034127 0.728700 0.886632 -0.197721
C9    C     C_R   0.081353 0.739038 0.818772 -0.017375
C10   C     C_R   0.092431 0.670762 0.754866 0.036335
C11   C     C_R   0.120997 0.816679 0.815543 -0.153933
C12   C     C_R   0.175357 0.827729 0.748464 -0.062257
C13   C     C_R   0.184944 0.760441 0.684147 -0.002734
C14   C     C_R   0.145086 0.682031 0.686663 -0.128999
C15   C     C_R   0.218431 0.904780 0.743011 0.615980
C16   C     C_R   0.266612 0.914578 0.676412 -0.154157
C17   C     C_R   0.272651 0.849361 0.613899 -0.197703
C18   C     C_R   0.232142 0.773377 0.617325 -0.146485
H2    H     H_    0.973184 0.529752 0.837682 0.179455
H3    H     H_    0.028607 0.778162 0.936482 0.118386
H4    H     H_    0.298588 0.973567 0.673255 0.152735
H5    H     H_    0.237463 0.725187 0.566509 0.117440
C19   C     C_R   0.306725 0.632131 0.319001 -0.061314
C20   C     C_R   0.154694 0.633516 0.368109 -0.129216
C21   C     C_R   0.993197 0.680445 0.368524 -0.108895
C22   C     C_R   0.983164 0.726428 0.321415 0.062574
C23   C     C_R   0.135210 0.724113 0.271710 -0.038247
C24   C     C_R   0.297218 0.676338 0.270117 0.044831
C25   C     C_R   0.823830 0.774789 0.323040 0.620998
C26   C     C_R   0.814575 0.819671 0.275447 -0.181655
C27   C     C_R   0.963809 0.817785 0.225479 -0.054674
C28   C     C_R   0.125307 0.769839 0.223670 0.010706
C29   C     C_R   0.277614 0.768110 0.174385 0.064024
C30   C     C_R   0.436409 0.719503 0.172459 -0.204714
C31   C     C_R   0.446060 0.673730 0.219517 0.639265
C32   C     C_R   0.955328 0.863729 0.178072 0.631087
C33   C     C_R   0.108965 0.863583 0.129682 -0.164117
C34   C     C_R   0.269285 0.815408 0.128270 -0.161109
H6    H     H_    0.430670 0.595440 0.318083 0.168416
H7    H     H_    0.876109 0.681800 0.406366 0.168036
H8    H     H_    0.689514 0.855805 0.277763 0.232077
H9    H     H_    0.387437 0.814435 0.090930 0.163253
H10   H     H_    0.554194 0.717237 0.134695 0.183332
C35   C     C_R   0.471635 0.186338 0.868302 0.556900
C36   C     C_R   0.625741 0.135801 0.869791 -0.331871
C37   C     C_R   0.784897 0.131723 0.822779 0.538390
C38   C     C_R   0.788774 0.176061 0.773941 -0.036225
C39   C     C_R   0.632985 0.225708 0.772546 -0.108059
C40   C     C_R   0.474497 0.231071 0.820042 -0.034523
C41   C     C_R   0.944919 0.171296 0.725911 -0.090447
C42   C     C_R   0.947682 0.215813 0.677713 -0.207280
C43   C     C_R   0.794253 0.265773 0.676353 0.091501
C44   C     C_R   0.635624 0.270290 0.723575 0.126564
C45   C     C_R   0.479704 0.319628 0.722020 0.089669
C46   C     C_R   0.323448 0.324815 0.769616 -0.197916
C47   C     C_R   0.320954 0.281100 0.818266 -0.081775
C48   C     C_R   0.797159 0.311850 0.629119 -0.150903
C49   C     C_R   0.642333 0.361917 0.627942 -0.056288
C50   C     C_R   0.483620 0.363809 0.673544 -0.178108
H11   H     H_    0.066116 0.133532 0.725763 0.188258
H12   H     H_    0.070693 0.211545 0.641807 0.151981
H13   H     H_    0.920362 0.308952 0.593521 0.167677
H14   H     H_    0.365437 0.401294 0.672421 0.189727
H15   H     H_    0.202794 0.362673 0.769208 0.167492
H16   H     H_    0.197628 0.286214 0.854130 0.188912
H17   H     H_    0.370984 0.120062 0.418535 0.184965
C51   C     C_R   0.762105 0.399971 0.253482 -0.251999
C52   C     C_R   0.820256 0.413479 0.189304 0.713585
C53   C     C_R   0.812824 0.351868 0.123778 -0.163424
C54   C     C_R   0.747327 0.276367 0.121968 -0.234207
C55   C     C_R   0.689070 0.260656 0.186357 0.067584
C56   C     C_R   0.696820 0.323513 0.253827 -0.021980
C57   C     C_R   0.623400 0.183788 0.183967 -0.100556
C58   C     C_R   0.567974 0.168817 0.248831 -0.024318
C59   C     C_R   0.560257 0.232344 0.316536 0.020801
C60   C     C_R   0.635056 0.310140 0.319516 -0.109252
C61   C     C_R   0.517905 0.089923 0.246463 -0.147814
C62   C     C_R   0.453783 0.073012 0.307825 0.298649
C63   C     C_R   0.432458 0.133969 0.372256 -0.134430
C64   C     C_R   0.477671 0.212712 0.377095 0.172961
H18   H     H_    0.767213 0.450680 0.302452 0.139889
H19   H     H_    0.857239 0.362616 0.073945 0.169999
H20   H     H_    0.742924 0.230551 0.069504 0.133657
H21   H     H_    0.527519 0.040077 0.196931 0.173865
O11   O     O_R   0.775200 0.060470 0.937800 -0.509954
O12   O     O_R   0.441110 0.093720 0.087350 -0.545808
O13   O     O_R   0.266330 0.939630 0.062280 -0.557096
C65   C     C_R   0.611183 0.118055 0.113634 0.663242
O14   O     O_R   0.445750 0.069950 0.939820 -0.480673
O15   O     O_R   0.271000 0.915700 0.913700 -0.532033
C66   C     C_R   0.615744 0.085655 0.918635 0.837192
O16   O     O_R   0.770530 0.084400 0.086380 -0.541440
O17   O     O_3   0.602830 0.949510 0.991680 -0.389298
V3    V     V_3+5 0.329710 0.009370 0.001550 1.619860
O18   O     O_R   0.940990 0.906170 0.912570 -0.549366
C67   C     C_R   0.109724 0.885655 0.883517 0.825646
O19   O     O_R   0.936350 0.929940 0.060100 -0.515949
C68   C     C_R   0.103660 0.914302 0.081387 0.722293
V4    V     V_3+5 0.829160 0.990450 0.998310 1.593809
O20   O     O_3   0.105910 0.050480 0.008320 -0.347272
F1    F     F_    0.676088 0.778560 0.370509 -0.690188
F2    F     F_    0.800580 0.910656 0.180921 -0.692119
F3    F     F_    0.601769 0.627217 0.215713 -0.638467
F4    F     F_    0.319194 0.192990 0.914465 -0.645836
F5    F     F_    0.933720 0.083094 0.823041 -0.610435
Br1   Br    Br    0.063206 0.493159 0.691171 -0.632651
F6    F     F_    0.883039 0.487063 0.190745 -0.623772
Br2   Br    Br    0.377065 0.967227 0.302625 -0.541907
Br3   Br    Br    0.374741 0.283840 0.463972 -0.570997
Br4   Br    Br    0.931360 0.643388 0.985476 -0.513454
F7    F     F_    0.214843 0.971849 0.801250 -0.647944

loop_
_geom_bond_atom_site_label_1
_geom_bond_atom_site_label_2
_ccdc_geom_bond_type
C27   C32   A    
C58   C59   A    
C6    C7    A    
C1    O6    A    
C52   C53   A    
C19   C24   A    
C35   C40   A    
O17   V4    S    
C28   C29   A    
C12   C15   A    
C52   F6    S    
C13   C14   A    
C16   C17   A    
C38   C41   A    
C63   C64   A    
C19   C20   A    
C20   C21   A    
C55   C57   A    
C45   C50   A    
O5    C3    A    
C17   C18   A    
C8    H3    S    
O17   V3    S    
C43   C48   A    
C2    C60   S    
O18   C67   A    
C5    C6    A    
C3    C20   S    
O19   C68   A    
V3    O20   S    
C7    Br4   S    
C59   C64   A    
O8    V2    S    
C39   C44   A    
C25   F1    S    
C30   C31   A    
C46   C47   A    
C48   C49   A    
O1    V2    S    
C10   C14   A    
C4    C14   S    
O7    V1    S    
C61   H21   S    
C34   H9    S    
C19   H6    S    
C50   H14   S    
C31   F3    S    
C44   C45   A    
C37   C38   A    
C8    C9    A    
H1    C17   S    
C47   H16   S    
C6    H2    S    
V4    O20   S    
C22   C25   A    
C35   C36   A    
C65   O16   A    
C23   C28   A    
O11   V4    S    
C45   C46   A    
C11   C12   A    
C62   C63   A    
O4    C2    A    
C56   C60   A    
C57   C58   A    
C41   H11   S    
C12   C13   A    
C29   C34   A    
C53   C54   A    
C5    C10   A    
C40   C47   A    
C38   C39   A    
C5    Br1   S    
O2    C1    A    
C26   C27   A    
C51   C56   A    
C26   H8    S    
C54   C55   A    
C7    C8    A    
C33   C34   A    
O14   V3    S    
C55   C56   A    
O14   C66   A    
H17   C63   S    
O3    C4    A    
C23   C24   A    
C32   F2    S    
O16   V4    S    
C43   C44   A    
C37   F5    S    
O9    V2    S    
C9    C11   A    
C36   C66   S    
C25   C26   A    
C51   H18   S    
O2    V1    S    
C22   C23   A    
C27   C28   A    
C35   F4    S    
C46   H15   S    
C29   C30   A    
C15   C16   A    
O13   V3    S    
C53   H19   S    
O12   C65   A    
O1    C2    A    
C11   C67   S    
C51   C52   A    
O5    V1    S    
O8    C3    A    
C15   F7    S    
O6    V2    S    
O12   V3    S    
O15   C67   A    
C42   C43   A    
C36   C37   A    
O4    V1    S    
O3    V1    S    
V1    O10   S    
C61   C62   A    
C21   C22   A    
C21   H7    S    
O11   C66   A    
C54   H20   S    
C16   H4    S    
C33   C68   S    
C24   C31   A    
C18   H5    S    
O7    V2    S    
C39   C40   A    
O19   V4    S    
C41   C42   A    
O18   V4    S    
C13   C18   A    
C49   C50   A    
C59   C60   A    
O13   C68   A    
C32   C33   A    
C62   Br2   S    
C58   C61   A    
C48   H13   S    
C42   H12   S    
C9    C10   A    
O15   V3    S    
O9    C4    A    
C57   C65   S    
C64   Br3   S    
C1    C49   S    
V2    O10   S    
C30   H10   S    
