data_mof_unit_16888.cif
_audit_creation_date              2012-12-10T20:38:17-0500
_audit_creation_method            fapswitch 2.2
_symmetry_space_group_name_H-M    P1
_symmetry_Int_Tables_number       1
_space_group_crystal_system       triclinic
_cell_length_a                    9.859161
_cell_length_b                    10.681182
_cell_length_c                    16.652803
_cell_angle_alpha                 90.009521
_cell_angle_beta                  85.035014
_cell_angle_gamma                 90.271255
_cell_volume                      1747.0651566

loop_
_atom_site_label
_atom_site_type_symbol
_atom_type_description
_atom_site_fract_x
_atom_site_fract_y
_atom_site_fract_z
_atom_type_partial_charge
C1    C     C_R   0.500351 0.739727 0.500526 0.887345
C2    C     C_R   0.346965 0.464412 0.785230 -0.197271
C3    C     C_R   0.420461 0.443881 0.137902 -0.109299
C4    C     C_R   0.415995 0.485002 0.216941 -0.117956
C5    C     C_R   0.652123 0.424786 0.222499 -0.182757
C6    C     C_R   0.656541 0.383499 0.143213 -0.165132
C7    C     C_R   0.539960 0.389936 0.101201 0.192317
C8    C     C_2   0.440945 0.324757 0.977560 -0.223847
C9    C     C_2   0.550411 0.354634 0.016135 -0.222711
C10   C     C_R   0.530907 0.473636 0.260132 -0.043486
C11   C     C_R   0.419932 0.934584 0.448057 0.040543
C12   C     C_R   0.480979 0.493319 0.653269 0.846950
C13   C     C_R   0.504430 0.871377 0.496637 -0.073807
C14   C     C_R   0.604993 0.936230 0.534285 -0.206981
C15   C     C_R   0.604787 0.065421 0.533397 -0.194899
C16   C     C_R   0.504974 0.128260 0.494017 -0.130262
C17   C     C_R   0.422193 0.062342 0.444912 0.041793
C18   C     C_3   0.273236 0.068908 0.434609 0.260152
C19   C     C_3   0.270176 0.926557 0.441372 -0.512392
C20   C     C_R   0.925290 0.601745 0.527503 0.237184
C21   C     C_R   0.932327 0.404060 0.466797 -0.130005
C22   C     C_R   0.076101 0.403961 0.467113 -0.098121
C23   C     C_R   0.500309 0.260156 0.498585 0.904678
C24   C     C_R   0.067955 0.601754 0.527433 0.221584
C25   C     C_3   0.062001 0.654800 0.610434 -0.518508
C26   C     C_3   0.907990 0.654804 0.610549 -0.512808
C27   C     C_R   0.519093 0.497655 0.346428 0.889576
C28   C     C_R   0.469151 0.450620 0.736502 -0.028047
C29   C     C_R   0.575381 0.379756 0.763874 -0.213712
C30   C     C_R   0.561884 0.327494 0.840209 -0.156257
C31   C     C_R   0.443519 0.348713 0.891107 0.196125
C32   C     C_R   0.334411 0.413773 0.862525 -0.165208
H1    H     H_    0.668354 0.362970 0.725870 0.153615
H2    H     H_    0.750512 0.345486 0.114834 0.140734
H3    H     H_    0.677561 0.887755 0.568241 0.150732
H4    H     H_    0.676873 0.115617 0.567211 0.159302
H5    H     H_    0.213090 0.117591 0.484714 0.077781
H6    H     H_    0.213590 0.892803 0.497940 0.170254
H7    H     H_    0.245331 0.876067 0.386127 0.250540
H8    H     H_    0.881516 0.325505 0.441187 0.176238
H9    H     H_    0.133152 0.325217 0.442429 0.205297
H10   H     H_    0.099886 0.588543 0.654776 0.212495
H11   H     H_    0.321906 0.523691 0.244671 0.164047
H12   H     H_    0.106798 0.750410 0.611235 0.198068
H13   H     H_    0.856601 0.588651 0.655036 0.217591
H14   H     H_    0.864223 0.750487 0.611403 0.195589
H15   H     H_    0.742017 0.414687 0.254968 0.170727
H16   H     H_    0.648568 0.370744 0.982774 0.149285
H17   H     H_    0.242483 0.430907 0.901409 0.127504
H18   H     H_    0.331057 0.457027 0.105573 0.126432
H19   H     H_    0.262541 0.515772 0.764067 0.142052
H20   H     H_    0.342703 0.309291 0.010895 0.161059
H21   H     H_    0.645749 0.274275 0.860427 0.131485
N1    N     N_R   0.857140 0.500860 0.500530 -0.117057
N2    N     N_R   0.142780 0.500820 0.500530 -0.119352
O1    O     O_R   0.385310 0.683210 0.499990 -0.618530
O2    O     O_R   0.614650 0.683240 0.500000 -0.615153
O3    O     O_R   0.371780 0.500000 0.615800 -0.619002
O4    O     O_R   0.601120 0.500040 0.615800 -0.623991
O5    O     O_R   0.385350 0.316760 0.500000 -0.617445
O6    O     O_R   0.614690 0.316790 0.500010 -0.627458
O7    O     O_R   0.398880 0.499960 0.384200 -0.584202
O8    O     O_R   0.628220 0.500000 0.384200 -0.619418
Zn1   Zn    Zn3+2 0.346870 0.499980 0.499990 0.969767
Zn2   Zn    Zn3+2 0.653130 0.500020 0.500010 0.949744
S1    S     S_3+6 0.243262 0.122919 0.335751 0.012574
O9    O     O_2   0.092657 0.123459 0.327733 -0.278425
O10   O     O_2   0.298216 0.253466 0.323188 -0.323554
O11   O     O_3   0.319292 0.028501 0.264724 -0.521725
H22   H     H_    0.418082 0.044476 0.266303 0.357618

loop_
_geom_bond_atom_site_label_1
_geom_bond_atom_site_label_2
_ccdc_geom_bond_type
C10   C27   S    
C25   H10   S    
S1    O10   D    
O1    Zn1   S    
C22   N2    A    
C4    H11   S    
O6    Zn2   S    
C18   S1    S    
C5    H15   S    
C8    H20   S    
O7    Zn1   S    
C31   C32   A    
C30   C31   A    
O5    Zn1   S    
C12   O3    A    
N2    Zn1   S    
O8    Zn2   S    
C17   C18   S    
C5    C10   A    
N1    Zn2   S    
C21   C22   A    
O4    Zn2   S    
C24   N2    A    
C23   O5    A    
C11   C13   A    
C11   C19   S    
C29   C30   A    
C21   H8    S    
C27   O8    A    
C12   C28   S    
C5    C6    A    
C19   H7    S    
C25   H12   S    
C2    C32   A    
C28   C29   A    
C27   O7    A    
C18   H5    S    
S1    O9    D    
C16   C23   S    
C3    C7    A    
O11   H22   S    
C12   O4    A    
O3    Zn1   S    
C21   N1    A    
C30   H21   S    
C1    O1    A    
C32   H17   S    
C22   H9    S    
C1    C13   S    
C2    H19   S    
C26   H14   S    
C4    C10   A    
C15   C16   A    
S1    O11   S    
C29   H1    S    
C15   H4    S    
C23   O6    A    
C19   H6    S    
C24   C25   S    
C9    H16   S    
C20   N1    A    
C18   C19   S    
C6    H2    S    
C14   H3    S    
C7    C9    S    
C20   C24   A    
C14   C15   A    
C11   C17   A    
C2    C28   A    
C26   H13   S    
C25   C26   S    
C13   C14   A    
C8    C31   S    
C3    H18   S    
C6    C7    A    
C3    C4    A    
C16   C17   A    
O2    Zn2   S    
C8    C9    D    
C20   C26   S    
C1    O2    A    
