data_mof_unit_48956.cif
_audit_creation_date              2012-12-10T17:31:21-0500
_audit_creation_method            fapswitch 2.2
_symmetry_space_group_name_H-M    P1
_symmetry_Int_Tables_number       1
_space_group_crystal_system       monoclinic
_cell_length_a                    18.894205
_cell_length_b                    18.481308
_cell_length_c                    12.363531
_cell_angle_alpha                 90.0
_cell_angle_beta                  129.134
_cell_angle_gamma                 90.0
_cell_volume                      3348.74421098

loop_
_atom_site_label
_atom_site_type_symbol
_atom_type_description
_atom_site_fract_x
_atom_site_fract_y
_atom_site_fract_z
_atom_type_partial_charge
C1    C     C_R   0.611845 0.897321 0.651857 0.814552
C2    C     C_R   0.611845 0.102679 0.651857 0.814552
C3    C     C_R   0.111845 0.397321 0.651857 0.814552
C4    C     C_R   0.111845 0.602679 0.651857 0.814552
C5    C     C_R   0.244422 0.774391 0.041709 0.094179
C6    C     C_R   0.244422 0.225609 0.041709 0.094179
C7    C     C_R   0.744423 0.274389 0.041711 0.094179
C8    C     C_R   0.744422 0.725610 0.041710 0.094179
C9    C     C_R   0.662547 0.272430 0.024105 0.170780
C10   C     C_R   0.662546 0.727570 0.024104 0.170781
C11   C     C_R   0.162546 0.772431 0.024103 0.170781
C12   C     C_R   0.162546 0.227569 0.024103 0.170781
C13   C     C_R   0.585384 0.238891 0.907703 -0.236789
C14   C     C_R   0.585383 0.761109 0.907702 -0.236789
C15   C     C_R   0.085383 0.738892 0.907702 -0.236790
C16   C     C_R   0.085383 0.261109 0.907702 -0.236790
C17   C     C_R   0.588680 0.205819 0.810437 -0.174683
C18   C     C_R   0.588680 0.794181 0.810437 -0.174683
C19   C     C_R   0.088679 0.705819 0.810437 -0.174683
C20   C     C_R   0.088679 0.294181 0.810437 -0.174683
C21   C     C_R   0.319433 0.811144 0.157709 -0.256571
C22   C     C_R   0.319434 0.188856 0.157710 -0.256571
C23   C     C_R   0.819434 0.311143 0.157711 -0.256571
C24   C     C_R   0.819434 0.688856 0.157710 -0.256571
C25   C     C_R   0.231776 0.846206 0.230394 -0.213557
C26   C     C_R   0.231776 0.153794 0.230394 -0.213556
C27   C     C_R   0.731776 0.346206 0.230395 -0.213558
C28   C     C_R   0.731776 0.653794 0.230395 -0.213557
C29   C     C_R   0.676669 0.162274 0.737341 -0.210026
C30   C     C_R   0.676668 0.837725 0.737340 -0.210026
C31   C     C_R   0.176668 0.662275 0.737339 -0.210027
C32   C     C_R   0.176668 0.337725 0.737340 -0.210027
C33   C     C_R   0.685277 0.000000 0.286078 -0.335088
C34   C     C_R   0.185278 0.500000 0.286078 -0.335088
C35   C     C_R   0.342965 1.000000 0.627360 0.057681
C36   C     C_R   0.842965 0.500000 0.627360 0.057681
C37   C     C_R   0.308188 1.000000 0.698754 -0.265872
C38   C     C_R   0.808188 0.500000 0.698754 -0.265872
C39   C     C_R   0.384412 0.099135 0.343267 0.787493
C40   C     C_R   0.384412 0.900865 0.343267 0.787493
C41   C     C_R   0.884412 0.599135 0.343267 0.787493
C42   C     C_R   0.884413 0.400865 0.343267 0.787494
C43   C     C_R   0.367087 1.000000 0.844225 -0.187845
C44   C     C_R   0.867087 0.500000 0.844225 -0.187845
C45   C     C_R   0.462346 1.000000 0.921073 -0.007399
C46   C     C_R   0.962346 0.500000 0.921073 -0.007399
C47   C     C_R   0.494947 1.000000 0.842905 0.283073
C48   C     C_R   0.994947 0.500000 0.842905 0.283072
C49   C     C_R   0.526343 1.000000 0.071898 -0.040475
C50   C     C_R   0.026343 0.500000 0.071898 -0.040475
C51   C     C_R   0.620951 0.000000 0.140100 0.178749
C52   C     C_R   0.120951 0.500000 0.140100 0.178749
C53   C     C_R   0.651231 0.000000 0.062613 -0.266029
C54   C     C_R   0.151231 0.500000 0.062613 -0.266029
C55   C     C_R   0.589905 1.000000 0.917926 -0.169524
C56   C     C_R   0.089905 0.500000 0.917926 -0.169525
C57   C     C_R   0.501399 1.000000 0.159394 -0.000401
C58   C     C_R   0.001399 0.500000 0.159394 -0.000401
C59   C     C_R   0.656440 0.000000 0.365461 0.100006
C60   C     C_R   0.156440 0.500000 0.365461 0.100006
C61   C     C_R   0.657602 0.306844 0.120322 -0.206242
C62   C     C_R   0.657601 0.693155 0.120322 -0.206243
C63   C     C_R   0.157601 0.806845 0.120321 -0.206243
C64   C     C_R   0.157601 0.193155 0.120321 -0.206244
C65   C     C_R   0.311937 0.849902 0.246501 -0.043903
C66   C     C_R   0.311938 0.150098 0.246501 -0.043904
C67   C     C_R   0.811938 0.349901 0.246502 -0.043904
C68   C     C_R   0.811938 0.650098 0.246501 -0.043904
C69   C     C_R   0.749853 0.176166 0.736034 0.457344
C70   C     C_R   0.749852 0.823833 0.736032 0.457344
C71   C     C_R   0.249851 0.676168 0.736030 0.457343
C72   C     C_R   0.249851 0.323832 0.736031 0.457344
C73   C     C_R   0.324238 0.716716 0.843838 -0.250140
C74   C     C_R   0.324238 0.283285 0.843839 -0.250139
C75   C     C_R   0.824241 0.216711 0.843844 -0.250140
C76   C     C_R   0.824239 0.783286 0.843840 -0.250140
C77   C     C_R   0.324425 0.747323 0.946135 -0.261610
C78   C     C_R   0.324425 0.252678 0.946136 -0.261609
C79   C     C_R   0.824428 0.247318 0.946141 -0.261609
C80   C     C_R   0.824426 0.752679 0.946137 -0.261609
C81   C     C_R   0.747825 0.241229 0.941303 0.086281
C82   C     C_R   0.747824 0.758769 0.941301 0.086281
C83   C     C_R   0.247823 0.741231 0.941300 0.086281
C84   C     C_R   0.247823 0.258769 0.941301 0.086280
C85   C     C_R   0.670728 0.202109 0.829705 0.016547
C86   C     C_R   0.670727 0.797891 0.829704 0.016548
C87   C     C_R   0.170727 0.702110 0.829704 0.016548
C88   C     C_R   0.170727 0.297890 0.829704 0.016548
Cu1   Cu    Cu3+1 0.526340 0.000000 0.421010 0.966514
Cu2   Cu    Cu3+1 0.026340 0.500000 0.421010 0.966513
Cu3   Cu    Cu3+1 0.473640 1.000000 0.578990 0.908308
Cu4   Cu    Cu3+1 0.973640 0.500000 0.578990 0.908307
H1    H     H_    0.225204 0.875933 0.299161 0.147281
H2    H     H_    0.225204 0.124067 0.299161 0.147281
H3    H     H_    0.725204 0.375933 0.299161 0.147281
H4    H     H_    0.725204 0.624067 0.299161 0.147281
H5    H     H_    0.723679 0.000000 0.114628 0.152664
H6    H     H_    0.223679 0.500000 0.114628 0.152664
H7    H     H_    0.757785 0.000000 0.338789 0.142506
H8    H     H_    0.257785 0.500000 0.338789 0.142506
H9    H     H_    0.430906 1.000000 0.116067 0.130005
H10   H     H_    0.930906 0.500000 0.116067 0.130005
H11   H     H_    0.296460 1.000000 0.514568 0.120905
H12   H     H_    0.796460 0.500000 0.514568 0.120905
H13   H     H_    0.336379 1.000000 0.893864 0.139385
H14   H     H_    0.836379 0.500000 0.893864 0.139385
H15   H     H_    0.235102 1.000000 0.640945 0.143355
H16   H     H_    0.735102 0.500000 0.640945 0.143355
H17   H     H_    0.620362 1.000000 0.869014 0.209132
H18   H     H_    0.120362 0.500000 0.869014 0.209132
H19   H     H_    0.521497 0.239445 0.890087 0.131599
H20   H     H_    0.521496 0.760555 0.890087 0.131599
H21   H     H_    0.021496 0.739445 0.890087 0.131598
H22   H     H_    0.021496 0.260555 0.890087 0.131598
H23   H     H_    0.595260 0.305568 0.107349 0.136623
H24   H     H_    0.595260 0.694431 0.107348 0.136623
H25   H     H_    0.095260 0.805569 0.107348 0.136623
H26   H     H_    0.095260 0.194431 0.107348 0.136623
H27   H     H_    0.384567 0.812368 0.180539 0.144833
H28   H     H_    0.384567 0.187632 0.180540 0.144833
H29   H     H_    0.884568 0.312368 0.180541 0.144833
H30   H     H_    0.884567 0.687632 0.180540 0.144833
H31   H     H_    0.384698 0.777790 0.024024 0.149413
H32   H     H_    0.384698 0.222211 0.024025 0.149413
H33   H     H_    0.884702 0.277783 0.024033 0.149412
H34   H     H_    0.884700 0.722213 0.024028 0.149412
H35   H     H_    0.383463 0.723804 0.849903 0.136696
H36   H     H_    0.383464 0.276197 0.849904 0.136696
H37   H     H_    0.883467 0.223798 0.849911 0.136696
H38   H     H_    0.883465 0.776198 0.849906 0.136696
H39   H     H_    0.524685 0.186020 0.717097 0.171099
H40   H     H_    0.524685 0.813980 0.717097 0.171099
H41   H     H_    0.024684 0.686020 0.717097 0.171099
H42   H     H_    0.024684 0.313980 0.717097 0.171099
H43   H     H_    0.706163 0.000000 0.478087 0.186776
H44   H     H_    0.206163 0.500000 0.478087 0.186776
N1    N     N_R   0.566260 1.000000 0.302220 -0.186314
N2    N     N_R   0.066260 0.500000 0.302220 -0.186314
N3    N     N_R   0.434410 1.000000 0.697680 -0.204574
N4    N     N_R   0.934410 0.500000 0.697680 -0.204574
O1    O     O_R   0.608610 0.924520 0.551740 -0.522058
O2    O     O_R   0.608610 0.075480 0.551740 -0.522058
O3    O     O_R   0.108610 0.424520 0.551740 -0.522058
O4    O     O_R   0.108610 0.575480 0.551740 -0.522058
O5    O     O_R   0.564110 0.924510 0.685150 -0.611257
O6    O     O_R   0.564110 0.075490 0.685150 -0.611257
O7    O     O_R   0.064110 0.424510 0.685150 -0.611258
O8    O     O_R   0.064110 0.575490 0.685150 -0.611257
O9    O     O_R   0.435880 0.075470 0.314850 -0.588698
O10   O     O_R   0.435880 0.924530 0.314850 -0.588698
O11   O     O_R   0.935880 0.575470 0.314850 -0.588698
O12   O     O_R   0.935880 0.424530 0.314850 -0.588698
O13   O     O_R   0.391380 0.075460 0.448260 -0.597180
O14   O     O_R   0.391380 0.924540 0.448260 -0.597180
O15   O     O_R   0.891380 0.575460 0.448260 -0.597180
O16   O     O_R   0.891380 0.424540 0.448260 -0.597180
O17   O     O_3   0.750658 0.146891 0.633468 -0.567881
C89   C     C_3   0.752763 0.203542 0.558314 0.062414
H45   H     H_    0.822249 0.227485 0.620313 0.139899
H46   H     H_    0.702407 0.246926 0.529314 0.132725
C90   C     C_3   0.729113 0.173800 0.424492 -0.775905
H47   H     H_    0.658135 0.152817 0.355903 0.252149
H48   H     H_    0.734563 0.217428 0.368527 0.211040
H49   H     H_    0.777351 0.129900 0.449044 0.245786
O18   O     O_3   0.750657 0.853108 0.633466 -0.567881
C91   C     C_3   0.752760 0.796457 0.558311 0.062415
H50   H     H_    0.702405 0.753074 0.529311 0.132725
H51   H     H_    0.822246 0.772513 0.620308 0.139900
C92   C     C_3   0.729110 0.826200 0.424489 -0.775907
H52   H     H_    0.777349 0.870099 0.449041 0.245787
H53   H     H_    0.734559 0.782572 0.368523 0.211040
H54   H     H_    0.658133 0.847183 0.355901 0.252150
O19   O     O_3   0.250656 0.646892 0.633465 -0.567881
C93   C     C_3   0.252758 0.703544 0.558307 0.062413
H55   H     H_    0.322243 0.727488 0.620304 0.139900
H56   H     H_    0.202401 0.746926 0.529307 0.132725
C94   C     C_3   0.229108 0.673800 0.424486 -0.775906
H57   H     H_    0.158131 0.652816 0.355899 0.252150
H58   H     H_    0.234556 0.717428 0.368519 0.211040
H59   H     H_    0.277347 0.629902 0.449039 0.245787
O20   O     O_3   0.250656 0.353108 0.633466 -0.567881
C95   C     C_3   0.252758 0.296456 0.558308 0.062414
H60   H     H_    0.202402 0.253074 0.529308 0.132725
H61   H     H_    0.322244 0.272512 0.620305 0.139900
C96   C     C_3   0.229108 0.326200 0.424487 -0.775906
H62   H     H_    0.277348 0.370098 0.449039 0.245787
H63   H     H_    0.234557 0.282572 0.368520 0.211040
H64   H     H_    0.158131 0.347184 0.355900 0.252150

loop_
_geom_bond_atom_site_label_1
_geom_bond_atom_site_label_2
_ccdc_geom_bond_type
C28   H4    S    
C26   H2    S    
C91   H51   S    
C3    O7    A    
O17   C89   S    
C17   H39   S    
C8    C82   A    
C92   H52   S    
C14   C18   A    
C53   C55   A    
C27   H3    S    
C25   C63   A    
C90   H47   S    
C64   H26   S    
C23   H29   S    
O19   C93   S    
C15   C19   A    
O18   C91   S    
C39   O13   A    
C2    C29   S    
C9    C61   A    
C28   C68   A    
C72   O20   S    
C37   H15   S    
C35   H11   S    
C6    C12   A    
C63   H25   S    
Cu1   O1    S    
C96   H63   S    
Cu4   O8    S    
C59   N1    A    
Cu1   O2    S    
C6    C22   A    
C49   C57   A    
C48   C56   A    
C43   H13   S    
C23   C67   A    
Cu3   O13   S    
C9    C13   A    
C95   H60   S    
C22   C66   A    
C26   C64   A    
C27   C61   A    
C89   C90   S    
C35   N3    A    
C93   H55   S    
C11   C15   A    
C89   H46   S    
C1    O1    A    
C74   H36   S    
C12   C16   A    
C44   C46   A    
C94   H58   S    
C32   C72   A    
C18   H40   S    
C61   H23   S    
C50   C52   A    
C15   H21   S    
C58   H10   S    
C30   C86   A    
C78   H32   S    
C60   H44   S    
C29   C85   A    
Cu2   O3    S    
C81   C85   A    
C21   C65   A    
C58   N2    A    
C31   C71   A    
C79   H33   S    
C20   H42   S    
C33   C59   A    
C55   H17   S    
Cu4   O7    S    
C34   C60   A    
C92   H53   S    
C40   O14   A    
C91   H50   S    
C10   C62   A    
C76   H38   S    
C56   H18   S    
C90   H48   S    
C52   C54   A    
C41   C68   S    
C29   C69   A    
C45   C47   A    
Cu2   Cu4   S    
C54   C56   A    
Cu1   O9    S    
C31   C87   A    
C28   C62   A    
C48   N4    A    
C57   N1    A    
C26   C66   A    
C84   C88   A    
C3    O3    A    
Cu3   O14   S    
C72   C74   A    
C10   C14   A    
C70   O18   S    
C71   C73   A    
C96   H64   S    
C49   C51   A    
O20   C95   S    
C42   O16   A    
C71   O19   S    
C33   H7    S    
C95   C96   S    
C50   C58   A    
Cu2   N2    S    
C14   H20   S    
C34   H8    S    
C38   C44   A    
C6    C84   A    
C77   H31   S    
C43   C45   A    
C69   O17   S    
C45   C49   A    
C25   H1    S    
C16   C20   A    
C94   H59   S    
C24   H30   S    
C40   O10   A    
Cu4   O16   S    
C93   H56   S    
C18   C86   A    
C36   N4    A    
C93   C94   S    
C83   C87   A    
Cu3   N3    S    
C19   H41   S    
Cu2   O12   S    
Cu1   O10   S    
C7    C81   A    
C94   H57   S    
Cu1   N1    S    
C40   C65   S    
C70   C76   A    
C42   C67   S    
C2    O2    A    
C39   C66   S    
C17   C85   A    
C37   C43   A    
C32   C88   A    
C33   C51   A    
C1    O5    A    
Cu4   N4    S    
Cu3   O5    S    
C90   H49   S    
C42   O12   A    
C47   C55   A    
C7    C9    A    
C12   C64   A    
C46   C50   A    
C73   C77   A    
C35   C37   A    
C34   C52   A    
C8    C10   A    
C76   C80   A    
Cu2   O11   S    
C16   H22   S    
C22   H28   S    
C4    O4    A    
C5    C83   A    
C5    C11   A    
C41   O11   A    
C44   H14   S    
C2    O6    A    
C57   H9    S    
C39   O9    A    
C79   C81   A    
C13   C17   A    
C36   H12   S    
C53   H5    S    
C36   C38   A    
C19   C87   A    
C13   H19   S    
C73   H35   S    
C82   C86   A    
C96   H62   S    
C89   H45   S    
C80   H34   S    
C7    C23   A    
C20   C88   A    
C59   H43   S    
C1    C30   S    
C8    C24   A    
C80   C82   A    
C69   C75   A    
Cu4   O15   S    
C38   H16   S    
C3    C32   S    
C95   H61   S    
C4    C31   S    
C27   C67   A    
C62   H24   S    
C24   C68   A    
C46   C48   A    
C78   C84   A    
C30   C70   A    
C5    C21   A    
C91   C92   S    
C21   H27   S    
Cu1   Cu3   S    
C74   C78   A    
C47   N3    A    
C25   C65   A    
C77   C83   A    
C54   H6    S    
C92   H54   S    
C51   C53   A    
C11   C63   A    
C75   C79   A    
Cu3   O6    S    
Cu2   O4    S    
C75   H37   S    
C60   N2    A    
C41   O15   A    
C4    O8    A    
