data_mof_unit_67223.cif
_audit_creation_date              2013-03-05T16:01:25-0500
_audit_creation_method            fapswitch 2.2
_symmetry_space_group_name_H-M    P1
_symmetry_Int_Tables_number       1
_space_group_crystal_system       triclinic
_cell_length_a                    20.086135
_cell_length_b                    19.960501
_cell_length_c                    8.357427
_cell_angle_alpha                 90.00104
_cell_angle_beta                  91.813462
_cell_angle_gamma                 89.972559
_cell_volume                      3349.05891308

loop_
_atom_site_label
_atom_site_type_symbol
_atom_site_description
_atom_site_fract_x
_atom_site_fract_y
_atom_site_fract_z
_atom_type_partial_charge
P1    P     P_3+3 0.136530 0.426510 0.931350 0.474019
P2    P     P_3+3 0.136530 0.573490 0.431350 0.474191
P3    P     P_3+3 0.636530 0.926510 0.931350 0.474367
P4    P     P_3+3 0.636530 0.073490 0.431350 0.474786
O1    O     O_2   0.130070 0.404060 0.104920 -0.369330
O2    O     O_2   0.130070 0.595940 0.604920 -0.369415
O3    O     O_2   0.630070 0.904060 0.104920 -0.369689
O4    O     O_2   0.630070 0.095940 0.604920 -0.367672
O5    O     O_3   0.075780 0.466370 0.861070 -0.382918
O6    O     O_3   0.075780 0.533630 0.361070 -0.383016
O7    O     O_3   0.575780 0.966370 0.861070 -0.381725
O8    O     O_3   0.575780 0.033630 0.361070 -0.383196
O9    O     O_3   0.022320 0.344950 0.359800 -0.387217
O10   O     O_3   0.022320 0.655050 0.859800 -0.390788
O11   O     O_3   0.522320 0.844950 0.359800 -0.385595
O12   O     O_3   0.522320 0.155050 0.859800 -0.389005
O13   O     O_2   0.132788 0.290693 0.252820 -0.355093
O14   O     O_2   0.133314 0.708336 0.754362 -0.337161
O15   O     O_2   0.633495 0.791817 0.254694 -0.358469
O16   O     O_2   0.633392 0.208280 0.753804 -0.339286
O17   O     O_3   0.210246 0.472849 0.931193 -0.598177
O18   O     O_3   0.210348 0.527212 0.431398 -0.597527
O19   O     O_3   0.710283 0.972779 0.930495 -0.597068
O20   O     O_3   0.710295 0.027166 0.431375 -0.599159
O21   O     O_3   0.041537 0.204707 0.331122 -0.514237
O22   O     O_3   0.042204 0.795169 0.827518 -0.505773
O23   O     O_3   0.542452 0.705069 0.327701 -0.518791
O24   O     O_3   0.542037 0.294796 0.827698 -0.511721
H1    H     H_    0.943227 0.235587 0.316898 0.160880
H2    H     H_    0.944530 0.761875 0.827026 0.154260
H3    H     H_    0.444912 0.738935 0.328548 0.152680
H4    H     H_    0.444473 0.260984 0.821066 0.160943
C1    C     C_3   0.951410 0.132973 0.396152 -0.691765
C2    C     C_3   0.950649 0.867482 0.877236 -0.674139
C3    C     C_3   0.450681 0.632985 0.373839 -0.620226
C4    C     C_3   0.449828 0.365951 0.878481 -0.655137
H5    H     H_    0.947862 0.112541 0.272471 0.295439
H6    H     H_    0.901719 0.870318 0.935156 0.213611
H7    H     H_    0.442991 0.620831 0.245015 0.283792
H8    H     H_    0.442443 0.380428 0.751082 0.285828
H9    H     H_    0.985635 0.100964 0.470004 0.276348
H10   H     H_    0.944143 0.881250 0.748971 0.283352
H11   H     H_    0.485942 0.596043 0.428186 0.294795
H12   H     H_    0.484946 0.401808 0.937380 0.288139
P5    P     P_3+3 0.863410 0.426100 0.379280 0.479009
P6    P     P_3+3 0.863410 0.573900 0.879280 0.483147
P7    P     P_3+3 0.363410 0.926100 0.379280 0.478165
P8    P     P_3+3 0.363410 0.073900 0.879280 0.482490
P9    P     P_3+3 0.918562 0.280997 0.929252 0.499318
P10   P     P_3+3 0.917998 0.718560 0.429335 0.503285
P11   P     P_3+3 0.419079 0.780628 0.929125 0.495631
P12   P     P_3+3 0.417191 0.217859 0.429254 0.500052
O25   O     O_2   0.869860 0.403670 0.205810 -0.386709
O26   O     O_2   0.869860 0.596330 0.705810 -0.377303
O27   O     O_2   0.369860 0.903670 0.205810 -0.388634
O28   O     O_2   0.369860 0.096330 0.705810 -0.374227
O29   O     O_3   0.977590 0.344880 0.951200 -0.389994
O30   O     O_3   0.977590 0.655120 0.451200 -0.391771
O31   O     O_3   0.477590 0.844880 0.951200 -0.392152
O32   O     O_3   0.477590 0.155120 0.451200 -0.386293
O33   O     O_2   0.866168 0.292688 0.057968 -0.348672
O34   O     O_2   0.865844 0.707162 0.558731 -0.342424
O35   O     O_2   0.367070 0.791556 0.059181 -0.345448
O36   O     O_2   0.363577 0.204005 0.553587 -0.345257
O37   O     O_3   0.793172 0.478256 0.372232 -0.536500
O38   O     O_3   0.793529 0.521431 0.868882 -0.518229
O39   O     O_3   0.293356 0.978552 0.372133 -0.539024
O40   O     O_3   0.293593 0.021265 0.868668 -0.519208
O41   O     O_3   0.956165 0.205024 0.984546 -0.464793
O42   O     O_3   0.954978 0.795070 0.481799 -0.474176
O43   O     O_3   0.457790 0.704992 0.982537 -0.481761
O44   O     O_3   0.451769 0.294247 0.490854 -0.480295
C5    C     C_3   0.017312 0.200180 0.907882 0.190081
C6    C     C_3   0.017728 0.798360 0.412300 0.206543
C7    C     C_3   0.520935 0.703461 0.914519 0.193885
C8    C     C_3   0.511409 0.304081 0.410690 0.182633
H13   H     H_    0.052553 0.238932 0.955402 0.098969
H14   H     H_    0.052931 0.763686 0.475942 0.118797
H15   H     H_    0.553684 0.742759 0.968974 0.107218
H16   H     H_    0.550382 0.269030 0.457934 0.106653
H17   H     H_    0.010538 0.206408 0.776312 0.014181
H18   H     H_    0.014923 0.785002 0.283288 0.002625
H19   H     H_    0.516934 0.711167 0.783080 0.028506
H20   H     H_    0.504398 0.296364 0.279770 0.028390
C9    C     C_3   0.048464 0.131477 0.940467 0.003318
C10   C     C_3   0.045326 0.869427 0.427952 0.004356
C11   C     C_3   0.553836 0.635676 0.947245 -0.009553
C12   C     C_3   0.535383 0.375813 0.438882 0.020892
H21   H     H_    0.055883 0.123665 0.071539 0.195628
H22   H     H_    0.047658 0.884703 0.555881 0.197954
H23   H     H_    0.565016 0.630541 0.077683 0.193139
H24   H     H_    0.549064 0.382404 0.567828 0.192165
C13   C     C_3   0.812009 0.456388 0.825930 0.257258
C14   C     C_3   0.810251 0.542380 0.319444 0.254400
C15   C     C_3   0.312384 0.955845 0.829288 0.257047
C16   C     C_3   0.310722 0.042551 0.318853 0.255817
H25   H     H_    0.828804 0.456352 0.701252 0.079397
H26   H     H_    0.823088 0.539992 0.191975 0.091000
H27   H     H_    0.327342 0.954435 0.703199 0.078207
H28   H     H_    0.322709 0.040055 0.190885 0.090015
H29   H     H_    0.852229 0.436641 0.906969 0.103851
H30   H     H_    0.852724 0.563566 0.391204 0.097293
H31   H     H_    0.353930 0.937416 0.908133 0.106140
H32   H     H_    0.353830 0.063355 0.389005 0.099530
C17   C     C_3   0.751864 0.410174 0.840683 -0.109029
C18   C     C_3   0.750699 0.588983 0.339371 -0.094547
C19   C     C_3   0.253348 0.909011 0.852898 -0.114458
C20   C     C_3   0.251912 0.089874 0.341137 -0.100916
H33   H     H_    0.768260 0.357209 0.831382 0.092863
H34   H     H_    0.762908 0.640194 0.298054 0.071553
H35   H     H_    0.270737 0.856226 0.849595 0.097234
H36   H     H_    0.264566 0.140987 0.300010 0.075999
H37   H     H_    0.730039 0.416774 0.960246 0.144548
H38   H     H_    0.739544 0.591965 0.468608 0.138339
H39   H     H_    0.232321 0.917909 0.972480 0.148797
H40   H     H_    0.241503 0.092775 0.470787 0.138212
Ba1   Ba    Ba6+2 0.999980 0.452130 0.155200 1.574361
Ba2   Ba    Ba6+2 0.999980 0.547870 0.655200 1.578077
Ba3   Ba    Ba6+2 0.499980 0.952130 0.155200 1.573101
Ba4   Ba    Ba6+2 0.499980 0.047870 0.655200 1.578241
C21   C     C_3   0.203615 0.535900 0.000609 0.160365
C22   C     C_3   0.203676 0.463915 0.499490 0.149835
C23   C     C_3   0.704188 0.035476 0.002105 0.142726
C24   C     C_3   0.703636 0.963977 0.500010 0.147856
H41   H     H_    0.181058 0.532212 0.119479 0.111295
H42   H     H_    0.181544 0.467320 0.618914 0.112915
H43   H     H_    0.682028 0.031226 0.121323 0.114720
H44   H     H_    0.681581 0.967559 0.619476 0.115004
H45   H     H_    0.172872 0.568728 0.920240 0.138767
H46   H     H_    0.172551 0.431501 0.419022 0.140249
H47   H     H_    0.673354 0.068903 0.923319 0.138868
H48   H     H_    0.672479 0.931437 0.419904 0.140312
C25   C     C_3   0.274469 0.563571 0.019726 -0.098729
C26   C     C_3   0.274469 0.435825 0.516632 -0.088228
C27   C     C_3   0.775258 0.062667 0.020679 -0.078398
C28   C     C_3   0.774427 0.935954 0.517071 -0.086863
H49   H     H_    0.302614 0.533450 0.111199 0.160543
H50   H     H_    0.303280 0.465960 0.606911 0.161345
H51   H     H_    0.803688 0.031605 0.109883 0.158712
H52   H     H_    0.803413 0.966479 0.606263 0.154663
H53   H     H_    0.300229 0.558492 0.904471 0.149377
H54   H     H_    0.299596 0.440516 0.400400 0.156356
H55   H     H_    0.800378 0.058447 0.904336 0.155059
H56   H     H_    0.799243 0.940150 0.400358 0.158641
O45   O     O_3   0.924190 0.533610 0.949240 -0.402051
O46   O     O_3   0.924190 0.466390 0.449240 -0.396521
O47   O     O_3   0.424190 0.033610 0.949240 -0.403516
O48   O     O_3   0.424190 0.966390 0.449240 -0.395627
P13   P     P_3+3 0.080504 0.719512 0.882344 0.499359
P14   P     P_3+3 0.080420 0.280429 0.382295 0.488144
P15   P     P_3+3 0.580668 0.219319 0.882049 0.497150
P16   P     P_3+3 0.580621 0.780652 0.382484 0.482957
C29   C     C_3   0.977379 0.204562 0.393685 0.378079
C30   C     C_3   0.978606 0.796902 0.892896 0.359225
C31   C     C_3   0.478856 0.703272 0.392882 0.343115
C32   C     C_3   0.477945 0.295408 0.890476 0.346957
H57   H     H_    0.977296 0.224047 0.518236 0.006070
H58   H     H_    0.980483 0.783582 0.021934 0.015830
H59   H     H_    0.480884 0.715578 0.522496 0.024542
H60   H     H_    0.478941 0.280506 0.018437 0.017757
H61   H     H_    0.901346 0.131900 0.448707 0.208202
H62   H     H_    0.985237 0.903777 0.936425 0.286494
H63   H     H_    0.402340 0.629401 0.434242 0.208108
H64   H     H_    0.401276 0.368385 0.938198 0.218971
H65   H     H_    0.098213 0.129983 0.885647 0.103906
H66   H     H_    0.096832 0.869944 0.382896 0.114550
H67   H     H_    0.601712 0.632931 0.884443 0.099425
H68   H     H_    0.580469 0.385233 0.368468 0.112677
C33   C     C_R   0.241494 0.306149 0.002203 -0.046149
C34   C     C_R   0.241651 0.693808 0.502608 -0.038456
C35   C     C_R   0.741235 0.805941 0.002876 -0.045614
C36   C     C_R   0.741581 0.193850 0.502497 -0.042976
C37   C     C_R   0.147374 0.345620 0.824386 0.259355
C38   C     C_R   0.147375 0.654513 0.324789 0.255917
C39   C     C_R   0.647266 0.845540 0.824710 0.257867
C40   C     C_R   0.647376 0.154492 0.324657 0.259947
C41   C     C_R   0.109450 0.336200 0.682964 -0.512794
C42   C     C_R   0.109327 0.664099 0.183575 -0.512292
C43   C     C_R   0.609297 0.836091 0.683412 -0.514216
C44   C     C_R   0.609307 0.164068 0.183479 -0.509986
C45   C     C_R   0.119808 0.280962 0.584572 0.277492
C46   C     C_R   0.119776 0.719239 0.084932 0.273224
C47   C     C_R   0.619609 0.780833 0.585100 0.277465
C48   C     C_R   0.619812 0.219155 0.084705 0.270048
C49   C     C_R   0.164175 0.230520 0.634357 -0.215012
C50   C     C_R   0.164546 0.769393 0.134201 -0.217569
C51   C     C_R   0.664070 0.730442 0.634696 -0.211892
C52   C     C_R   0.664620 0.269294 0.133803 -0.222074
C53   C     C_R   0.203583 0.238316 0.775530 0.064069
C54   C     C_R   0.204027 0.761497 0.275326 0.074287
C55   C     C_R   0.703488 0.738232 0.775862 0.061099
C56   C     C_R   0.704137 0.261394 0.274846 0.082039
C57   C     C_R   0.196855 0.297038 0.869961 0.013620
C58   C     C_R   0.197035 0.702944 0.370209 0.018650
C59   C     C_R   0.696702 0.796915 0.870399 0.011532
C60   C     C_R   0.697078 0.202900 0.369901 0.019700
H69   H     H_    0.074552 0.374549 0.643507 0.174230
H70   H     H_    0.074291 0.625873 0.144328 0.173983
H71   H     H_    0.574445 0.874470 0.643881 0.174679
H72   H     H_    0.574257 0.125843 0.144298 0.173731
C61   C     C_R   0.797244 0.699421 0.948678 0.003903
C62   C     C_R   0.798121 0.299973 0.447420 0.025641
C63   C     C_R   0.297441 0.199589 0.948071 0.002289
C64   C     C_R   0.298050 0.800040 0.447860 0.028383
C65   C     C_R   0.790271 0.757851 0.043390 0.028805
C66   C     C_R   0.790838 0.241745 0.542715 0.046858
C67   C     C_R   0.290635 0.258135 0.042466 0.029556
C68   C     C_R   0.290963 0.741674 0.542783 0.051029
C69   C     C_R   0.848999 0.652779 0.990171 0.251690
C70   C     C_R   0.849669 0.346765 0.489423 0.249324
C71   C     C_R   0.349167 0.152921 0.989569 0.249464
C72   C     C_R   0.349629 0.846810 0.489736 0.248992
C73   C     C_R   0.888357 0.663153 0.128904 -0.555692
C74   C     C_R   0.889057 0.336247 0.628183 -0.548553
C75   C     C_R   0.388769 0.163458 0.127744 -0.551431
C76   C     C_R   0.389165 0.836193 0.628286 -0.549854
C77   C     C_R   0.877116 0.717473 0.228922 0.225095
C78   C     C_R   0.877764 0.281950 0.728399 0.219333
C79   C     C_R   0.377716 0.217893 0.227436 0.217905
C80   C     C_R   0.378050 0.781774 0.728315 0.218536
C81   C     C_R   0.831338 0.766790 0.181270 -0.236028
C82   C     C_R   0.831685 0.232881 0.681075 -0.245161
C83   C     C_R   0.331885 0.267185 0.179987 -0.230193
C84   C     C_R   0.332074 0.732643 0.680701 -0.235181
C85   C     C_R   0.752522 0.690026 0.816807 -0.056547
C86   C     C_R   0.753530 0.309289 0.315112 -0.031305
C87   C     C_R   0.252570 0.190082 0.816565 -0.053034
C88   C     C_R   0.253333 0.809454 0.315837 -0.040975
H73   H     H_    0.171055 0.187564 0.557489 0.154452
H74   H     H_    0.171689 0.812181 0.056962 0.150693
H75   H     H_    0.671023 0.687548 0.557676 0.152991
H76   H     H_    0.671859 0.312005 0.056359 0.145307
H77   H     H_    0.826878 0.811276 0.253604 0.201830
H78   H     H_    0.826799 0.188635 0.754040 0.198373
H79   H     H_    0.327399 0.311623 0.252480 0.200061
H80   H     H_    0.327500 0.688206 0.753127 0.195670
H81   H     H_    0.925341 0.626226 0.164953 0.179023
H82   H     H_    0.926058 0.373120 0.664232 0.178116
H83   H     H_    0.425615 0.126428 0.164031 0.178281
H84   H     H_    0.426167 0.873071 0.664290 0.178759
H85   H     H_    0.239218 0.350753 0.074949 0.163288
H86   H     H_    0.239161 0.649319 0.575680 0.159564
H87   H     H_    0.738947 0.850528 0.075669 0.162924
H88   H     H_    0.739017 0.149429 0.575780 0.159537
H89   H     H_    0.755801 0.645760 0.743121 0.157019
H90   H     H_    0.756968 0.353388 0.240875 0.143560
H91   H     H_    0.255730 0.145720 0.743189 0.156749
H92   H     H_    0.256692 0.853625 0.241851 0.142719
N1    N     N_R   0.701338 0.424418 0.716003 0.280836
O49   O     O_R   0.670995 0.482039 0.711755 -0.292864
O50   O     O_R   0.682889 0.377734 0.615539 -0.423380
N2    N     N_R   0.692420 0.564493 0.248650 0.278229
O51   O     O_R   0.692534 0.562515 0.093132 -0.388714
O52   O     O_R   0.638963 0.547332 0.322412 -0.317416
N3    N     N_R   0.201645 0.919449 0.728968 0.279135
O53   O     O_R   0.170678 0.976579 0.717293 -0.276315
O54   O     O_R   0.182825 0.869942 0.637208 -0.421110
N4    N     N_R   0.192842 0.066412 0.251931 0.280759
O55   O     O_R   0.192120 0.064601 0.096330 -0.382839
O56   O     O_R   0.139274 0.050889 0.327152 -0.297994
N5    N     N_R   0.274994 0.633726 0.065437 0.234795
O57   O     O_R   0.312528 0.653286 0.185996 -0.404389
O58   O     O_R   0.250064 0.678075 0.967024 -0.427567
N6    N     N_R   0.274868 0.365759 0.563236 0.235785
O59   O     O_R   0.249588 0.321309 0.465642 -0.429220
O60   O     O_R   0.312494 0.346290 0.683770 -0.396493
N7    N     N_R   0.776433 0.132430 0.069868 0.237183
O61   O     O_R   0.814489 0.150704 0.190769 -0.396685
O62   O     O_R   0.751746 0.177772 0.973693 -0.429241
N8    N     N_R   0.774955 0.866101 0.565403 0.238148
O63   O     O_R   0.749970 0.821182 0.468653 -0.427992
O64   O     O_R   0.812514 0.847243 0.686616 -0.395913
N9    N     N_R   0.006459 0.078005 0.873338 0.276256
O65   O     O_R   0.028317 0.039937 0.759968 -0.334743
O66   O     O_R   0.949250 0.064636 0.935021 -0.354795
N10   N     N_R   0.004040 0.916915 0.336269 0.267967
O67   O     O_R   0.029315 0.950638 0.219663 -0.330583
O68   O     O_R   0.943726 0.930120 0.379251 -0.367480
N11   N     N_R   0.510553 0.581085 0.892599 0.293372
O69   O     O_R   0.495811 0.573809 0.740968 -0.360703
O70   O     O_R   0.487787 0.538390 0.994970 -0.324554
N12   N     N_R   0.483469 0.423743 0.391611 0.284786
O71   O     O_R   0.462162 0.427350 0.243315 -0.384868
O72   O     O_R   0.458193 0.463230 0.497574 -0.347324

loop_
_geom_bond_atom_site_label_1
_geom_bond_atom_site_label_2
_geom_bond_distance
_ccdc_geom_bond_type
C71   C75   1.397332 A    
N3    O54   1.299812 A    
C67   C83   1.407109 A    
O23   P16   1.747114 S    
C53   C57   1.421808 A    
C11   H23   1.110764 S    
C76   H84   1.082189 S    
P1    O17   1.746248 S    
P3    O19   1.746300 S    
O13   P14   1.546457 D    
C10   H66   1.112150 S    
O20   C24   1.393847 S    
C25   H49   1.112574 S    
P4    O4    1.527648 D    
C8    H20   1.109503 S    
C63   C87   1.411986 A    
P2    Ba2   3.407391 S    
C37   C57   1.431224 A    
P15   C48   1.844588 S    
P8    Ba4   3.409658 S    
P2    O2    1.527648 D    
O24   P15   1.747786 S    
C61   C85   1.412164 A    
C1    H61   1.110210 S    
C65   C81   1.407152 A    
C47   C51   1.398847 A    
C24   H48   1.111559 S    
N12   O71   1.300301 A    
C7    H15   1.112042 S    
C43   H71   1.082083 S    
C18   H38   1.111600 S    
P1    O1    1.527700 D    
C56   C60   1.421879 A    
N2    O52   1.300975 A    
C74   H82   1.082204 S    
C3    C31   1.519533 S    
O9    P14   1.743719 S    
P6    O38   1.751648 S    
O25   Ba1   2.831587 S    
P3    O3    1.527700 D    
C14   C18   1.528196 S    
O12   Ba4   2.766646 S    
C29   H57   1.111252 S    
C18   H34   1.108990 S    
N5    O57   1.299311 A    
P4    O20   1.746132 S    
C15   H27   1.105233 S    
O9    Ba1   2.766361 S    
C17   N1    1.459243 S    
P6    O45   1.559791 S    
C14   H26   1.104997 S    
Ba3   O47   2.785198 S    
P8    O47   1.559791 S    
O30   Ba2   2.764516 S    
N8    O64   1.299405 A    
P9    O29   1.747304 S    
P6    Ba2   3.409658 S    
C25   N5    1.451449 S    
Ba1   O45   2.785198 S    
C46   C50   1.399234 A    
P4    C40   1.862638 S    
C18   N2    1.458939 S    
C5    H13   1.113477 S    
C22   C26   1.530738 S    
C17   H33   1.110614 S    
P12   O32   1.748761 S    
C13   C17   1.528424 S    
C21   H41   1.107322 S    
H4    C32   1.111937 S    
P5    O37   1.752435 S    
C20   N4    1.458583 S    
C9    H21   1.111811 S    
C11   H67   1.111372 S    
C72   C76   1.399281 A    
O11   Ba3   2.766361 S    
N6    O59   1.297886 A    
C12   H68   1.111598 S    
C2    H10   1.110318 S    
O42   C6    1.405969 S    
P9    C78   1.844600 S    
C26   N6    1.451737 S    
N11   O69   1.300371 A    
O41   C5    1.406418 S    
N9    O66   1.302000 A    
C37   C41   1.398469 A    
C35   C65   1.408602 A    
O14   P13   1.546143 D    
C3    H11   1.109409 S    
C38   C42   1.398678 A    
C51   C55   1.408528 A    
C4    H12   1.109340 S    
C28   H52   1.112978 S    
C24   H44   1.107325 S    
C81   H77   1.079486 S    
P9    O41   1.749423 S    
C56   C86   1.411124 A    
C26   H50   1.112944 S    
C42   H70   1.082072 S    
P7    O27   1.526713 D    
P5    O25   1.526713 D    
C55   C85   1.410940 A    
C41   H69   1.082071 S    
P7    C72   1.857497 S    
C15   C19   1.528023 S    
C27   N7    1.451911 S    
O5    Ba2   2.785087 S    
O28   Ba4   2.830730 S    
C79   C83   1.395985 A    
C63   C71   1.429583 A    
C53   C87   1.410825 A    
P11   O43   1.749304 S    
C64   C72   1.430131 A    
C62   C70   1.430225 A    
O7    Ba4   2.785087 S    
P7    O39   1.752988 S    
O11   P16   1.743257 S    
N5    O58   1.297852 A    
C15   H31   1.109419 S    
C64   C88   1.413019 A    
C86   H90   1.080415 S    
P14   C45   1.843697 S    
C43   C47   1.394661 A    
C2    C30   1.520473 S    
O23   C31   1.404943 S    
C61   C69   1.429679 A    
C4    H64   1.110520 S    
N1    O50   1.300478 A    
O40   C15   1.401187 S    
P9    O33   1.546150 D    
C24   C28   1.530189 S    
O21   C29   1.405966 S    
P5    O46   1.560382 S    
P10   O30   1.747674 S    
P6    C69   1.854208 S    
O3    Ba3   2.827029 S    
C6    H14   1.112490 S    
C4    H8    1.108659 S    
C78   C82   1.396453 A    
P11   O35   1.546583 D    
C1    H9    1.111075 S    
C77   C81   1.396107 A    
C35   C59   1.412755 A    
C74   C78   1.392780 A    
C13   H29   1.109865 S    
C34   C58   1.413443 A    
C45   C49   1.398834 A    
C68   C84   1.408045 A    
Ba2   O46   2.786015 S    
C33   C57   1.412759 A    
C8    H16   1.112705 S    
O21   P14   1.748526 S    
O10   Ba2   2.766646 S    
Ba3   O48   2.945121 S    
C62   C86   1.413017 A    
C25   H53   1.112342 S    
C31   H59   1.110237 S    
C3    H63   1.110781 S    
C20   H36   1.108794 S    
O1    Ba1   2.827029 S    
Ba1   O46   2.945121 S    
C10   N10   1.460258 S    
C22   H42   1.107447 S    
N4    O56   1.300779 A    
C34   C68   1.409439 A    
C44   H72   1.082089 S    
C36   H88   1.079809 S    
C75   C79   1.391219 A    
C26   H54   1.112746 S    
O8    Ba3   2.785904 S    
C73   C77   1.391754 A    
C40   C44   1.398622 A    
C23   H43   1.107314 S    
P8    C71   1.853522 S    
C32   H60   1.109593 S    
C73   H81   1.082230 S    
N7    O61   1.299872 A    
P1    C37   1.861566 S    
P12   O44   1.746605 S    
P6    O26   1.526765 D    
O15   P16   1.546036 D    
N1    O49   1.301348 A    
P1    O5    1.555863 S    
O44   C8    1.404809 S    
C12   H24   1.111505 S    
C40   C60   1.431872 A    
P16   C47   1.843038 S    
C49   C53   1.408477 A    
C5    C9    1.527967 S    
C42   C46   1.395084 A    
C83   H79   1.079499 S    
C5    H17   1.110668 S    
O38   C13   1.400053 S    
C64   C68   1.419231 A    
P3    C39   1.861360 S    
O37   C14   1.400206 S    
N10   O68   1.301327 A    
Ba4   O48   2.786015 S    
H2    C30   1.112171 S    
C16   H32   1.110906 S    
O22   C30   1.405606 S    
C10   H22   1.111349 S    
P13   C46   1.845101 S    
P10   O34   1.546145 D    
C54   C88   1.411183 A    
C36   C60   1.413109 A    
P4    O8    1.556447 S    
O29   Ba1   2.764802 S    
N3    O53   1.300883 A    
P2    O6    1.556447 S    
N6    O60   1.299426 A    
C13   H25   1.105341 S    
C80   C84   1.396601 A    
P7    Ba3   3.410069 S    
C4    C32   1.518987 S    
C1    H5    1.111398 S    
H1    C29   1.112502 S    
C6    H18   1.110388 S    
C17   H37   1.111613 S    
P8    O28   1.526765 D    
O4    Ba4   2.827884 S    
C8    C12   1.526736 S    
P7    O48   1.560382 S    
C82   H78   1.079523 S    
P12   C79   1.840916 S    
O31   Ba3   2.764802 S    
C23   H47   1.111809 S    
C85   H89   1.080174 S    
C2    H6    1.110635 S    
C19   H35   1.110457 S    
C34   H86   1.079819 S    
Ba2   O45   2.945271 S    
P4    Ba4   3.407391 S    
C76   C80   1.393085 A    
C33   H85   1.079855 S    
C2    H62   1.109480 S    
C12   N12   1.460034 S    
C22   H46   1.111526 S    
C33   C67   1.408574 A    
O19   C23   1.394180 S    
H3    C31   1.112230 S    
P3    Ba3   3.406990 S    
C38   C58   1.431968 A    
C50   H74   1.082916 S    
P11   C80   1.846258 S    
C6    C10   1.527342 S    
C35   H87   1.079814 S    
C49   H73   1.082809 S    
C39   C43   1.398155 A    
P10   C77   1.842054 S    
N12   O72   1.300492 A    
P5    C70   1.856817 S    
P12   O36   1.545008 D    
O16   P15   1.546113 D    
P8    O40   1.752655 S    
C69   C73   1.397964 A    
C52   C56   1.408908 A    
C27   H51   1.113120 S    
C9    H65   1.112764 S    
C20   H40   1.111508 S    
O26   Ba2   2.830730 S    
N4    O55   1.300552 A    
P10   O42   1.748348 S    
C21   H45   1.111406 S    
C51   H75   1.082787 S    
O22   P13   1.748989 S    
O6    Ba1   2.785904 S    
C70   C74   1.398790 A    
Ba1   Ba2   4.594925 S    
P2    C38   1.862471 S    
O43   C7    1.406543 S    
C54   C58   1.421879 A    
N7    O62   1.298234 A    
C7    H19   1.109599 S    
C88   H92   1.080265 S    
O39   C16   1.400755 S    
C63   C67   1.418930 A    
C66   C82   1.407618 A    
C41   C45   1.394894 A    
C3    H7    1.109668 S    
C16   H28   1.104773 S    
O10   P13   1.744820 S    
C27   H55   1.112702 S    
P2    O18   1.746533 S    
C75   H83   1.082257 S    
C9    N9    1.461751 S    
C19   N3    1.458203 S    
C19   H39   1.111463 S    
O12   P15   1.743967 S    
C1    C29   1.521772 S    
N11   O70   1.300978 A    
O17   C21   1.393876 S    
C55   C59   1.421793 A    
P5    Ba1   3.410069 S    
P3    O7    1.555863 S    
C84   H80   1.079424 S    
O32   Ba4   2.764516 S    
C87   H91   1.080070 S    
C36   C66   1.409139 A    
C48   C52   1.399106 A    
O27   Ba3   2.831587 S    
P11   O31   1.745801 S    
N10   O67   1.300842 A    
C14   H30   1.110978 S    
Ba4   O47   2.945271 S    
C28   H56   1.112542 S    
Ba3   Ba4   4.594925 S    
C62   C66   1.419189 A    
C23   C27   1.530753 S    
O24   C32   1.405518 S    
C30   H58   1.110195 S    
C61   C65   1.418887 A    
N8    O63   1.297802 A    
C16   C20   1.528118 S    
O18   C22   1.393939 S    
C28   N8    1.451565 S    
C50   C54   1.409075 A    
C11   N11   1.458609 S    
C21   C25   1.530488 S    
P1    Ba1   3.406990 S    
C52   H76   1.083023 S    
C39   C59   1.431405 A    
C7    C11   1.526401 S    
C44   C48   1.395097 A    
O2    Ba2   2.827884 S    
N2    O51   1.300406 A    
N9    O65   1.301474 A    
