data_mof_unit_67050.cif
_audit_creation_date              2013-03-05T15:58:16-0500
_audit_creation_method            fapswitch 2.2
_symmetry_space_group_name_H-M    P1
_symmetry_Int_Tables_number       1
_space_group_crystal_system       triclinic
_cell_length_a                    8.509369
_cell_length_b                    12.871618
_cell_length_c                    14.304683
_cell_angle_alpha                 92.997544
_cell_angle_beta                  90.643281
_cell_angle_gamma                 99.175278
_cell_volume                      1544.31535339

loop_
_atom_site_label
_atom_site_type_symbol
_atom_site_description
_atom_site_fract_x
_atom_site_fract_y
_atom_site_fract_z
_atom_type_partial_charge
P1    P     P_3+3 0.054400 0.427280 0.286870 0.482676
O1    O     O_2   0.887370 0.460630 0.272300 -0.371820
O2    O     O_3   0.129410 0.451380 0.388510 -0.363605
O3    O     O_3   0.670210 0.653170 0.329170 -0.355596
O4    O     O_2   0.787394 0.585324 0.167790 -0.378155
O5    O     O_3   0.009736 0.290330 0.268535 -0.589656
O6    O     O_3   0.698160 0.766671 0.164495 -0.501688
H1    H     H_    0.728027 0.853845 0.290913 0.134787
C1    C     C_3   0.645695 0.942686 0.182372 -0.891858
H2    H     H_    0.608851 0.002059 0.233176 0.221327
H3    H     H_    0.766609 0.972093 0.156982 0.291183
P2    P     P_3+3 0.668300 0.742890 0.573060 0.613458
P3    P     P_3+3 0.137374 0.842036 0.379419 0.529560
O7    O     O_2   0.845380 0.761330 0.544970 -0.364634
O8    O     O_3   0.088930 0.704860 0.376040 -0.278855
O9    O     O_2   0.015587 0.886171 0.443284 -0.366512
O10   O     O_3   0.705928 0.787679 0.691905 -0.630375
O11   O     O_3   0.092192 0.879685 0.267702 -0.512852
C2    C     C_3   0.197269 0.842767 0.203351 0.321986
H4    H     H_    0.230175 0.765437 0.220369 0.106935
H5    H     H_    0.306371 0.902476 0.201305 0.074398
C3    C     C_3   0.119054 0.827689 0.106312 -0.824355
H6    H     H_    0.014128 0.764128 0.105823 0.290447
H7    H     H_    0.079679 0.901531 0.085848 0.253568
C4    C     C_3   0.167581 0.777477 0.704882 0.669574
H8    H     H_    0.130464 0.758587 0.630080 0.067825
C5    C     C_3   0.124938 0.885530 0.732857 -0.054015
H9    H     H_    0.152451 0.907427 0.808283 0.105272
H10   H     H_    0.994766 0.880840 0.723302 0.134108
Ba1   Ba    Ba6+2 0.855630 0.555280 0.454520 1.686415
C6    C     C_3   0.967272 0.242301 0.352057 0.391570
H11   H     H_    0.849253 0.260007 0.372386 0.089250
H12   H     H_    0.055854 0.268100 0.409449 0.143680
C7    C     C_3   0.959631 0.124040 0.334625 -0.922425
H13   H     H_    0.877843 0.095747 0.274876 0.256914
H14   H     H_    0.916001 0.081093 0.396251 0.241388
H15   H     H_    0.080169 0.105884 0.319237 0.268830
C8    C     C_3   0.675270 0.717189 0.763831 0.829426
H16   H     H_    0.553963 0.673392 0.762581 0.136993
C9    C     C_3   0.704751 0.784131 0.856910 -0.852827
H17   H     H_    0.834478 0.808599 0.870906 0.233205
H18   H     H_    0.652072 0.738889 0.916007 0.243306
H19   H     H_    0.652871 0.857330 0.854405 0.280767
P4    P     P_3+3 0.135310 0.572810 0.713130 0.622606
O12   O     O_2   0.302330 0.539400 0.727760 -0.358235
O13   O     O_3   0.060300 0.548700 0.611500 -0.329283
O14   O     O_3   0.519500 0.346920 0.670840 -0.337099
O15   O     O_3   0.103296 0.697866 0.761418 -0.589994
P5    P     P_3+3 0.036806 0.159417 0.616563 0.473044
O16   O     O_3   0.614310 0.373510 0.452640 -0.392735
O17   O     O_3   0.100780 0.295230 0.623970 -0.393283
O18   O     O_2   0.153607 0.110119 0.552972 -0.337896
O19   O     O_3   0.062891 0.116126 0.728302 -0.507436
Ba2   Ba    Ba6+2 0.334200 0.444810 0.545490 1.652102
P6    P     P_3+3 0.650944 0.640285 0.206197 0.496048
C10   C     C_3   0.645871 0.839382 0.228898 0.405956
H20   H     H_    0.522750 0.811723 0.251794 0.033350
H21   H     H_    0.560572 0.930455 0.121920 0.286589
O20   O     O_3   0.575400 0.626570 0.547370 -0.269808
C11   C     C_3   0.498114 0.309666 0.257819 0.412326
H22   H     H_    0.370858 0.318866 0.258734 0.056564
H23   H     H_    0.572620 0.381480 0.290012 0.126864
C12   C     C_3   0.551938 0.298678 0.157767 -0.964951
H24   H     H_    0.515699 0.361360 0.115708 0.210067
H25   H     H_    0.683182 0.303530 0.156894 0.267942
H26   H     H_    0.499151 0.220470 0.126906 0.323122
P7    P     P_3+3 0.522294 0.242086 0.423158 0.415515
O21   O     O_2   0.344320 0.238700 0.455090 -0.383965
O22   O     O_3   0.515742 0.217518 0.301941 -0.569628
H27   H     H_    0.205173 0.804989 0.054271 0.217493
C13   C     C_3   0.953530 0.152875 0.790228 0.213814
H28   H     H_    0.023375 0.209381 0.841964 0.114707
H29   H     H_    0.864951 0.195039 0.756966 0.017332
C14   C     C_3   0.861496 0.058595 0.838135 -0.202096
H30   H     H_    0.762505 0.020499 0.790477 0.109563
H31   H     H_    0.940930 0.000105 0.849791 0.128446
P8    P     P_3+3 0.556253 0.366722 0.792771 0.484200
C15   C     C_3   0.491217 0.206775 0.896938 0.207132
H32   H     H_    0.550466 0.240776 0.962865 0.155483
O23   O     O_2   0.509661 0.475396 0.818092 -0.365381
O24   O     O_3   0.415070 0.282382 0.854466 -0.553201
H33   H     H_    0.581626 0.179300 0.850689 0.033515
H34   H     H_    0.432219 0.040288 0.914807 0.153085
C16   C     C_3   0.371370 0.110244 0.920412 0.072857
H35   H     H_    0.270959 0.095811 0.868257 0.095893
C17   C     C_R   0.994707 0.440314 0.057163 -0.117974
C18   C     C_R   0.187419 0.485442 0.191774 0.217261
C19   C     C_R   0.346073 0.520439 0.218469 -0.394636
C20   C     C_R   0.454963 0.573731 0.158584 0.237996
C21   C     C_R   0.410490 0.582050 0.065130 -0.303752
C22   C     C_R   0.257677 0.536119 0.031243 0.067588
C23   C     C_R   0.144311 0.487027 0.094392 -0.030110
H36   H     H_    0.385593 0.506316 0.287981 0.181862
C24   C     C_R   0.072621 0.484007 0.896172 -0.036138
C25   C     C_R   0.958995 0.438249 0.960134 0.091224
C26   C     C_R   0.031524 0.476856 0.797186 0.349109
C27   C     C_R   0.887879 0.413184 0.766993 -0.345258
C28   C     C_R   0.768100 0.383927 0.831620 0.198979
C29   C     C_R   0.804774 0.398104 0.927546 -0.150315
C30   C     C_R   0.218750 0.538147 0.934761 -0.100052
H37   H     H_    0.496193 0.622446 0.018610 0.168772
H38   H     H_    0.711492 0.384486 0.977922 0.123029
H39   H     H_    0.857339 0.404178 0.693091 0.166794
H40   H     H_    0.905800 0.402823 0.102857 0.164017
H41   H     H_    0.305500 0.580979 0.890868 0.181467
C31   C     C_R   0.750099 0.177894 0.534030 -0.507259
C32   C     C_R   0.432327 0.814636 0.461113 0.045808
C33   C     C_R   0.407292 0.993424 0.427646 -0.269366
C34   C     C_R   0.343686 0.887215 0.425062 0.075794
C35   C     C_R   0.580045 0.846722 0.507850 0.124738
C36   C     C_R   0.641177 0.957681 0.514729 -0.122059
C37   C     C_R   0.555117 0.030797 0.471890 -0.050268
C38   C     C_R   0.613702 0.141005 0.480924 0.252493
C39   C     C_R   0.837512 0.108239 0.571439 0.203286
C40   C     C_R   0.783174 0.999241 0.564338 -0.160369
H42   H     H_    0.336838 0.046325 0.397406 0.198239
H43   H     H_    0.854990 0.948477 0.596169 0.199716
H44   H     H_    0.795099 0.261570 0.541009 0.156552
O25   O     O_3   0.201503 0.963211 0.673643 -0.557102
C41   C     C_3   0.366387 0.994129 0.695709 0.300272
H45   H     H_    0.435701 0.948603 0.649166 0.107141
H46   H     H_    0.398481 0.981620 0.768595 0.080014
C42   C     C_3   0.423145 0.109065 0.679919 -0.692959
H47   H     H_    0.353133 0.159327 0.720719 0.294094
H48   H     H_    0.551391 0.129690 0.698870 0.129742
H49   H     H_    0.410664 0.125406 0.606477 0.271887
N1    N     N_R   0.778359 0.639310 0.760009 0.195926
O26   O     O_R   0.828822 0.610544 0.839202 -0.472600
O27   O     O_R   0.770270 0.575548 0.686175 -0.405056
N2    N     N_R   0.796840 0.086973 0.928572 0.223240
O28   O     O_R   0.716096 0.013428 0.975424 -0.423976
O29   O     O_R   0.830739 0.181551 0.967556 -0.508762
O30   O     O_3   0.324662 0.118800 0.014379 -0.624188
C43   C     C_3   0.165307 0.133921 0.019136 0.296015
H50   H     H_    0.086589 0.063903 0.986815 0.121193
H51   H     H_    0.148584 0.207179 0.984950 0.141566
C44   C     C_3   0.121244 0.145448 0.120635 -0.773493
H52   H     H_    0.193247 0.217665 0.153435 0.250709
H53   H     H_    0.992932 0.151650 0.125120 0.268087
H54   H     H_    0.145073 0.076104 0.158235 0.250491
N3    N     N_R   0.375906 0.706015 0.443031 0.252297
O31   O     O_R   0.376009 0.670604 0.357125 -0.482125
O32   O     O_R   0.277877 0.655443 0.500015 -0.297377
N4    N     N_R   0.332328 0.784536 0.718354 0.158084
O33   O     O_R   0.388750 0.798969 0.803704 -0.523252
O34   O     O_R   0.395420 0.729102 0.657689 -0.467274

loop_
_geom_bond_atom_site_label_1
_geom_bond_atom_site_label_2
_geom_bond_distance
_ccdc_geom_bond_type
P1    C18   1.887590 S    
C18   C19   1.395657 A    
C12   H25   1.108808 S    
C5    H10   1.106215 S    
C7    H15   1.109629 S    
C2    H4    1.114056 S    
O6    P6    1.749898 S    
C17   H40   1.077095 S    
H1    C10   1.112487 S    
C43   C44   1.509333 S    
P2    C35   1.911820 S    
C39   C40   1.403437 A    
C42   H47   1.097885 S    
C10   H20   1.110227 S    
C44   H53   1.109723 S    
C30   H41   1.076994 S    
O16   Ba2   2.988131 S    
C14   H31   1.106503 S    
P3    O11   1.750191 S    
C31   C39   1.377453 A    
C11   C12   1.514054 S    
C2    H5    1.108536 S    
C7    H13   1.104869 S    
N3    O32   1.296759 A    
C8    H16   1.093904 S    
O2    Ba2   2.839966 S    
C25   C29   1.396892 A    
C42   H48   1.108298 S    
Ba2   O21   2.904210 S    
C27   C28   1.403740 A    
C33   C34   1.386187 A    
C11   H23   1.109280 S    
P1    O1    1.563696 D    
C35   C36   1.437823 A    
P3    C34   1.858900 S    
P2    O20   1.600041 S    
C9    H19   1.104424 S    
C36   C37   1.437902 A    
C41   H46   1.101243 S    
P5    O17   1.743379 S    
P2    O10   1.775217 S    
C6    H12   1.109155 S    
C24   C30   1.415824 A    
C22   C30   1.418266 A    
C32   N3    1.413325 S    
C1    H2    1.110815 S    
C41   C42   1.510782 S    
C9    H18   1.109716 S    
O5    C6    1.398532 S    
Ba1   O16   2.855093 S    
C12   H26   1.102217 S    
C18   C23   1.438528 A    
C31   H44   1.083046 S    
C32   C34   1.404993 A    
O6    C10   1.405161 S    
O7    Ba1   2.904005 S    
C37   C38   1.425259 A    
P4    O13   1.576711 S    
C8    N1    1.432878 S    
Ba2   O20   2.854402 S    
C44   H54   1.110202 S    
C16   O30   1.409728 S    
C14   H30   1.111380 S    
C31   C38   1.384336 A    
P7    O21   1.581353 D    
C2    C3    1.522295 S    
C16   H35   1.114341 S    
N4    O34   1.272114 A    
C22   C23   1.425040 A    
C13   H29   1.112872 S    
C15   H32   1.100403 S    
O11   C2    1.407437 S    
C42   H49   1.089463 S    
C43   H51   1.112652 S    
C40   H43   1.077011 S    
C4    H8    1.115572 S    
C33   C37   1.404128 A    
C11   H22   1.108085 S    
P1    O2    1.576830 S    
O2    Ba1   3.003091 S    
N2    O29   1.299842 A    
N1    O27   1.297500 A    
C21   H37   1.082219 S    
P4    C26   1.892736 S    
P4    Ba2   3.449136 S    
Ba1   Ba2   4.713842 S    
C15   H33   1.108310 S    
H34   C16   1.107880 S    
P8    O24   1.763164 S    
P5    O18   1.542397 D    
Ba1   O20   2.988947 S    
O13   Ba2   3.003889 S    
C6    C7    1.520497 S    
P8    C28   1.856039 S    
C1    C10   1.517954 S    
C24   C26   1.449380 A    
C1    H3    1.110129 S    
C4    O15   1.386069 S    
C27   H39   1.081640 S    
O14   Ba2   2.845249 S    
C9    H17   1.111499 S    
P2    O7    1.548506 D    
O12   Ba2   2.853623 S    
P3    O8    1.745963 S    
O3    P6    1.761572 S    
O30   C43   1.402191 S    
C32   C35   1.408635 A    
C3    H7    1.108950 S    
C4    N4    1.400780 S    
O14   P8    1.766571 S    
N1    O26   1.299407 A    
O19   C13   1.410503 S    
C5    H9    1.113483 S    
C41   H45   1.101267 S    
O8    Ba1   2.822327 S    
O16   P7    1.774305 S    
P8    O23   1.540188 D    
C19   H36   1.079695 S    
C1    H21   1.110212 S    
C26   C27   1.408532 A    
P2    Ba1   3.479638 S    
O4    P6    1.544694 D    
C6    H11   1.103488 S    
P4    O12   1.564061 D    
N4    O33   1.300122 A    
C13   C14   1.533487 S    
O25   C41   1.423178 S    
C43   H50   1.109790 S    
C5    O25   1.426518 S    
C4    C5    1.527147 S    
C44   H52   1.107211 S    
Ba1   O13   2.839365 S    
O1    Ba1   2.853100 S    
O17   Ba2   2.822939 S    
C33   H42   1.079526 S    
C14   N2    1.463003 S    
N2    O28   1.298715 A    
P7    C38   1.844276 S    
C13   H28   1.107204 S    
P6    C20   1.853852 S    
C17   C23   1.404616 A    
N3    O31   1.288186 A    
C8    C9    1.543286 S    
C15   O24   1.410735 S    
C21   C22   1.409285 A    
C11   O22   1.400202 S    
P5    O19   1.743357 S    
P1    Ba1   3.448645 S    
P5    C39   1.816930 S    
C7    H14   1.101549 S    
O10   C8    1.406434 S    
C24   C25   1.418980 A    
C17   C25   1.415488 A    
C12   H24   1.110841 S    
C15   C16   1.530959 S    
C29   H38   1.077860 S    
C19   C20   1.392669 A    
C28   C29   1.399859 A    
P3    O9    1.544683 D    
P1    O5    1.748234 S    
C3    H6    1.110357 S    
C36   C40   1.408783 A    
P7    O22   1.744877 S    
C20   C21   1.399392 A    
C3    H27   1.111012 S    
O3    Ba1   2.845880 S    
P4    O15   1.780496 S    
