data_mof_unit_41931.cif
_audit_creation_date              2012-12-11T14:19:26-0500
_audit_creation_method            fapswitch 2.2
_symmetry_space_group_name_H-M    P1
_symmetry_Int_Tables_number       1
_space_group_crystal_system       triclinic
_cell_length_a                    19.387625
_cell_length_b                    7.238509
_cell_length_c                    17.788555
_cell_angle_alpha                 89.81645
_cell_angle_beta                  107.665404
_cell_angle_gamma                 90.344582
_cell_volume                      2378.63771023

loop_
_atom_site_label
_atom_site_type_symbol
_atom_type_description
_atom_site_fract_x
_atom_site_fract_y
_atom_site_fract_z
_atom_type_partial_charge
O1    O     O_R   0.414820 0.494320 0.416790 -0.536481
O2    O     O_R   0.585180 0.994320 0.583210 -0.539630
O3    O     O_R   0.560270 0.819500 0.430140 -0.539236
O4    O     O_R   0.439730 0.319500 0.569860 -0.541231
C1    C     C_R   0.581072 0.656008 0.414778 0.704842
C2    C     C_R   0.418564 0.155030 0.584983 0.711527
O5    O     O_R   0.413840 0.823740 0.407440 -0.548603
O6    O     O_R   0.586160 0.323740 0.592560 -0.546395
O7    O     O_R   0.437710 0.998590 0.560350 -0.539875
O8    O     O_R   0.562290 0.498590 0.439650 -0.533289
C3    C     C_R   0.388399 0.654200 0.384297 0.670898
C4    C     C_R   0.611234 0.154692 0.616214 0.667518
O9    O     O_3   0.508000 0.662290 0.550200 -0.380430
O10   O     O_3   0.492000 0.162290 0.449800 -0.375562
V1    V     V_3+5 0.498520 0.935380 0.490690 1.422986
V2    V     V_3+5 0.501480 0.435380 0.509310 1.422500
C5    C     C_2   0.786592 0.269021 0.786275 -0.079882
C6    C     C_2   0.217160 0.767745 0.209015 -0.106450
C7    C     C_2   0.823594 0.113187 0.814068 -0.265049
C8    C     C_2   0.175764 0.615212 0.186192 -0.241473
H1    H     H_    0.806055 0.400232 0.814398 0.153020
H2    H     H_    0.201830 0.895229 0.175968 0.140544
H3    H     H_    0.807559 0.983649 0.783088 0.166853
H4    H     H_    0.187387 0.490125 0.221239 0.166079
C9    C     C_2   0.722226 0.275519 0.714219 -0.161235
C10   C     C_2   0.281397 0.777435 0.281121 -0.146208
C11   C     C_2   0.672318 0.138775 0.690692 0.137280
C12   C     C_2   0.326164 0.634663 0.311184 0.140311
H5    H     H_    0.715309 0.402095 0.679830 0.103984
H6    H     H_    0.293079 0.911793 0.309273 0.108027
C13   C     C_R   0.319744 0.999170 0.626879 -0.186339
C14   C     C_R   0.679598 0.791360 0.367795 -0.185492
C15   C     C_R   0.368411 0.147501 0.633561 -0.094868
C16   C     C_R   0.628705 0.650158 0.363724 -0.097997
C17   C     C_R   0.367265 0.293578 0.684666 -0.186676
C18   C     C_R   0.622410 0.506334 0.309833 -0.131597
C19   C     C_R   0.319772 0.290891 0.730217 0.103549
C20   C     C_R   0.666426 0.502305 0.260243 0.113374
C21   C     C_R   0.270222 0.143651 0.722811 0.078692
C22   C     C_R   0.718075 0.642886 0.264396 0.056412
C23   C     C_R   0.268068 0.998331 0.668606 0.027629
C24   C     C_R   0.724078 0.792412 0.317800 0.034594
C25   C     C_R   0.319762 0.437728 0.781075 -0.196357
C26   C     C_R   0.657939 0.360368 0.205485 -0.197903
C27   C     C_R   0.273696 0.437518 0.828480 0.016943
C28   C     C_R   0.699645 0.353425 0.153749 -0.029326
C29   C     C_R   0.229223 0.279547 0.828341 -0.018108
C30   C     C_R   0.756762 0.485409 0.160522 -0.036775
C31   C     C_R   0.223468 0.141370 0.770351 0.034694
C32   C     C_R   0.763958 0.632732 0.215701 0.054372
C33   C     C_R   0.172027 0.998658 0.761053 0.094215
C34   C     C_R   0.816939 0.771243 0.222504 0.115837
C35   C     C_R   0.167880 0.859130 0.705489 -0.208650
C36   C     C_R   0.821897 0.919974 0.273992 -0.176421
C37   C     C_R   0.215076 0.856106 0.659182 -0.034743
C38   C     C_R   0.775528 0.935203 0.320646 -0.020504
C39   C     C_R   0.192408 0.251267 0.885696 -0.034901
C40   C     C_R   0.807193 0.477347 0.115793 -0.054805
C41   C     C_R   0.133668 0.123326 0.869297 -0.150953
C42   C     C_R   0.861821 0.615939 0.125672 -0.150832
C43   C     C_R   0.124591 0.998039 0.806861 -0.152830
C44   C     C_R   0.864807 0.761765 0.177784 -0.173818
H7    H     H_    0.322579 0.886384 0.588406 0.164136
H8    H     H_    0.685218 0.895882 0.412379 0.163281
H9    H     H_    0.404403 0.408920 0.690022 0.128977
H10   H     H_    0.582465 0.398240 0.305867 0.124207
H11   H     H_    0.354574 0.556072 0.781939 0.153450
H12   H     H_    0.616184 0.256632 0.200993 0.143005
H13   H     H_    0.082004 0.894574 0.795814 0.137961
H14   H     H_    0.906185 0.867513 0.184954 0.150095
H15   H     H_    0.127310 0.751216 0.698160 0.159173
H16   H     H_    0.861616 0.027911 0.276536 0.162061
O11   O     O_R   0.937810 0.773680 0.060480 -0.540984
O12   O     O_R   0.062190 0.273680 0.939520 -0.510061
O13   O     O_R   0.086190 0.439740 0.092580 -0.523042
O14   O     O_R   0.913810 0.939740 0.907420 -0.549866
C45   C     C_R   0.111737 0.608753 0.115301 0.765618
C46   C     C_R   0.888190 0.108283 0.884635 0.719491
O15   O     O_R   0.939760 0.444210 0.069890 -0.538136
O16   O     O_R   0.060240 0.944210 0.930110 -0.538420
O17   O     O_R   0.914790 0.269640 0.916760 -0.528443
O18   O     O_R   0.085210 0.769640 0.083240 -0.542388
C47   C     C_R   0.916721 0.611258 0.082169 0.698410
C48   C     C_R   0.082807 0.112861 0.917326 0.733504
O19   O     O_3   0.992050 0.601530 0.949880 -0.377207
O20   O     O_3   0.007950 0.101530 0.050120 -0.382729
V3    V     V_3+5 0.001480 0.328340 0.009300 1.521452
V4    V     V_3+5 0.998520 0.828340 0.990700 1.466177
C49   C     C_2   0.204868 0.704460 0.600607 0.745630
O21   O     O_2   0.209631 0.734632 0.534698 -0.567099
O22   O     O_R   0.185667 0.527906 0.619734 -0.665848
H17   H     H_    0.179804 0.435970 0.575320 0.303669
C50   C     C_2   0.782860 0.104414 0.369895 0.739983
O23   O     O_2   0.729709 0.176483 0.380394 -0.573867
O24   O     O_R   0.850893 0.187336 0.401122 -0.662725
H18   H     H_    0.848973 0.303974 0.431829 0.300040
N1    N     N_2   0.675291 0.979253 0.739034 -0.533101
H19   H     H_    0.657863 0.858628 0.708300 0.263783
C51   C     C_3   0.643643 0.005055 0.802161 -0.467797
H20   H     H_    0.651554 0.878357 0.839102 0.201438
H21   H     H_    0.584649 0.031879 0.777455 0.177850
H22   H     H_    0.670112 0.122364 0.840447 0.244037
N2    N     N_2   0.316606 0.461817 0.270966 -0.511960
H23   H     H_    0.318247 0.349291 0.307174 0.260689
C52   C     C_3   0.362309 0.438324 0.220938 -0.506686
H24   H     H_    0.349774 0.303594 0.190017 0.195201
H25   H     H_    0.420327 0.439506 0.256768 0.175626
H26   H     H_    0.352311 0.550546 0.176203 0.212698
C53   C     C_2   0.268269 0.612353 0.870290 0.778521
O25   O     O_2   0.212158 0.651280 0.884374 -0.565818
O26   O     O_R   0.326390 0.737003 0.890441 -0.658096
H27   H     H_    0.315382 0.852804 0.916542 0.306874
C54   C     C_2   0.676540 0.211544 0.091468 0.789915
O27   O     O_2   0.653392 0.257932 0.022219 -0.547429
O28   O     O_R   0.677121 0.025227 0.112551 -0.656066
H28   H     H_    0.659609 0.940947 0.065068 0.303525
C55   C     C_2   0.228958 0.313452 0.968370 0.770380
O29   O     O_2   0.194533 0.355193 0.012892 -0.549353
O30   O     O_R   0.304616 0.321601 0.995381 -0.666122
H29   H     H_    0.323916 0.369638 0.051247 0.290901
C56   C     C_2   0.804967 0.325755 0.059442 0.796537
O31   O     O_2   0.788078 0.358629 0.988707 -0.556014
O32   O     O_R   0.824398 0.147098 0.087532 -0.667217
H30   H     H_    0.821258 0.055981 0.043430 0.292425

loop_
_geom_bond_atom_site_label_1
_geom_bond_atom_site_label_2
_ccdc_geom_bond_type
O15   C47   A    
O4    V2    S    
C50   O23   D    
O24   H18   S    
O1    C3    A    
O16   C48   A    
O2    C4    A    
C2    O7    A    
O15   V3    S    
N1    H19   S    
O32   H30   S    
C21   C23   A    
O5    C3    A    
C52   H25   S    
C8    C45   S    
C45   O18   A    
C17   C19   A    
O14   C46   A    
C55   O30   S    
C42   C47   S    
C18   H10   S    
C39   C41   A    
C17   H9    S    
C40   C42   A    
O28   H28   S    
C22   C32   A    
C44   H14   S    
C42   C44   A    
C27   C29   A    
C8    H4    S    
C23   C37   A    
C24   C38   A    
C6    C10   S    
O26   H27   S    
C26   C28   A    
C31   C33   A    
C33   C43   A    
C32   C34   A    
C13   C15   A    
O12   V3    S    
C49   O22   S    
O14   V4    S    
C27   C53   S    
C16   C18   A    
C46   O17   A    
C30   C32   A    
O6    V2    S    
N1    C51   S    
C34   C36   A    
C28   C30   A    
C35   C37   A    
C9    H5    S    
C38   C50   S    
C52   H26   S    
C36   C38   A    
C41   C43   A    
C4    C11   S    
C13   H7    S    
C41   C48   S    
C14   H8    S    
C29   C31   A    
O22   H17   S    
O20   V3    S    
C5    C7    D    
C25   H11   S    
O5    V1    S    
C5    H1    S    
C33   C35   A    
C14   C16   A    
C19   C25   A    
C7    C46   S    
C7    H3    S    
O11   V4    S    
C20   C26   A    
C29   C39   A    
O13   C45   A    
C51   H20   S    
O6    C4    A    
C1    C16   S    
N2    C52   S    
O1    V2    S    
O2    V1    S    
C25   C27   A    
C56   O31   D    
O17   V3    S    
O13   V3    S    
C21   C31   A    
C10   H6    S    
C26   H12   S    
O4    C2    A    
C18   C20   A    
C35   H15   S    
O3    V1    S    
C39   C55   S    
C54   O27   D    
O19   V4    S    
C43   H13   S    
C11   N1    S    
C40   C56   S    
C13   C23   A    
C28   C54   S    
C51   H21   S    
C6    H2    S    
O12   C48   A    
O3    C1    A    
O30   H29   S    
C30   C40   A    
C9    C11   D    
C52   H24   S    
C10   C12   D    
C2    C15   S    
C5    C9    S    
C53   O26   S    
O7    V1    S    
C1    O8    A    
O16   V4    S    
O8    V2    S    
C55   O29   D    
C20   C22   A    
C12   N2    S    
C50   O24   S    
C3    C12   S    
O18   V4    S    
C22   C24   A    
C15   C17   A    
C6    C8    D    
C37   C49   S    
C56   O32   S    
C51   H22   S    
C36   H16   S    
C19   C21   A    
O9    V2    S    
N2    H23   S    
C14   C24   A    
O10   V1    S    
C34   C44   A    
C49   O21   D    
C53   O25   D    
O11   C47   A    
C54   O28   S    
