data_mof_unit_38433.cif
_audit_creation_date              2012-12-11T16:36:24-0500
_audit_creation_method            fapswitch 2.2
_symmetry_space_group_name_H-M    P1
_symmetry_Int_Tables_number       1
_space_group_crystal_system       triclinic
_cell_length_a                    25.766533
_cell_length_b                    7.256764
_cell_length_c                    23.395534
_cell_angle_alpha                 90.000125
_cell_angle_beta                  104.365271
_cell_angle_gamma                 90.000277
_cell_volume                      4237.76008847

loop_
_atom_site_label
_atom_site_type_symbol
_atom_type_description
_atom_site_fract_x
_atom_site_fract_y
_atom_site_fract_z
_atom_type_partial_charge
O1    O     O_R   0.438720 0.630760 0.439780 -0.514456
O2    O     O_R   0.061280 0.869240 0.060220 -0.497929
O3    O     O_R   0.561280 0.130760 0.560220 -0.514468
O4    O     O_R   0.938720 0.369240 0.939780 -0.497947
O5    O     O_R   0.546380 0.956770 0.446270 -0.529846
O6    O     O_R   0.953620 0.543230 0.053730 -0.525611
O7    O     O_R   0.453620 0.456770 0.553730 -0.529836
O8    O     O_R   0.046380 0.043230 0.946270 -0.525588
C1    C     C_R   0.562233 0.791786 0.434050 0.719342
C2    C     C_R   0.937740 0.708257 0.065924 0.764567
C3    C     C_R   0.437767 0.291785 0.565949 0.719335
C4    C     C_R   0.062260 0.208257 0.934076 0.764659
O9    O     O_R   0.438210 0.960230 0.432810 -0.538794
O10   O     O_R   0.061790 0.539770 0.067190 -0.534421
O11   O     O_R   0.561790 0.460230 0.567190 -0.538792
O12   O     O_R   0.938210 0.039770 0.932810 -0.534434
O13   O     O_R   0.452340 0.134240 0.546660 -0.540705
O14   O     O_R   0.047660 0.365760 0.953340 -0.549479
O15   O     O_R   0.547660 0.634240 0.453340 -0.540697
O16   O     O_R   0.952340 0.865760 0.046660 -0.549520
C5    C     C_R   0.418685 0.791809 0.417471 0.767528
C6    C     C_R   0.082212 0.708272 0.081962 0.721751
C7    C     C_R   0.581315 0.291809 0.582530 0.767538
C8    C     C_R   0.917789 0.208270 0.918037 0.721397
O17   O     O_3   0.504760 0.798440 0.537370 -0.381420
O18   O     O_3   0.995240 0.701560 0.962630 -0.375600
O19   O     O_3   0.495240 0.298440 0.462630 -0.381411
O20   O     O_3   0.004760 0.201560 0.037370 -0.375592
V1    V     V_3+5 0.499120 0.071860 0.493070 1.553204
V2    V     V_3+5 0.000880 0.428140 0.006930 1.579798
V3    V     V_3+5 0.500880 0.571860 0.506930 1.553230
V4    V     V_3+5 0.999120 0.928140 0.993070 1.579761
C9    C     C_R   0.725359 0.199156 0.667734 -0.195443
C10   C     C_R   0.782177 0.367617 0.821903 -0.190815
C11   C     C_R   0.274645 0.699091 0.332261 -0.195454
C12   C     C_R   0.217815 0.867662 0.178110 -0.191012
H1    H     H_    0.762329 0.148741 0.659475 0.163792
H2    H     H_    0.753817 0.478139 0.820896 0.164907
H3    H     H_    0.237679 0.648631 0.340516 0.163790
H4    H     H_    0.246169 0.978218 0.179129 0.164933
C13   C     C_R   0.679580 0.211915 0.620306 0.464074
C14   C     C_R   0.827157 0.355864 0.870120 0.397222
C15   C     C_R   0.320424 0.711853 0.379689 0.464071
C16   C     C_R   0.172836 0.855918 0.129893 0.397577
C17   C     C_R   0.631194 0.281673 0.630163 -0.156470
C18   C     C_R   0.866857 0.218942 0.870644 -0.170758
C19   C     C_R   0.368806 0.781669 0.369837 -0.156472
C20   C     C_R   0.133145 0.718947 0.129355 -0.170616
C21   C     C_R   0.630047 0.337791 0.687129 -0.234125
C22   C     C_R   0.857552 0.089989 0.824311 -0.173741
C23   C     C_R   0.369950 0.837844 0.312876 -0.234116
C24   C     C_R   0.142460 0.589947 0.175675 -0.173831
H5    H     H_    0.593277 0.390106 0.695598 0.127276
H6    H     H_    0.886430 0.981934 0.823766 0.149599
H7    H     H_    0.406716 0.890205 0.304410 0.127282
H8    H     H_    0.113590 0.481856 0.176209 0.149645
C25   C     C_R   0.675569 0.321865 0.734091 -0.108890
C26   C     C_R   0.811355 0.099083 0.777755 -0.115266
C27   C     C_R   0.324428 0.821917 0.265913 -0.108898
C28   C     C_R   0.188657 0.599037 0.222231 -0.115245
H9    H     H_    0.672203 0.360798 0.777661 0.135770
H10   H     H_    0.805516 0.994675 0.743734 0.131476
H11   H     H_    0.327791 0.860897 0.222346 0.135761
H12   H     H_    0.194504 0.494594 0.256241 0.131482
C29   C     C_R   0.724103 0.253094 0.725180 0.036117
C30   C     C_R   0.773259 0.239701 0.775400 0.041032
C31   C     C_R   0.275898 0.753087 0.274819 0.036140
C32   C     C_R   0.226743 0.739698 0.224599 0.041039
C33   C     C_R   0.379111 0.113036 0.617728 -0.133506
C34   C     C_R   0.121992 0.386934 0.883638 -0.148507
C35   C     C_R   0.620886 0.613036 0.382268 -0.133458
C36   C     C_R   0.878007 0.886933 0.116361 -0.148547
H13   H     H_    0.390875 0.985455 0.600495 0.162216
H14   H     H_    0.111322 0.513925 0.902212 0.126847
H15   H     H_    0.609120 0.485455 0.399499 0.162223
H16   H     H_    0.888677 0.013924 0.097786 0.126825
C37   C     C_R   0.342573 0.105182 0.653044 -0.123100
C38   C     C_R   0.158281 0.395078 0.848017 -0.130584
C39   C     C_R   0.657424 0.605183 0.346952 -0.123103
C40   C     C_R   0.841719 0.895078 0.151982 -0.130519
H17   H     H_    0.326890 0.972153 0.661387 0.114364
H18   H     H_    0.174789 0.527603 0.840583 0.106259
H19   H     H_    0.673106 0.472154 0.338608 0.114362
H20   H     H_    0.825211 0.027603 0.159416 0.106306
C41   C     C_R   0.325743 0.266986 0.676298 0.084924
C42   C     C_R   0.173901 0.233914 0.823337 0.094687
C43   C     C_R   0.674256 0.766988 0.323701 0.084923
C44   C     C_R   0.826099 0.733915 0.176663 0.094633
C45   C     C_R   0.346438 0.436912 0.663210 -0.128596
C46   C     C_R   0.152145 0.064430 0.835050 -0.139173
C47   C     C_R   0.653563 0.936914 0.336791 -0.128599
C48   C     C_R   0.847856 0.564431 0.164951 -0.139085
H21   H     H_    0.335018 0.564101 0.680997 0.103696
H22   H     H_    0.162709 0.937942 0.816115 0.100871
H23   H     H_    0.664985 0.064105 0.319007 0.103706
H24   H     H_    0.837292 0.437944 0.183887 0.100860
C49   C     C_R   0.382850 0.444894 0.627747 -0.111228
C50   C     C_R   0.115790 0.056207 0.870575 -0.101389
C51   C     C_R   0.617152 0.944896 0.372255 -0.111296
C52   C     C_R   0.884211 0.556208 0.129427 -0.101104
H25   H     H_    0.397760 0.578429 0.618640 0.147008
H26   H     H_    0.099858 0.923097 0.878420 0.127034
H27   H     H_    0.602243 0.078431 0.381364 0.147020
H28   H     H_    0.900144 0.423099 0.121583 0.127028
C53   C     C_R   0.399729 0.283032 0.604512 -0.084177
C54   C     C_R   0.100268 0.217301 0.895482 -0.029162
C55   C     C_R   0.600271 0.783033 0.395487 -0.084175
C56   C     C_R   0.899733 0.717301 0.104518 -0.029169
C57   C     C_R   0.247174 0.394852 0.709699 -0.133592
C58   C     C_R   0.252346 0.106060 0.789924 -0.135882
C59   C     C_R   0.752826 0.894853 0.290301 -0.133586
C60   C     C_R   0.747654 0.606062 0.210075 -0.135847
H29   H     H_    0.243727 0.506327 0.678224 0.125767
H30   H     H_    0.255669 0.994451 0.821343 0.119630
H31   H     H_    0.756274 0.006328 0.321777 0.125764
H32   H     H_    0.744330 0.494453 0.178656 0.119679
C61   C     C_R   0.210702 0.387020 0.745111 -0.150469
C62   C     C_R   0.288895 0.114094 0.754616 -0.149467
C63   C     C_R   0.789299 0.887021 0.254889 -0.150469
C64   C     C_R   0.711104 0.614097 0.245382 -0.149475
H33   H     H_    0.180243 0.492751 0.740003 0.113470
H34   H     H_    0.319400 0.008499 0.759893 0.110204
H35   H     H_    0.819759 0.992751 0.259998 0.113464
H36   H     H_    0.680598 0.508502 0.240105 0.110210
C65   C     C_R   0.212781 0.242445 0.785657 0.082116
C66   C     C_R   0.286803 0.258548 0.713985 0.083783
C67   C     C_R   0.787219 0.742446 0.214343 0.082117
C68   C     C_R   0.713197 0.758550 0.286014 0.083785
S1    S     S_3+6 0.684534 0.138256 0.549646 -0.010209
O21   O     O_2   0.651028 0.257857 0.502107 -0.360617
O22   O     O_2   0.741926 0.146172 0.545921 -0.332146
O23   O     O_3   0.662622 0.919557 0.539719 -0.508844
H37   H     H_    0.678585 0.869585 0.508559 0.363554
S2    S     S_3+6 0.829148 0.505611 0.930550 0.001491
O24   O     O_2   0.866961 0.661845 0.928701 -0.320248
O25   O     O_2   0.774542 0.583998 0.927662 -0.331696
O26   O     O_3   0.850318 0.389858 0.994345 -0.511157
H38   H     H_    0.824583 0.286998 0.991843 0.322069
S3    S     S_3+6 0.315473 0.638130 0.450345 -0.010205
O27   O     O_2   0.348974 0.757716 0.497892 -0.360617
O28   O     O_2   0.258081 0.645998 0.454070 -0.332146
O29   O     O_3   0.337394 0.419439 0.460255 -0.508844
H39   H     H_    0.321434 0.369428 0.491412 0.363544
S4    S     S_3+6 0.170833 0.005749 0.069482 0.001281
O30   O     O_2   0.132999 0.161912 0.071335 -0.320211
O31   O     O_2   0.225430 0.084245 0.072384 -0.331930
O32   O     O_3   0.149686 0.890016 0.005678 -0.511372
H40   H     H_    0.175652 0.787960 0.008005 0.322391

loop_
_geom_bond_atom_site_label_1
_geom_bond_atom_site_label_2
_ccdc_geom_bond_type
C26   H10   S    
C6    C20   S    
O1    C5    A    
C7    C17   S    
C43   C47   A    
C34   C38   A    
O13   V1    S    
C33   C37   A    
C2    C56   S    
O32   H40   S    
C10   C14   A    
C48   H24   S    
C36   H16   S    
O15   V3    S    
C10   C30   A    
S2    O26   S    
C39   C43   A    
C9    C29   A    
O7    C3    A    
C22   H6    S    
O2    V4    S    
C44   C67   S    
C35   C55   A    
C14   C18   A    
O4    C8    A    
S3    O29   S    
O19   V1    S    
O1    V3    S    
C21   C25   A    
C59   C63   A    
C62   H34   S    
O3    V1    S    
C61   H33   S    
C34   H14   S    
C60   C67   A    
C24   C28   A    
C27   C31   A    
O3    C7    A    
C26   C30   A    
C52   H28   S    
C36   C56   A    
C2    O16   A    
O23   H37   S    
C39   H19   S    
O2    C6    A    
C15   S3    S    
O14   V2    S    
C37   H17   S    
C11   C15   A    
C58   H30   S    
C57   H29   S    
S1    O23   S    
C49   C53   A    
C38   C42   A    
O11   C7    A    
C37   C41   A    
O12   C8    A    
C42   C65   S    
C58   C62   A    
C41   C66   S    
O10   V2    S    
S4    O32   S    
C35   C39   A    
C43   C68   S    
C1    O15   A    
C46   H22   S    
O5    V1    S    
C52   C56   A    
O7    V3    S    
C57   C61   A    
C31   C32   S    
O8    V4    S    
C44   C48   A    
C12   H4    S    
S4    O31   D    
C51   H27   S    
C34   C54   A    
C40   H20   S    
C60   C64   A    
C33   C53   A    
O18   V4    S    
S2    O25   D    
C50   H26   S    
O11   V3    S    
C9    H1    S    
C45   C49   A    
C22   C26   A    
C11   H3    S    
O5    C1    A    
C13   S1    S    
C38   H18   S    
C11   C31   A    
O8    C4    A    
C64   C68   A    
C17   C21   A    
O9    C5    A    
C3    C53   S    
C33   H13   S    
O6    V2    S    
C42   C46   A    
C12   C16   A    
O12   V4    S    
C60   H32   S    
C48   C52   A    
S1    O21   D    
O16   V4    S    
O9    V1    S    
C3    O13   A    
C41   C45   A    
C10   H2    S    
O17   V3    S    
C25   C29   A    
S4    O30   D    
O6    C2    A    
C19   C23   A    
S3    O27   D    
C12   C32   A    
C25   H9    S    
S2    O24   D    
C63   H35   S    
C4    C54   S    
C51   C55   A    
O26   H38   S    
C18   C22   A    
C27   H11   S    
C50   C54   A    
C14   S2    S    
C28   H12   S    
C9    C13   A    
O10   C6    A    
O20   V2    S    
C8    C18   S    
C36   C40   A    
C16   C20   A    
C35   H15   S    
S3    O28   D    
C15   C19   A    
C21   H5    S    
S1    O22   D    
C23   H7    S    
C45   H21   S    
O4    V2    S    
C58   C65   A    
C47   H23   S    
C64   H36   S    
C57   C66   A    
C20   C24   A    
C23   C27   A    
C28   C32   A    
C40   C44   A    
C29   C30   S    
C4    O14   A    
C59   C68   A    
O29   H39   S    
C13   C17   A    
C1    C55   S    
C59   H31   S    
C16   S4    S    
C62   C66   A    
C47   C51   A    
C61   C65   A    
C46   C50   A    
C49   H25   S    
C24   H8    S    
C5    C19   S    
C63   C67   A    
