data_mof_unit_33684.cif
_audit_creation_date              2012-10-26T19:15:27-0400
_audit_creation_method            fapswitch 2.2
_symmetry_space_group_name_H-M    P1
_symmetry_Int_Tables_number       1
_space_group_crystal_system       triclinic
_cell_length_a                    15.923702
_cell_length_b                    10.90851
_cell_length_c                    9.711257
_cell_angle_alpha                 90.078857
_cell_angle_beta                  87.907956
_cell_angle_gamma                 96.000496
_cell_volume                      1676.51715808

loop_
_atom_site_label
_atom_site_type_symbol
_atom_type_description
_atom_site_fract_x
_atom_site_fract_y
_atom_site_fract_z
_atom_type_partial_charge
C1    C     C_R   0.505505 0.263806 0.499375 0.614934
C2    C     C_R   0.527918 0.937831 0.379507 -0.107383
C3    C     C_R   0.496404 0.870492 0.496714 -0.066972
C4    C     C_R   0.341770 0.502116 0.501851 0.608809
C5    C     C_R   0.469209 0.933890 0.612179 0.064459
C6    C     C_3   0.500364 0.924670 0.753895 0.157201
C7    C     C_3   0.515992 0.064343 0.752533 -0.161166
C8    C     C_R   0.569208 0.544900 0.068990 0.084865
C9    C     C_R   0.436949 0.428670 0.081027 0.343431
C10   C     C_R   0.433010 0.435928 0.930885 0.304150
C11   C     C_R   0.570485 0.542714 0.923701 0.154566
C12   C     C_R   0.037673 0.481102 0.619211 -0.085195
C13   C     C_3   0.617400 0.669495 0.921472 0.094094
C14   C     C_3   0.616415 0.668196 0.078073 -0.205154
C15   C     C_R   0.499195 0.737137 0.499743 0.530984
C16   C     C_R   0.658353 0.500360 0.497819 0.567697
C17   C     C_R   0.950381 0.480531 0.614678 -0.087527
C18   C     C_R   0.912854 0.502267 0.490089 0.020202
C19   C     C_R   0.963019 0.525171 0.368255 0.242521
C20   C     C_R   0.050818 0.525690 0.374167 -0.051735
C21   C     C_R   0.087736 0.503587 0.499084 -0.007635
C22   C     C_3   0.470261 0.133034 0.863481 -0.223324
C23   C     C_1   0.822961 0.501082 0.490632 0.049967
C24   C     C_1   0.177268 0.503380 0.503405 -0.007224
C25   C     C_1   0.252467 0.502952 0.504721 0.067962
C26   C     C_1   0.747648 0.500384 0.492909 0.096420
C27   C     C_R   0.477259 0.062387 0.613513 -0.009074
C28   C     C_R   0.509231 0.130381 0.497706 -0.008642
C29   C     C_R   0.538209 0.066928 0.380286 0.244804
Cu1   Cu    Cu3+1 0.500000 0.499980 0.640670 1.137298
Cu2   Cu    Cu3+1 0.500000 0.500020 0.359330 1.114631
H1    H     H_    0.066058 0.463978 0.716124 0.159877
H2    H     H_    0.303207 0.223671 0.353973 0.366454
H3    H     H_    0.222242 0.458130 0.800438 0.355210
H4    H     H_    0.703195 0.813085 0.690458 0.335238
H5    H     H_    0.818240 0.670449 0.258171 0.340929
H6    H     H_    0.702454 0.293559 0.240115 0.396945
H7    H     H_    0.288448 0.877794 0.924938 0.397266
H8    H     H_    0.495795 0.231096 0.860791 0.144756
H9    H     H_    0.401325 0.124425 0.849310 0.260131
H10   H     H_    0.482965 0.096649 0.965770 0.243893
H11   H     H_    0.584748 0.096811 0.745797 0.138235
H12   H     H_    0.579180 0.738139 0.881679 0.133704
H13   H     H_    0.678830 0.663510 0.124205 0.182080
H14   H     H_    0.577643 0.737091 0.125204 0.155610
H15   H     H_    0.912016 0.463125 0.708503 0.196467
H16   H     H_    0.090618 0.543266 0.281959 0.182396
H17   H     H_    0.551359 0.889698 0.291145 0.184900
H18   H     H_    0.560705 0.883404 0.753177 0.071947
N1    N     N_R   0.500520 0.500930 0.147930 -0.272564
N2    N     N_R   0.500520 0.500890 0.852020 -0.276586
O1    O     O_R   0.500000 0.319640 0.618810 -0.502981
O2    O     O_2   0.356394 0.199741 0.100181 -0.253389
O3    O     O_3   0.355806 0.279750 0.338575 -0.488086
O4    O     O_2   0.352133 0.302326 0.721638 -0.291437
O5    O     O_2   0.271755 0.283432 0.928073 -0.185273
O6    O     O_3   0.280487 0.493535 0.819528 -0.466990
O7    O     O_2   0.781247 0.764214 0.924795 -0.198417
O8    O     O_2   0.753144 0.551628 0.844377 -0.223498
O9    O     O_3   0.720967 0.728988 0.682084 -0.519011
O10   O     O_2   0.983526 0.560821 0.093589 -0.206757
O11   O     O_2   0.849288 0.453529 0.179146 -0.273039
O12   O     O_R   0.500010 0.319680 0.381230 -0.381921
O13   O     O_3   0.876193 0.690087 0.218258 -0.438472
O14   O     O_2   0.646434 0.051278 0.161380 -0.259492
O15   O     O_2   0.550677 0.212108 0.154863 -0.287603
O16   O     O_3   0.676545 0.242571 0.317912 -0.519081
O17   O     O_2   0.404227 0.717938 0.844308 -0.226150
O18   O     O_2   0.445516 0.872795 0.017302 -0.301916
O19   O     O_3   0.327128 0.914547 0.850374 -0.481489
O20   O     O_R   0.380300 0.499950 0.618760 -0.392500
O21   O     O_R   0.380310 0.499990 0.381180 -0.446664
O22   O     O_R   0.499990 0.680320 0.618770 -0.478672
O23   O     O_R   0.500000 0.680360 0.381190 -0.524555
O24   O     O_R   0.619690 0.500010 0.618820 -0.462628
O25   O     O_R   0.619700 0.500050 0.381240 -0.517876
O26   O     O_2   0.274175 0.374534 0.159293 -0.237223
S1    S     S_3+6 0.357095 0.321635 0.172562 0.121835
S2    S     S_3+6 0.334379 0.372024 0.850705 0.089583
S3    S     S_3+6 0.722026 0.677073 0.844817 0.048580
S4    S     S_3+6 0.917777 0.554588 0.209131 0.072288
S5    S     S_3+6 0.602997 0.142742 0.246727 0.042727
S6    S     S_3+6 0.418641 0.853737 0.871370 0.015254

loop_
_geom_bond_atom_site_label_1
_geom_bond_atom_site_label_2
_ccdc_geom_bond_type
Cu1   N2    S    
H7    O19   S    
C16   O24   A    
O6    S2    S    
C19   C20   A    
C4    O21   A    
Cu1   O20   S    
Cu2   O25   S    
O26   S1    D    
O5    S2    D    
C2    C29   A    
C28   C29   A    
Cu1   Cu2   S    
C23   C26   T    
C22   H10   S    
C7    C27   S    
C18   C19   A    
C7    H11   S    
C5    C27   A    
C12   C17   A    
H3    O6    S    
C9    C10   A    
O7    S3    D    
C13   S3    S    
C13   C14   S    
C12   H1    S    
C10   N2    A    
C1    O12   A    
C4    C25   S    
C14   H14   S    
C16   C26   S    
C18   C23   S    
Cu2   O12   S    
C24   C25   T    
C19   S4    S    
Cu1   O22   S    
Cu2   O23   S    
C2    H17   S    
C12   C21   A    
H4    O9    S    
O18   S6    D    
O15   S5    D    
O4    S2    D    
C22   H9    S    
C17   C18   A    
C1    C28   S    
C17   H15   S    
O19   S6    S    
Cu2   O21   S    
C15   O22   A    
O11   S4    D    
Cu2   N1    S    
C8    N1    A    
C13   H12   S    
C3    C15   S    
C14   H13   S    
H2    O3    S    
Cu1   O1    S    
O9    S3    S    
C8    C14   S    
C6    S6    S    
C16   O25   A    
O17   S6    D    
C9    N1    A    
C3    C5    A    
O8    S3    D    
C10   S2    S    
C6    C7    S    
C7    C22   S    
C2    C3    A    
C29   S5    S    
O10   S4    D    
Cu1   O24   S    
C11   C13   S    
O14   S5    D    
C5    C6    S    
C8    C11   A    
C22   H8    S    
H6    O16   S    
O2    S1    D    
C9    S1    S    
C6    H18   S    
C1    O1    A    
O13   S4    S    
C20   H16   S    
C11   N2    A    
C15   O23   A    
C20   C21   A    
O16   S5    S    
C21   C24   S    
C27   C28   A    
H5    O13   S    
C4    O20   A    
O3    S1    S    
