data_mof_unit_31912.cif
_audit_creation_date              2012-12-10T18:13:32-0500
_audit_creation_method            fapswitch 2.2
_symmetry_space_group_name_H-M    P1
_symmetry_Int_Tables_number       1
_space_group_crystal_system       triclinic
_cell_length_a                    12.607949
_cell_length_b                    13.152392
_cell_length_c                    16.755817
_cell_angle_alpha                 89.973745
_cell_angle_beta                  99.197887
_cell_angle_gamma                 97.908032
_cell_volume                      2716.05976929

loop_
_atom_site_label
_atom_site_type_symbol
_atom_type_description
_atom_site_fract_x
_atom_site_fract_y
_atom_site_fract_z
_atom_type_partial_charge
C1    C     C_R   0.560039 0.691088 0.515067 0.837911
C2    C     C_R   0.624865 0.531218 0.238986 -0.231959
C3    C     C_R   0.585148 0.601573 0.865957 -0.126372
C4    C     C_R   0.587552 0.584037 0.783935 0.079382
C5    C     C_R   0.399663 0.498940 0.770034 -0.201727
C6    C     C_R   0.398336 0.519769 0.850761 -0.152211
C7    C     C_R   0.490873 0.570604 0.899171 0.154197
C8    C     C_2   0.562529 0.643814 0.036533 -0.151639
C9    C     C_2   0.488625 0.581932 0.985680 -0.163887
C10   C     C_R   0.493615 0.528847 0.736532 -0.062186
C11   C     C_R   0.274104 0.044914 0.502700 -0.188814
C12   C     C_R   0.514523 0.504714 0.349666 0.892757
C13   C     C_R   0.402923 0.195521 0.487383 -0.111926
C14   C     C_R   0.706862 0.839016 0.532362 -0.197020
C15   C     C_R   0.740051 0.944222 0.538199 -0.143405
C16   C     C_R   0.663828 0.011032 0.539943 -0.161634
C17   C     C_R   0.552966 0.972540 0.540118 0.102196
C18   C     C_R   0.524949 0.866658 0.550009 0.040785
C19   C     C_R   0.467751 0.033610 0.526594 0.052169
C20   C     C_R   0.359662 0.989962 0.531150 0.078155
C21   C     C_R   0.339635 0.890322 0.560268 0.117377
C22   C     C_R   0.423041 0.830632 0.571615 -0.211253
C23   C     C_R   0.439179 0.307501 0.488459 0.884612
C24   C     C_R   0.486334 0.134980 0.503352 -0.228238
C25   C     C_R   0.293600 0.146743 0.477531 0.097192
C26   C     C_R   0.598370 0.799639 0.535372 -0.110863
C27   C     C_R   0.910115 0.368219 0.629669 0.031402
C28   C     C_R   0.207887 0.623315 0.400499 -0.007293
C29   C     C_R   0.105092 0.652969 0.379639 0.077335
C30   C     C_R   0.021400 0.608985 0.419876 -0.197147
C31   C     C_R   0.040902 0.536150 0.480701 0.021859
C32   C     C_R   0.147464 0.510646 0.499325 0.230349
C33   C     C_R   0.959290 0.486059 0.522671 -0.028947
C34   C     C_R   0.489741 0.507242 0.650890 0.859352
C35   C     C_R   0.988900 0.418966 0.586840 0.127253
C36   C     C_R   0.096550 0.399853 0.604516 -0.286816
C37   C     C_R   0.171711 0.440002 0.558355 -0.185648
C38   C     C_R   0.849284 0.498391 0.502373 -0.110353
C39   C     C_R   0.800927 0.380433 0.603388 0.229177
C40   C     C_R   0.529615 0.541336 0.269514 -0.109861
C41   C     C_R   0.454572 0.600522 0.228290 -0.227674
C42   C     C_R   0.471365 0.645143 0.155766 0.164572
C43   C     C_R   0.563032 0.628678 0.122441 0.070360
C44   C     C_R   0.641849 0.574525 0.165438 0.168401
H1    H     H_    0.382892 0.613599 0.252584 0.179162
H2    H     H_    0.325239 0.494653 0.875832 0.139390
H3    H     H_    0.191738 0.006607 0.496011 0.159668
H4    H     H_    0.566917 0.168723 0.496825 0.175581
H5    H     H_    0.765591 0.788765 0.523901 0.165828
H6    H     H_    0.694481 0.091767 0.541735 0.142365
H7    H     H_    0.824183 0.974364 0.537180 0.148444
H8    H     H_    0.406373 0.754822 0.595655 0.198630
H9    H     H_    0.124352 0.348172 0.650696 0.146818
H10   H     H_    0.820470 0.548642 0.455579 0.147585
H11   H     H_    0.273777 0.655743 0.370018 0.139934
H12   H     H_    0.943081 0.633902 0.403281 0.137170
H13   H     H_    0.247496 0.410822 0.568181 0.212224
H14   H     H_    0.327361 0.458362 0.733731 0.149642
H15   H     H_    0.425424 0.532428 0.010061 0.166384
H16   H     H_    0.657436 0.636845 0.904365 0.134961
H17   H     H_    0.685390 0.488964 0.271620 0.182128
H18   H     H_    0.628286 0.694685 0.017235 0.164920
N1    N     N_R   0.774070 0.445420 0.541180 -0.127081
N2    N     N_R   0.226730 0.554050 0.459240 -0.142535
O1    O     O_R   0.631480 0.627510 0.519670 -0.620900
O2    O     O_R   0.455770 0.662400 0.493360 -0.613205
O3    O     O_R   0.598240 0.480510 0.398910 -0.614915
O4    O     O_R   0.422540 0.515400 0.372600 -0.624257
O5    O     O_R   0.544230 0.337600 0.506640 -0.577996
O6    O     O_R   0.368520 0.372490 0.480330 -0.640343
O7    O     O_R   0.577460 0.484600 0.627400 -0.590911
O8    O     O_R   0.401760 0.519490 0.601090 -0.634093
Zn1   Zn    Zn3+2 0.617320 0.476700 0.517570 0.957470
Zn2   Zn    Zn3+2 0.382680 0.523300 0.482430 0.928501
C45   C     C_3   0.198601 0.191438 0.429677 -0.419598
C46   C     C_3   0.103440 0.191575 0.476519 -0.346574
C47   C     C_3   0.013220 0.244348 0.429263 -0.837942
H19   H     H_    0.044568 0.324181 0.415158 0.265163
H20   H     H_    0.979138 0.201399 0.371752 0.260773
H21   H     H_    0.947175 0.246166 0.465629 0.248536
H22   H     H_    0.067698 0.111942 0.487568 0.216981
H23   H     H_    0.132989 0.230002 0.536110 0.231758
H24   H     H_    0.222301 0.269124 0.407748 0.231617
H25   H     H_    0.169312 0.142960 0.374171 0.195516
I1    I     I_    0.186343 0.822206 0.586688 -0.445856
I2    I     I_    0.678694 0.296188 0.663033 -0.402188
C48   C     C_3   0.687229 0.625000 0.746040 -0.387193
C49   C     C_3   0.774535 0.701150 0.798009 -0.407340
C50   C     C_3   0.862446 0.745170 0.749558 -0.802937
H26   H     H_    0.901221 0.682538 0.726762 0.262683
H27   H     H_    0.827100 0.788817 0.697532 0.264580
H28   H     H_    0.925652 0.798055 0.788865 0.261421
H29   H     H_    0.737084 0.765644 0.819448 0.238673
H30   H     H_    0.813705 0.661377 0.850981 0.238160
H31   H     H_    0.726448 0.558983 0.729937 0.235200
H32   H     H_    0.658887 0.664908 0.689765 0.207578
C51   C     C_3   0.943031 0.302822 0.703088 -0.396309
C52   C     C_3   0.000529 0.368737 0.777539 -0.355062
C53   C     C_3   0.925092 0.434025 0.810240 -0.760069
H33   H     H_    0.898602 0.490503 0.764755 0.255240
H34   H     H_    0.852849 0.384678 0.825883 0.274182
H35   H     H_    0.968856 0.476791 0.865600 0.245498
H36   H     H_    0.030161 0.316882 0.825942 0.215153
H37   H     H_    0.072266 0.420079 0.763318 0.225435
H38   H     H_    0.875360 0.251183 0.721700 0.228249
H39   H     H_    0.995282 0.247080 0.687341 0.161739
C54   C     C_3   0.085353 0.729909 0.314067 -0.409657
C55   C     C_3   0.143831 0.837211 0.341555 -0.342010
C56   C     C_3   0.129538 0.913818 0.273651 -0.837385
H40   H     H_    0.161856 0.888244 0.220254 0.282367
H41   H     H_    0.042372 0.921658 0.255815 0.263155
H42   H     H_    0.174836 0.989930 0.294642 0.243107
H43   H     H_    0.110233 0.864118 0.393907 0.239485
H44   H     H_    0.232046 0.834906 0.360717 0.232362
H45   H     H_    0.114682 0.704255 0.259261 0.220798
H46   H     H_    0.997023 0.733710 0.297164 0.217228
I3    I     I_    0.783445 0.548764 0.119284 -0.426021
I4    I     I_    0.353164 0.733434 0.098027 -0.396983

loop_
_geom_bond_atom_site_label_1
_geom_bond_atom_site_label_2
_ccdc_geom_bond_type
C8    C9    D    
C2    C44   A    
C48   C49   S    
C41   C42   A    
C23   O5    A    
C11   H3    S    
C19   C20   A    
C18   C26   A    
C8    C43   S    
C43   C44   A    
C51   C52   S    
C4    C48   S    
C47   H19   S    
C12   O4    A    
C28   C29   A    
C5    H14   S    
C36   C37   A    
C16   H6    S    
C3    C7    A    
C56   H41   S    
C5    C6    A    
C45   H25   S    
C14   H5    S    
C11   C25   A    
O4    Zn2   S    
C52   H36   S    
O2    Zn2   S    
O1    Zn1   S    
C55   C56   S    
C13   C23   S    
C55   H44   S    
C36   H9    S    
C33   C35   A    
C35   C36   A    
C27   C39   A    
C16   C17   A    
C48   H31   S    
O6    Zn2   S    
C1    O1    A    
C54   C55   S    
C31   C33   A    
O5    Zn1   S    
O3    Zn1   S    
C15   H7    S    
C50   H27   S    
C2    H17   S    
C51   H38   S    
C3    H16   S    
C21   C22   A    
C23   O6    A    
C13   C25   A    
C28   H11   S    
C1    O2    A    
C49   H30   S    
C47   H20   S    
C12   O3    A    
C21   I1    S    
C11   C20   A    
C24   H4    S    
C46   C47   S    
C32   N2    A    
O8    Zn2   S    
C56   H42   S    
C46   H23   S    
O7    Zn1   S    
C42   I4    S    
N1    Zn1   S    
C27   C35   A    
C30   H12   S    
C13   C24   A    
C9    H15   S    
C55   H43   S    
C12   C40   S    
C45   C46   S    
C29   C30   A    
C31   C32   A    
C38   H10   S    
C48   H32   S    
C20   C21   A    
C17   C18   A    
C10   C34   S    
C32   C37   A    
C14   C26   A    
C50   H28   S    
C54   H45   S    
C51   H39   S    
C28   N2    A    
C40   C41   A    
C53   H34   S    
C1    C26   S    
C42   C43   A    
C4    C10   A    
C3    C4    A    
C34   O8    A    
C22   H8    S    
C38   N1    A    
C47   H21   S    
C7    C9    S    
C49   H29   S    
C27   C51   S    
N2    Zn2   S    
C6    H2    S    
C18   C22   A    
C46   H22   S    
C6    C7    A    
C39   N1    A    
C33   C38   A    
C53   H33   S    
C19   C24   A    
C5    C10   A    
C56   H40   S    
C45   H24   S    
C30   C31   A    
C44   I3    S    
C52   H37   S    
C17   C19   A    
C54   H46   S    
C2    C40   A    
C53   H35   S    
C49   C50   S    
C52   C53   S    
C41   H1    S    
C14   C15   A    
C29   C54   S    
C39   I2    S    
C25   C45   S    
C50   H26   S    
C34   O7    A    
C37   H13   S    
C15   C16   A    
C8    H18   S    
