data_mof_unit_7779.cif
_audit_creation_date              2012-12-11T16:48:06-0500
_audit_creation_method            fapswitch 2.2
_symmetry_space_group_name_H-M    P1
_symmetry_Int_Tables_number       1
_space_group_crystal_system       triclinic
_cell_length_a                    17.369868
_cell_length_b                    24.457765
_cell_length_c                    15.000661
_cell_angle_alpha                 89.729624
_cell_angle_beta                  125.394092
_cell_angle_gamma                 90.331174
_cell_volume                      5194.85389331

loop_
_atom_site_label
_atom_site_type_symbol
_atom_type_description
_atom_site_fract_x
_atom_site_fract_y
_atom_site_fract_z
_atom_type_partial_charge
C1    C     C_R   0.317844 0.367321 0.908337 -0.106085
C2    C     C_R   0.434372 0.498873 0.634105 0.101829
C3    C     C_R   0.091135 0.869733 0.905881 -0.127541
C4    C     C_R   0.323862 0.347912 0.998391 0.080874
C5    C     C_R   0.676146 0.351087 0.996789 0.067412
C6    C     C_R   0.823859 0.847915 0.998392 0.080862
C7    C     C_R   0.176148 0.851088 0.996789 0.067410
C8    C     C_3   0.982215 0.592077 0.392979 -0.221882
C9    C     C_3   0.024419 0.542534 0.668181 -0.293878
C10   C     C_3   0.482191 0.092084 0.393021 -0.221854
C11   C     C_3   0.524415 0.042529 0.668193 -0.293900
C12   C     C_3   0.946420 0.395961 0.197481 -0.337190
C13   C     C_R   0.962314 0.999328 0.289162 0.106608
C14   C     C_3   0.058283 0.388443 0.747285 -0.354509
C15   C     C_3   0.446423 0.895960 0.197492 -0.337222
C16   C     C_3   0.558278 0.888441 0.747280 -0.354500
C17   C     C_3   0.897081 0.284136 0.366510 -0.249115
C18   C     C_3   0.156107 0.259347 0.668017 -0.237060
C19   C     C_3   0.397071 0.784131 0.366504 -0.249120
C20   C     C_3   0.656111 0.759346 0.668020 -0.237064
C21   C     C_3   0.612391 0.753224 0.248723 -0.958696
C22   C     C_3   0.389754 0.749478 0.725848 -0.947936
C23   C     C_3   0.112391 0.253225 0.248718 -0.958697
C24   C     C_R   0.934371 0.998868 0.634108 0.101790
C25   C     C_3   0.889755 0.249481 0.725854 -0.947919
C26   C     C_3   0.235157 0.571555 0.455431 -0.882184
C27   C     C_3   0.254625 0.586797 0.193838 -0.862140
C28   C     C_3   0.735103 0.071420 0.455477 -0.882463
C29   C     C_3   0.754693 0.086717 0.193719 -0.862515
C30   C     C_R   0.176941 0.499272 0.677470 -0.051048
C31   C     C_R   0.824327 0.501662 0.281665 -0.032551
C32   C     C_R   0.676939 0.999271 0.677481 -0.051053
C33   C     C_R   0.324328 0.001664 0.281674 -0.032563
C34   C     C_2   0.977485 0.461986 0.400545 -0.153542
C35   C     C_2   0.071316 0.472601 0.494152 -0.259809
C36   C     C_2   0.477486 0.961989 0.400553 -0.153634
C37   C     C_R   0.679662 0.365567 0.088378 -0.119189
C38   C     C_2   0.571316 0.972602 0.494163 -0.259780
C39   C     C_2   0.926020 0.503883 0.336857 0.613865
C40   C     C_2   0.081654 0.497356 0.579892 0.580606
C41   C     C_2   0.426022 0.003888 0.336875 0.613884
C42   C     C_2   0.581652 0.997354 0.579904 0.580658
C43   C     C_R   0.393945 0.770848 0.088454 0.011820
C44   C     C_R   0.601217 0.771241 0.901789 0.030736
C45   C     C_R   0.893943 0.270848 0.088454 0.011817
C46   C     C_R   0.101218 0.271242 0.901791 0.030735
C47   C     C_R   0.360335 0.740330 0.994090 0.079496
C48   C     C_R   0.817844 0.867322 0.908338 -0.106080
C49   C     C_R   0.634610 0.741541 0.998229 0.071442
C50   C     C_R   0.860334 0.240329 0.994090 0.079501
C51   C     C_R   0.134612 0.241540 0.998230 0.071442
C52   C     C_R   0.284001 0.762471 0.894364 -0.193115
C53   C     C_R   0.707796 0.765436 0.097678 -0.185947
C54   C     C_R   0.783998 0.262470 0.894364 -0.193118
C55   C     C_R   0.207799 0.265435 0.097679 -0.185941
C56   C     C_R   0.727955 0.302925 0.894808 -0.165419
C57   C     C_R   0.264087 0.305967 0.097591 -0.164683
C58   C     C_R   0.227957 0.802927 0.894808 -0.165419
C59   C     C_R   0.179665 0.865569 0.088379 -0.119182
C60   C     C_R   0.764083 0.805969 0.097590 -0.164687
C61   C     C_R   0.747414 0.321409 0.994763 0.056145
C62   C     C_R   0.248718 0.321498 0.998313 0.070342
C63   C     C_R   0.247416 0.821410 0.994763 0.056144
C64   C     C_R   0.748715 0.821500 0.998313 0.070340
C65   C     C_R   0.443154 0.651393 0.089135 -0.135986
C66   C     C_R   0.555800 0.650984 0.908656 -0.135236
C67   C     C_R   0.943153 0.151393 0.089135 -0.135973
C68   C     C_R   0.055800 0.150984 0.908656 -0.135217
C69   C     C_R   0.834966 0.307132 0.089377 -0.112319
C70   C     C_R   0.383701 0.683088 0.997615 0.073551
C71   C     C_R   0.160540 0.308947 0.902025 -0.129601
C72   C     C_R   0.334968 0.807132 0.089378 -0.112320
C73   C     C_R   0.660539 0.808947 0.902024 -0.129600
C74   C     C_3   0.891485 0.308292 0.212236 1.018051
C75   C     C_3   0.123237 0.298105 0.784441 1.016095
C76   C     C_3   0.391483 0.808291 0.212236 1.018056
C77   C     C_3   0.623238 0.798104 0.784441 1.016093
C78   C     C_3   0.456030 0.765622 0.211449 -0.232308
C79   C     C_3   0.554683 0.757448 0.782700 -0.235613
C80   C     C_3   0.956032 0.265624 0.211448 -0.232309
C81   C     C_R   0.614576 0.683550 0.998322 0.080214
C82   C     C_3   0.054682 0.257449 0.782701 -0.235615
C83   C     C_R   0.415008 0.446894 0.484004 0.133928
C84   C     C_R   0.424264 0.447320 0.399550 0.129223
C85   C     C_R   0.915067 0.946886 0.484050 0.133865
C86   C     C_R   0.924334 0.947315 0.399605 0.129153
C87   C     C_R   0.399573 0.495443 0.519601 -0.044918
C88   C     C_R   0.418474 0.496421 0.347953 -0.049165
C89   C     C_R   0.899578 0.995429 0.519609 -0.044678
C90   C     C_R   0.918512 0.996414 0.347990 -0.049069
C91   C     C_R   0.363993 0.541009 0.447926 0.084123
C92   C     C_R   0.883700 0.183088 0.997615 0.073543
C93   C     C_R   0.375732 0.541966 0.361400 0.066410
C94   C     C_R   0.863959 0.040985 0.447906 0.083978
C95   C     C_R   0.875729 0.041949 0.361404 0.066389
C96   C     C_3   0.499813 0.404405 0.453084 -0.501592
C97   C     C_3   0.489433 0.404046 0.545751 -0.498952
C98   C     C_3   0.999923 0.904424 0.453172 -0.501556
C99   C     C_3   0.989532 0.904062 0.545832 -0.498941
C100  C     C_R   0.489831 0.454035 0.259194 -0.148967
C101  C     C_R   0.448389 0.453890 0.697033 -0.164752
C102  C     C_R   0.989850 0.954033 0.259212 -0.148975
C103  C     C_R   0.114576 0.183550 0.998322 0.080206
C104  C     C_R   0.948391 0.953887 0.697038 -0.164734
C105  C     C_R   0.232523 0.545508 0.722572 -0.142029
C106  C     C_R   0.766635 0.546486 0.248637 -0.079923
C107  C     C_R   0.732521 0.045507 0.722579 -0.142129
C108  C     C_R   0.266634 0.046487 0.248640 -0.079937
C109  C     C_R   0.487479 0.545439 0.256829 -0.116022
C110  C     C_R   0.453364 0.544860 0.697681 -0.119165
C111  C     C_R   0.987493 0.045439 0.256845 -0.116023
C112  C     C_R   0.953357 0.044857 0.697675 -0.119290
C113  C     C_R   0.233814 0.453721 0.719694 -0.174454
C114  C     C_R   0.462288 0.499330 0.289136 0.106631
C115  C     C_R   0.769244 0.455225 0.259461 -0.169727
C116  C     C_R   0.733813 0.953720 0.719700 -0.174464
C117  C     C_R   0.269245 0.955226 0.259467 -0.169719
C118  C     C_R   0.352306 0.650843 0.907314 -0.143704
C119  C     C_R   0.646223 0.651737 0.090171 -0.146315
C120  C     C_R   0.852306 0.150843 0.907314 -0.143701
C121  C     C_R   0.146222 0.151737 0.090171 -0.146314
C122  C     C_R   0.412034 0.362486 0.090095 -0.135033
C123  C     C_R   0.591135 0.369733 0.905880 -0.127539
C124  C     C_R   0.912031 0.862489 0.090096 -0.135028
H1    H     H_    0.261934 0.361262 0.824356 0.158183
H2    H     H_    0.325650 0.319227 0.175619 0.111071
H3    H     H_    0.373226 0.707715 0.690422 0.233315
H4    H     H_    0.083568 0.297868 0.342363 0.202569
H5    H     H_    0.179797 0.275514 0.282832 0.248387
H6    H     H_    0.079042 0.245319 0.160717 0.271572
H7    H     H_    0.128371 0.214044 0.293881 0.233891
H8    H     H_    0.932376 0.279271 0.631359 0.199696
H9    H     H_    0.823302 0.273408 0.681735 0.250773
H10   H     H_    0.916857 0.247659 0.813439 0.266565
H11   H     H_    0.873226 0.207718 0.690427 0.233329
H12   H     H_    0.316421 0.622039 0.429222 0.167102
H13   H     H_    0.164966 0.814878 0.816990 0.115856
H14   H     H_    0.210295 0.607804 0.476257 0.233987
H15   H     H_    0.247394 0.537971 0.512321 0.252500
H16   H     H_    0.179280 0.559025 0.370099 0.268898
H17   H     H_    0.369655 0.625873 0.330839 0.153268
H18   H     H_    0.243098 0.622568 0.141606 0.250733
H19   H     H_    0.202736 0.588218 0.214531 0.250526
H20   H     H_    0.243464 0.548968 0.146899 0.251680
H21   H     H_    0.816101 0.121963 0.428953 0.167205
H22   H     H_    0.709978 0.107697 0.475865 0.234138
H23   H     H_    0.747570 0.038002 0.512752 0.252484
H24   H     H_    0.825645 0.819230 0.175618 0.111079
H25   H     H_    0.679324 0.058630 0.370312 0.268991
H26   H     H_    0.869522 0.125862 0.330789 0.153336
H27   H     H_    0.743137 0.122514 0.141532 0.250765
H28   H     H_    0.702701 0.088032 0.214249 0.250635
H29   H     H_    0.743731 0.048918 0.146812 0.251759
H30   H     H_    0.453276 0.725405 0.244205 0.124528
H31   H     H_    0.564917 0.715224 0.764838 0.125161
H32   H     H_    0.953280 0.225408 0.244208 0.124538
H33   H     H_    0.064914 0.215225 0.764837 0.125166
H34   H     H_    0.476606 0.365251 0.406942 0.182895
H35   H     H_    0.553847 0.419156 0.623584 0.201268
H36   H     H_    0.976755 0.865262 0.407056 0.182894
H37   H     H_    0.729648 0.352792 0.170369 0.165470
H38   H     H_    0.053928 0.919193 0.623658 0.201277
H39   H     H_    0.570069 0.419766 0.477972 0.200948
H40   H     H_    0.460101 0.364903 0.552225 0.183807
H41   H     H_    0.070165 0.919807 0.478054 0.200954
H42   H     H_    0.960236 0.864910 0.552328 0.183801
H43   H     H_    0.490049 0.664552 0.172263 0.109402
H44   H     H_    0.506842 0.663168 0.825346 0.113958
H45   H     H_    0.990048 0.164552 0.172264 0.109403
H46   H     H_    0.006842 0.163168 0.825346 0.113959
H47   H     H_    0.485243 0.412387 0.276617 0.104287
H48   H     H_    0.761935 0.861261 0.824357 0.158184
H49   H     H_    0.425033 0.412555 0.668488 0.105316
H50   H     H_    0.985271 0.912385 0.276644 0.104284
H51   H     H_    0.925041 0.912550 0.668497 0.105312
H52   H     H_    0.212550 0.587585 0.697696 0.089443
H53   H     H_    0.786007 0.588966 0.254421 0.106015
H54   H     H_    0.712546 0.087584 0.697705 0.089485
H55   H     H_    0.286003 0.088967 0.254423 0.106021
H56   H     H_    0.480159 0.587894 0.269696 0.110045
H57   H     H_    0.440017 0.587030 0.671286 0.113893
H58   H     H_    0.980173 0.087893 0.269716 0.110098
H59   H     H_    0.229653 0.852796 0.170371 0.165469
H60   H     H_    0.939993 0.087024 0.671260 0.113916
H61   H     H_    0.214365 0.412757 0.687186 0.124868
H62   H     H_    0.794158 0.414225 0.284506 0.119464
H63   H     H_    0.714363 0.912757 0.687191 0.124872
H64   H     H_    0.294159 0.914226 0.284516 0.119460
H65   H     H_    0.315822 0.663888 0.823276 0.092539
H66   H     H_    0.682102 0.665611 0.173475 0.093000
H67   H     H_    0.815822 0.163888 0.823276 0.092546
H68   H     H_    0.182101 0.165611 0.173475 0.093000
H69   H     H_    0.445365 0.347112 0.171819 0.086551
H70   H     H_    0.259164 0.744479 0.816387 0.121404
H71   H     H_    0.562963 0.365296 0.820596 0.091871
H72   H     H_    0.945358 0.847117 0.171821 0.086548
H73   H     H_    0.062964 0.865295 0.820596 0.091870
H74   H     H_    0.945255 0.425794 0.407746 0.139950
H75   H     H_    0.130732 0.457354 0.495588 0.120715
H76   H     H_    0.445258 0.925792 0.407739 0.139979
H77   H     H_    0.630733 0.957358 0.495598 0.120751
H78   H     H_    0.937351 0.590269 0.423830 0.144583
H79   H     H_    0.966393 0.631092 0.347548 0.151456
H80   H     H_    0.057489 0.593406 0.463835 0.151145
H81   H     H_    0.732472 0.747744 0.175857 0.121489
H82   H     H_    0.060588 0.581777 0.676589 0.141858
H83   H     H_    0.067182 0.517115 0.743281 0.151224
H84   H     H_    0.957694 0.552656 0.658267 0.176538
H85   H     H_    0.437315 0.090265 0.423855 0.144587
H86   H     H_    0.466364 0.131101 0.347595 0.151441
H87   H     H_    0.557459 0.093420 0.463891 0.151110
H88   H     H_    0.560581 0.081773 0.676596 0.141859
H89   H     H_    0.567183 0.017113 0.743298 0.151234
H90   H     H_    0.457691 0.052650 0.658281 0.176542
H91   H     H_    0.878354 0.416830 0.138155 0.166073
H92   H     H_    0.759161 0.244478 0.816387 0.121407
H93   H     H_    0.973113 0.375813 0.154211 0.170128
H94   H     H_    0.999687 0.427496 0.250051 0.197500
H95   H     H_    0.124251 0.409934 0.811195 0.156153
H96   H     H_    0.015869 0.377286 0.778572 0.172925
H97   H     H_    0.015388 0.417254 0.678401 0.221508
H98   H     H_    0.378358 0.916829 0.138166 0.166076
H99   H     H_    0.473117 0.875813 0.154222 0.170134
H100  H     H_    0.499690 0.927494 0.250066 0.197477
H101  H     H_    0.624245 0.909934 0.811189 0.156153
H102  H     H_    0.515865 0.877283 0.778567 0.172923
H103  H     H_    0.232477 0.247742 0.175858 0.121487
H104  H     H_    0.515381 0.917250 0.678394 0.221519
H105  H     H_    0.902170 0.325778 0.398813 0.180798
H106  H     H_    0.968905 0.267392 0.402738 0.117309
H107  H     H_    0.862193 0.257430 0.393302 0.155779
H108  H     H_    0.154741 0.297163 0.625727 0.171181
H109  H     H_    0.084681 0.240244 0.622210 0.113095
H110  H     H_    0.204279 0.230067 0.667336 0.160783
H111  H     H_    0.402161 0.825773 0.398810 0.180799
H112  H     H_    0.468895 0.767386 0.402734 0.117302
H113  H     H_    0.362180 0.757424 0.393291 0.155784
H114  H     H_    0.664963 0.314875 0.816990 0.115856
H115  H     H_    0.654745 0.797162 0.625729 0.171184
H116  H     H_    0.584686 0.740243 0.622212 0.113087
H117  H     H_    0.704284 0.730067 0.667340 0.160782
H118  H     H_    0.583566 0.797864 0.342369 0.202569
H119  H     H_    0.679797 0.775514 0.282839 0.248387
H120  H     H_    0.579043 0.745319 0.160722 0.271572
H121  H     H_    0.628371 0.714043 0.293884 0.233891
H122  H     H_    0.432378 0.779269 0.631355 0.199694
H123  H     H_    0.323301 0.773405 0.681728 0.250775
H124  H     H_    0.416855 0.747656 0.813433 0.266568
N1    N     N_R   0.395410 0.396350 0.944340 -0.048323
N2    N     N_R   0.474920 0.471030 0.794350 -0.040252
N3    N     N_R   0.025080 0.971030 0.205650 -0.041793
N4    N     N_R   0.974920 0.971030 0.794350 -0.040248
N5    N     N_R   0.320260 0.527820 0.794570 -0.029705
N6    N     N_R   0.679740 0.527820 0.205430 -0.045647
N7    N     N_R   0.820260 0.027820 0.794570 -0.029707
N8    N     N_R   0.179740 0.027820 0.205430 -0.045644
N9    N     N_R   0.524590 0.527840 0.205200 -0.048571
N10   N     N_R   0.475410 0.527840 0.794800 -0.044146
N11   N     N_R   0.024590 0.027840 0.205200 -0.048573
N12   N     N_R   0.604590 0.396350 0.055660 -0.046090
N13   N     N_R   0.975410 0.027840 0.794800 -0.044132
N14   N     N_R   0.320750 0.471000 0.795020 -0.033858
N15   N     N_R   0.679250 0.471000 0.204980 -0.035212
N16   N     N_R   0.820750 0.971000 0.795020 -0.033857
N17   N     N_R   0.179250 0.971000 0.204980 -0.035211
N18   N     N_R   0.393620 0.602490 0.942710 -0.036278
N19   N     N_R   0.606380 0.602490 0.057290 -0.038452
N20   N     N_R   0.893620 0.102490 0.942710 -0.036276
N21   N     N_R   0.106380 0.102490 0.057290 -0.038453
N22   N     N_R   0.451720 0.396350 0.057510 -0.040197
N23   N     N_R   0.895410 0.896350 0.944340 -0.048322
N24   N     N_R   0.548280 0.396350 0.942490 -0.039577
N25   N     N_R   0.951720 0.896350 0.057510 -0.040198
N26   N     N_R   0.048280 0.896350 0.942490 -0.039577
N27   N     N_2   0.551312 0.786290 0.262069 -0.082195
N28   N     N_2   0.457159 0.775906 0.712440 -0.083593
N29   N     N_2   0.051313 0.286292 0.262064 -0.082195
N30   N     N_2   0.957159 0.275909 0.712444 -0.083594
N31   N     N_2   0.321194 0.585335 0.465766 -0.122270
N32   N     N_2   0.349739 0.588456 0.292308 -0.116999
N33   N     N_2   0.821050 0.085281 0.465661 -0.122240
N34   N     N_R   0.104590 0.896350 0.055660 -0.046091
N35   N     N_2   0.849725 0.088437 0.292301 -0.117023
N36   N     N_R   0.449930 0.602500 0.055880 -0.039720
N37   N     N_R   0.550070 0.602500 0.944120 -0.039735
N38   N     N_R   0.949930 0.102500 0.055880 -0.039723
N39   N     N_R   0.050070 0.102500 0.944120 -0.039731
N40   N     N_R   0.525080 0.471030 0.205650 -0.041795
Ni1   Ni    Ni4+2 0.435420 0.434270 0.870230 0.215697
Ni2   Ni    Ni4+2 0.564580 0.434270 0.129770 0.223638
Ni3   Ni    Ni4+2 0.935420 0.934270 0.870230 0.215693
Ni4   Ni    Ni4+2 0.064580 0.934270 0.129770 0.223637
Ni5   Ni    Ni4+2 0.563430 0.564580 0.128740 0.205098
Ni6   Ni    Ni4+2 0.436570 0.564580 0.871260 0.206653
Ni7   Ni    Ni4+2 0.063430 0.064580 0.128740 0.205095
Ni8   Ni    Ni4+2 0.936570 0.064580 0.871260 0.206648
O1    O     O_3   0.968127 0.548591 0.323100 -0.619055
O2    O     O_3   0.191645 0.270701 0.777843 -0.659311
O3    O     O_3   0.341188 0.784745 0.250978 -0.673849
O4    O     O_3   0.691647 0.770700 0.777845 -0.659311
O5    O     O_3   0.001881 0.513883 0.574480 -0.635547
O6    O     O_3   0.468133 0.048604 0.323145 -0.619053
O7    O     O_3   0.501878 0.013875 0.574497 -0.635549
O8    O     O_3   0.936158 0.359365 0.263763 -0.669480
O9    O     O_3   0.078723 0.342448 0.707761 -0.663597
O10   O     O_3   0.436157 0.859363 0.263769 -0.669476
O11   O     O_3   0.578724 0.842447 0.707759 -0.663599
O12   O     O_3   0.841194 0.284748 0.250983 -0.673855

loop_
_geom_bond_atom_site_label_1
_geom_bond_atom_site_label_2
_ccdc_geom_bond_type
C123  N24   A    
C79   N28   S    
C87   C91   A    
C101  N2    A    
N26   N34   A    
C105  N5    A    
C121  H68   S    
C90   C95   A    
C112  H60   S    
C67   H45   S    
C54   H92   S    
C16   H102  S    
N2    Ni1   S    
C97   H35   S    
C56   H114  S    
C5    C37   A    
C34   C35   S    
C89   C94   A    
C48   N23   A    
C105  H52   S    
C27   H19   S    
C25   H9    S    
C106  H53   S    
C14   H96   S    
C7    C59   A    
C12   H94   S    
C76   O10   S    
C77   C79   S    
C20   H117  S    
N12   Ni2   S    
C45   C69   A    
C8    H80   S    
H12   N31   S    
C26   H15   S    
C86   C90   A    
C115  H62   S    
C111  H58   S    
C102  N3    A    
C23   H6    S    
C116  N16   A    
C99   H38   S    
C12   O8    S    
C97   H40   S    
N1    Ni1   S    
C4    C122  A    
C69   C74   S    
C32   C116  A    
C52   C58   A    
N34   Ni4   S    
C59   N34   A    
C95   N35   S    
C55   C57   A    
C80   N29   S    
C103  C121  A    
C3    N26   A    
N18   N36   A    
C16   H104  S    
C28   H23   S    
N1    N22   A    
C44   C79   S    
C84   C88   A    
N7    Ni8   S    
C10   O6    S    
N8    Ni7   S    
C17   H106  S    
C18   H110  S    
C47   C52   A    
H8    N30   S    
C81   C119  A    
C3    C7    A    
C60   C64   A    
N4    Ni3   S    
C75   O2    S    
C35   C40   D    
C22   H124  S    
C22   H3    S    
C45   C50   A    
C49   C53   A    
C67   C92   A    
N5    Ni6   S    
C45   C80   S    
C51   C55   A    
H26   N35   S    
C40   O5    S    
C25   H11   S    
N21   Ni7   S    
C11   H90   S    
C79   H31   S    
C98   C99   S    
C73   C77   S    
C60   H24   S    
C43   C47   A    
C30   C113  A    
C104  N4    A    
C101  H49   S    
C24   C112  A    
C68   C103  A    
H21   N33   S    
C19   H112  S    
C35   H75   S    
C85   C86   A    
C76   C78   S    
H118  N27   S    
C110  N10   A    
N24   Ni1   S    
C118  H65   S    
C1    N1    A    
C6    C64   S    
C65   C70   A    
C55   H103  S    
C15   H100  S    
C46   C82   S    
C10   H86   S    
C110  H57   S    
C8    O1    S    
C64   C73   A    
C21   H119  S    
C28   H25   S    
C15   H99   S    
C82   N30   S    
C33   C108  A    
C31   C115  A    
C53   C60   A    
C42   O7    S    
C116  H63   S    
C23   H7    S    
C34   C39   D    
C100  C114  A    
C120  H67   S    
C20   H116  S    
C46   C51   A    
N9    N40   A    
C108  H55   S    
N40   Ni2   S    
N20   Ni8   S    
C91   N31   S    
C85   C99   S    
C11   H88   S    
C29   H27   S    
C68   N39   A    
C124  N25   A    
C34   H74   S    
C83   C84   A    
C113  H61   S    
C124  H72   S    
C107  N7    A    
C2    C87   S    
C63   C72   A    
C59   H59   S    
C7    C63   S    
C109  C114  A    
C98   H36   S    
C21   H120  S    
C30   C105  A    
C14   O9    S    
C121  N21   A    
C74   O12   S    
C15   O10   S    
C25   N30   S    
C117  H64   S    
C76   O3    S    
C41   O6    S    
C75   C82   S    
C27   N32   S    
C100  N40   A    
C28   H22   S    
N14   Ni1   S    
C15   H98   S    
C92   C120  A    
C13   C111  A    
C109  H56   S    
C70   C118  A    
C17   O12   S    
C31   C106  A    
C62   C71   A    
C65   N36   A    
C113  N14   A    
N19   N37   A    
C13   C102  A    
C117  N17   A    
N5    N14   A    
C83   C87   A    
N8    N17   A    
C120  N20   A    
C13   C90   S    
C106  N6    A    
C14   H97   S    
C119  H66   S    
N6    Ni5   S    
C23   N29   S    
C43   C78   S    
C50   C54   A    
N23   Ni3   S    
C67   N38   A    
C26   H16   S    
C9    H82   S    
C19   H113  S    
C51   C103  S    
C4    C62   S    
C23   H5    S    
C49   C81   S    
N19   Ni5   S    
N3    N11   A    
C68   H46   S    
C32   C107  A    
N37   Ni6   S    
C74   O8    S    
N9    Ni5   S    
C112  N13   A    
N11   Ni7   S    
C74   C80   S    
C108  N8    A    
N3    Ni4   S    
C123  H71   S    
C36   C41   D    
C21   N27   S    
C111  N11   A    
C26   N31   S    
C22   N28   S    
C28   N33   S    
C16   H101  S    
C17   H105  S    
C78   H30   S    
N16   Ni3   S    
N12   N24   A    
C91   C93   A    
C16   O11   S    
C27   H20   S    
C39   O1    S    
C25   H10   S    
C46   C71   A    
C11   H89   S    
C94   N33   S    
C18   O2    S    
C9    H83   S    
C14   H95   S    
C122  H69   S    
C12   H93   S    
C37   H37   S    
C2    C110  A    
C85   C89   A    
C8    H79   S    
C36   H76   S    
H17   N32   S    
C26   H14   S    
C9    H84   S    
C19   H111  S    
N22   Ni2   S    
C65   H43   S    
C66   H44   S    
N18   Ni6   S    
C33   C41   S    
C36   C38   S    
C66   C81   A    
C77   O11   S    
H122  N28   S    
N38   Ni7   S    
C88   C114  S    
C44   C73   A    
C86   C98   S    
C122  N22   A    
C10   H87   S    
N7    N16   A    
C83   C97   S    
C32   C42   S    
C56   C61   A    
C12   H91   S    
C44   C49   A    
C96   H34   S    
C33   C117  A    
C43   C72   A    
C37   N12   A    
C6    C124  A    
C72   C76   S    
C24   C89   S    
C17   H107  S    
C18   H109  S    
C57   C62   A    
C6    C48   A    
C1    H1    S    
C38   C42   D    
C22   H123  S    
C75   O9    S    
C27   H18   S    
N39   Ni8   S    
C84   C96   S    
C93   N32   S    
C3    H73   S    
C48   H48   S    
C19   O3    S    
C38   H77   S    
N17   Ni4   S    
C53   H81   S    
N25   Ni4   S    
N26   Ni3   S    
C99   H42   S    
C118  N18   A    
C100  H47   S    
C78   N27   S    
C80   H32   S    
C104  H51   S    
C54   C56   A    
C52   H70   S    
C57   H2    S    
C82   H33   S    
C21   H121  S    
C2    C101  A    
C24   C104  A    
C47   C70   S    
C9    O5    S    
N10   Ni6   S    
C10   H85   S    
C11   O7    S    
C29   N35   S    
C119  N19   A    
C96   C97   S    
C30   C40   S    
C94   C95   A    
C115  N15   A    
N4    N13   A    
C77   O4    S    
C58   H13   S    
C50   C92   S    
N6    N15   A    
C107  H54   S    
N15   Ni2   S    
H4    N29   S    
C29   H29   S    
C61   C69   A    
C58   C63   A    
N23   N25   A    
C88   C93   A    
N20   N38   A    
N21   N39   A    
C66   N37   A    
C102  H50   S    
C20   H115  S    
C5    C123  A    
C96   H39   S    
C1    C4    A    
C8    H78   S    
C18   H108  S    
C29   H28   S    
C71   C75   S    
N36   Ni5   S    
C20   O4    S    
C31   C39   S    
C109  N9    A    
C98   H41   S    
N13   Ni8   S    
N2    N10   A    
C5    C61   S    
