data_mof_unit_53359.cif
_audit_creation_date              2012-12-10T17:36:49-0500
_audit_creation_method            fapswitch 2.2
_symmetry_space_group_name_H-M    P1
_symmetry_Int_Tables_number       1
_space_group_crystal_system       triclinic
_cell_length_a                    10.610913
_cell_length_b                    12.336593
_cell_length_c                    13.279036
_cell_angle_alpha                 116.461274
_cell_angle_beta                  77.16837
_cell_angle_gamma                 101.714122
_cell_volume                      1506.46753768

loop_
_atom_site_label
_atom_site_type_symbol
_atom_type_description
_atom_site_fract_x
_atom_site_fract_y
_atom_site_fract_z
_atom_type_partial_charge
C1    C     C_R   0.507562 0.854780 0.287304 0.839063
C2    C     C_3   0.009748 0.972721 0.585611 -0.133751
C3    C     C_3   0.936352 0.888534 0.484123 -0.209496
C4    C     C_3   0.877113 0.999269 0.498961 -0.022166
C5    C     C_R   0.331098 0.270433 0.021455 -0.259662
C6    C     C_R   0.453008 0.226478 0.833983 -0.148756
C7    C     C_R   0.583193 0.815643 0.086724 -0.196123
C8    C     C_R   0.610719 0.737368 0.973170 -0.142232
C9    C     C_R   0.570870 0.613345 0.936902 -0.153731
C10   C     C_R   0.495813 0.564783 0.013225 0.036290
C11   C     C_R   0.452403 0.647276 0.127114 -0.004267
C12   C     C_R   0.740519 0.999053 0.498480 0.803265
C13   C     C_R   0.459267 0.437194 0.978505 0.074375
C14   C     C_R   0.374304 0.394656 0.054703 0.039875
C15   C     C_R   0.323257 0.475816 0.160831 -0.325507
C16   C     C_R   0.353850 0.602694 0.197200 0.455230
C17   C     C_R   0.503170 0.349787 0.869801 -0.313118
C18   C     C_R   0.364584 0.186951 0.910220 0.458409
C19   C     C_R   0.508808 0.772140 0.165592 -0.089420
C20   C     C_R   0.700779 0.344017 0.323182 -0.318178
C21   C     C_R   0.323820 0.757723 0.644561 0.064548
C22   C     C_R   0.284954 0.660424 0.675245 -0.249728
C23   C     C_R   0.480333 0.144928 0.713128 0.811248
C24   C     C_R   0.351217 0.557756 0.620749 -0.200592
C25   C     C_R   0.457750 0.550959 0.534026 -0.011421
C26   C     C_R   0.493420 0.652995 0.504842 0.278086
C27   C     C_R   0.529272 0.446738 0.474568 -0.024068
C28   C     C_R   0.631042 0.445066 0.384690 0.176193
C29   C     C_R   0.664074 0.544820 0.357449 -0.297713
C30   C     C_R   0.598254 0.646874 0.417145 -0.191754
C31   C     C_R   0.504738 0.343160 0.499721 -0.000564
C32   C     C_R   0.671163 0.245141 0.351532 0.086767
C33   C     C_R   0.259242 0.001050 0.501837 0.808931
C34   C     C_3   0.990333 0.026424 0.417178 0.518002
C35   C     C_3   0.051081 0.915532 0.400195 -0.258032
C36   C     C_3   0.122111 0.000649 0.502041 -0.033893
C37   C     C_3   0.062972 0.112210 0.517674 -0.231733
C38   C     C_3   0.948147 0.083493 0.600651 -0.229436
Cu1   Cu    Cu3+1 0.529830 0.098270 0.475420 0.938427
Cu2   Cu    Cu3+1 0.470170 0.901730 0.524580 0.943088
H1    H     H_    0.096332 0.848553 0.317829 0.159642
H2    H     H_    0.574201 0.375026 0.809801 0.166329
H3    H     H_    0.624456 0.910319 0.113410 0.156572
H4    H     H_    0.598159 0.558492 0.847641 0.128523
H5    H     H_    0.667926 0.772448 0.913322 0.145749
H6    H     H_    0.743276 0.544794 0.289870 0.154297
H7    H     H_    0.429670 0.337036 0.567087 0.123535
H8    H     H_    0.271367 0.836091 0.686855 0.146508
H9    H     H_    0.316349 0.484812 0.647388 0.135705
H10   H     H_    0.202867 0.664573 0.741451 0.146481
H11   H     H_    0.633332 0.719091 0.391195 0.202099
H12   H     H_    0.117702 0.203485 0.532698 0.141586
H13   H     H_    0.018092 0.947663 0.653829 0.124919
H14   H     H_    0.880024 0.798577 0.472465 0.160607
H15   H     H_    0.253242 0.436966 0.211641 0.149479
N1    N     N_R   0.575030 0.246270 0.438190 -0.182086
N2    N     N_R   0.425760 0.754330 0.561190 -0.217511
O1    O     O_R   0.537510 0.972500 0.318130 -0.593676
O2    O     O_R   0.487140 0.806530 0.359650 -0.577968
O3    O     O_R   0.708330 0.082950 0.479220 -0.557761
O4    O     O_R   0.657960 0.916980 0.520740 -0.609040
O5    O     O_R   0.512860 0.193470 0.640350 -0.599519
O6    O     O_R   0.462490 0.027500 0.681870 -0.539752
O7    O     O_R   0.342040 0.083020 0.479260 -0.599361
O8    O     O_R   0.291670 0.917050 0.520780 -0.605578
O9    O     O_3   0.276352 0.684412 0.288522 -0.616948
C39   C     C_3   0.208816 0.640584 0.370970 0.129854
H16   H     H_    0.201894 0.718315 0.454749 0.203063
H17   H     H_    0.262453 0.578711 0.381685 0.111879
C40   C     C_3   0.067892 0.587212 0.351300 -0.411752
H18   H     H_    0.019930 0.653037 0.341498 0.228024
H19   H     H_    0.063260 0.501933 0.272387 0.208561
C41   C     C_3   0.992174 0.561144 0.451815 -0.927477
H20   H     H_    0.891111 0.522083 0.436562 0.273706
H21   H     H_    0.988787 0.646718 0.531278 0.252461
H22   H     H_    0.038647 0.495017 0.462927 0.259781
H23   H     H_    0.724757 0.167035 0.304299 0.145973
H24   H     H_    0.778585 0.342029 0.254118 0.140634
O10   O     O_3   0.972617 0.051658 0.327791 -0.623934
C42   C     C_3   0.094565 0.087752 0.275251 0.064733
H25   H     H_    0.092811 0.046898 0.182421 0.140119
H26   H     H_    0.177640 0.051489 0.284443 0.147103
C43   C     C_3   0.117341 0.227290 0.318718 -0.373041
H27   H     H_    0.083725 0.254843 0.260889 0.194519
H28   H     H_    0.059962 0.270745 0.404409 0.235311
C44   C     C_3   0.260648 0.275479 0.326879 -0.907715
H29   H     H_    0.293611 0.250682 0.386630 0.268156
H30   H     H_    0.273941 0.376222 0.359600 0.249400
H31   H     H_    0.321379 0.236278 0.242345 0.262633
H32   H     H_    0.902801 0.151205 0.682507 0.140435
O11   O     O_3   0.305251 0.068110 0.875274 -0.603500
C45   C     C_3   0.175687 0.062630 0.859648 0.033387
H33   H     H_    0.167404 0.002519 0.769479 0.148779
H34   H     H_    0.145849 0.151797 0.876334 0.117199
C46   C     C_3   0.081057 0.008967 0.935513 -0.341692
H35   H     H_    0.114187 0.924280 0.925402 0.227763
H36   H     H_    0.079814 0.076356 0.025415 0.201132
C47   C     C_3   0.943001 0.979588 0.907020 -0.934397
H37   H     H_    0.909477 0.061735 0.911938 0.257745
H38   H     H_    0.875969 0.948765 0.968864 0.257062
H39   H     H_    0.939350 0.905259 0.820284 0.248522
H40   H     H_    0.262895 0.238610 0.079209 0.146288

loop_
_geom_bond_atom_site_label_1
_geom_bond_atom_site_label_2
_ccdc_geom_bond_type
C30   H11   S    
C34   C37   S    
C41   H20   S    
C35   C36   S    
C46   C47   S    
C33   O8    A    
C7    C8    A    
Cu1   O7    S    
C11   C19   A    
C29   C30   A    
Cu2   O6    S    
C18   O11   S    
C28   C29   A    
C1    O2    A    
C3    H14   S    
C44   H30   S    
C6    C23   S    
C15   C16   A    
C33   C36   S    
C34   C35   S    
C6    C17   A    
C17   H2    S    
C32   H23   S    
C8    H5    S    
C23   O5    A    
Cu1   N1    S    
C8    C9    A    
C40   H18   S    
C7    H3    S    
C31   N1    A    
C4    C12   S    
C9    C10   A    
C22   H10   S    
C21   H8    S    
C23   O6    A    
O9    C39   S    
Cu2   O2    S    
C31   H7    S    
C21   C22   A    
C41   H21   S    
C42   C43   S    
C6    C18   A    
C4    C34   S    
C1    C19   S    
C27   C31   A    
C39   H16   S    
C24   C25   A    
C42   H26   S    
O11   C45   S    
C37   H12   S    
C44   H29   S    
C5    C18   A    
C20   C28   A    
C25   C26   A    
Cu1   O1    S    
C2    H13   S    
C45   C46   S    
Cu2   O4    S    
C44   H31   S    
C39   H17   S    
C15   H15   S    
C21   N2    A    
C37   C38   S    
C34   O10   S    
C11   C16   A    
C2    C38   S    
C43   H27   S    
C3    C35   S    
C40   C41   S    
C45   H34   S    
C5    C14   A    
C43   H28   S    
C4    C38   S    
C26   C30   A    
C7    C19   A    
Cu2   O8    S    
C41   H22   S    
C22   C24   A    
C16   O9    S    
C3    C4    S    
Cu1   Cu2   S    
C20   C32   A    
C2    C36   S    
C24   H9    S    
Cu1   O5    S    
C5    H40   S    
C36   C37   S    
C9    H4    S    
Cu2   N2    S    
C42   H25   S    
C10   C13   A    
C46   H36   S    
C20   H24   S    
C25   C27   A    
C47   H39   S    
C38   H32   S    
C47   H38   S    
C13   C17   A    
C29   H6    S    
C39   C40   S    
C2    C3    S    
C1    O1    A    
C12   O4    A    
C33   O7    A    
Cu1   O3    S    
C45   H33   S    
C35   H1    S    
C26   N2    A    
C10   C11   A    
O10   C42   S    
C12   O3    A    
C43   C44   S    
C47   H37   S    
C46   H35   S    
C14   C15   A    
C40   H19   S    
C13   C14   A    
C32   N1    A    
C27   C28   A    
