data_mof_unit_58081.cif
_audit_creation_date              2012-12-10T16:50:13-0500
_audit_creation_method            fapswitch 2.2
_symmetry_space_group_name_H-M    P1
_symmetry_Int_Tables_number       1
_space_group_crystal_system       triclinic
_cell_length_a                    7.771893
_cell_length_b                    8.611835
_cell_length_c                    10.614408
_cell_angle_alpha                 90.970204
_cell_angle_beta                  85.630692
_cell_angle_gamma                 93.536716
_cell_volume                      706.95788011

loop_
_atom_site_label
_atom_site_type_symbol
_atom_type_description
_atom_site_fract_x
_atom_site_fract_y
_atom_site_fract_z
_atom_type_partial_charge
C1    C     C_R   0.544629 0.794352 0.491992 0.934485
C2    C     C_R   0.453867 0.205778 0.497617 0.915727
C3    C     C_R   0.499422 0.505766 0.260563 0.845969
C4    C     C_R   0.357934 0.768992 0.880084 -0.251708
C5    C     C_R   0.279390 0.887661 0.950288 0.546774
C6    C     C_R   0.274420 0.883073 0.082946 -0.264886
C7    C     C_R   0.350852 0.764902 0.142426 -0.241556
C8    C     C_R   0.426536 0.642972 0.071630 0.096462
C9    C     C_3   0.218424 0.149517 0.934519 0.082208
C10   C     C_3   0.046496 0.200815 0.996945 -0.364814
C11   C     C_3   0.068015 0.362572 0.056625 -0.899948
C12   C     C_R   0.430656 0.645180 0.939612 0.010656
C13   C     C_1   0.254859 0.987085 0.447863 0.234251
C14   C     C_R   0.509319 0.522848 0.871150 -0.067722
C15   C     C_R   0.588704 0.406089 0.929324 -0.224652
C16   C     C_R   0.582375 0.402819 0.057861 -0.243182
C17   C     C_R   0.500122 0.518159 0.128233 -0.070719
C18   C     C_2   0.564663 0.957841 0.488155 -0.431313
C19   C     C_2   0.427065 0.044219 0.479896 -0.196465
C20   C     C_R   0.503102 0.508145 0.739188 0.855387
H1    H     H_    0.648279 0.313008 0.875181 0.154507
H2    H     H_    0.323204 0.165365 0.000462 0.125543
H3    H     H_    0.950300 0.202326 0.924733 0.232418
H4    H     H_    0.995511 0.117157 0.071127 0.219619
H5    H     H_    0.162094 0.362742 0.130191 0.264342
H6    H     H_    0.942675 0.396674 0.102230 0.273525
H7    H     H_    0.113138 0.449336 0.983331 0.279400
H8    H     H_    0.986202 0.617661 0.594453 0.205144
H9    H     H_    0.362471 0.776684 0.778347 0.177102
H10   H     H_    0.211642 0.970222 0.141276 0.151974
H11   H     H_    0.349185 0.770615 0.244088 0.184958
H12   H     H_    0.637840 0.307494 0.102917 0.154950
H13   H     H_    0.693311 0.008454 0.503182 0.189653
H14   H     H_    0.013857 0.382502 0.405411 0.194107
H15   H     H_    0.257796 0.227829 0.853950 0.178633
N1    N     N_2   0.950330 0.457950 0.466250 -0.168715
N2    N     N_2   0.049670 0.542050 0.533750 -0.163093
N3    N     N_1   0.117960 0.942588 0.422599 -0.214281
O1    O     O_R   0.389250 0.738570 0.508280 -0.612280
O2    O     O_R   0.678390 0.711630 0.486650 -0.613572
O3    O     O_R   0.355400 0.513470 0.694050 -0.625368
O4    O     O_R   0.644540 0.486530 0.672420 -0.616627
O5    O     O_R   0.321610 0.288370 0.513350 -0.620946
O6    O     O_R   0.610750 0.261430 0.491720 -0.619029
O7    O     O_R   0.355460 0.513470 0.327580 -0.639794
O8    O     O_R   0.644600 0.486530 0.305950 -0.613278
O9    O     O_3   0.196513 0.996437 0.884917 -0.649694
Zn1   Zn    Zn3+2 0.306930 0.517990 0.514440 0.951250
Zn2   Zn    Zn3+2 0.693070 0.482010 0.485560 0.954596

loop_
_geom_bond_atom_site_label_1
_geom_bond_atom_site_label_2
_ccdc_geom_bond_type
O6    Zn2   S    
C20   O4    A    
C9    O9    S    
C6    C7    A    
C10   H3    S    
C4    C12   A    
C9    C10   S    
C3    O8    A    
C4    H9    S    
C1    O2    A    
C11   H7    S    
C2    O5    A    
C8    C12   A    
C20   O3    A    
C13   N3    T    
C7    C8    A    
N2    Zn1   S    
C5    O9    S    
O8    Zn2   S    
C1    C18   S    
H8    N2    S    
N1    N2    D    
C6    H10   S    
O3    Zn1   S    
C12   C14   A    
C3    C17   S    
H14   N1    S    
C5    C6    A    
C18   H13   S    
C9    H2    S    
C16   H12   S    
C10   C11   S    
C13   C19   S    
O4    Zn2   S    
C15   C16   A    
C14   C20   S    
C15   H1    S    
C7    H11   S    
C8    C17   A    
C18   C19   D    
O5    Zn1   S    
O7    Zn1   S    
C2    O6    A    
C9    H15   S    
C11   H5    S    
C14   C15   A    
C16   C17   A    
C11   H6    S    
C10   H4    S    
C2    C19   S    
C3    O7    A    
N1    Zn2   S    
O2    Zn2   S    
C1    O1    A    
C4    C5    A    
O1    Zn1   S    
