data_mof_unit_8602.cif
_audit_creation_date              2012-12-10T18:52:59-0500
_audit_creation_method            fapswitch 2.2
_symmetry_space_group_name_H-M    P1
_symmetry_Int_Tables_number       1
_space_group_crystal_system       triclinic
_cell_length_a                    9.828456
_cell_length_b                    10.685931
_cell_length_c                    16.708235
_cell_angle_alpha                 90.543799
_cell_angle_beta                  85.303915
_cell_angle_gamma                 90.473155
_cell_volume                      1748.78353066

loop_
_atom_site_label
_atom_site_type_symbol
_atom_type_description
_atom_site_fract_x
_atom_site_fract_y
_atom_site_fract_z
_atom_type_partial_charge
C1    C     C_R   0.500377 0.740106 0.500223 0.880090
C2    C     C_R   0.499616 0.259893 0.499778 0.876830
C3    C     C_R   0.617772 0.936376 0.470272 -0.167898
C4    C     C_R   0.382159 0.063609 0.529689 -0.183129
C5    C     C_R   0.617338 0.064605 0.469986 -0.199685
C6    C     C_R   0.382598 0.935365 0.529962 -0.201343
C7    C     C_R   0.499426 0.127503 0.499599 0.002205
C8    C     C_R   0.500528 0.872477 0.500362 0.005050
C9    C     C_R   0.932065 0.407378 0.461570 -0.311721
C10   C     C_R   0.068065 0.592849 0.538127 -0.315014
C11   C     C_R   0.077425 0.405516 0.462131 0.596544
C12   C     C_R   0.922885 0.595556 0.536726 0.610972
C13   C     C_R   0.480986 0.503677 0.653730 0.935261
C14   C     C_R   0.518919 0.505202 0.346650 0.952315
C15   C     C_R   0.467286 0.537933 0.739081 -0.237745
C16   C     C_R   0.529489 0.535999 0.261486 -0.223872
C17   C     C_R   0.566019 0.618179 0.769842 0.459811
C18   C     C_R   0.428215 0.491182 0.213194 0.468151
C19   C     C_R   0.539712 0.672631 0.845393 -0.247457
C20   C     C_R   0.429953 0.531350 0.133916 -0.254381
C21   C     C_R   0.424754 0.636969 0.894815 0.066832
C22   C     C_R   0.524548 0.621741 0.104367 0.065208
C23   C     C_R   0.328088 0.555832 0.865421 -0.201841
C24   C     C_R   0.625251 0.665035 0.151806 -0.190503
C25   C     C_R   0.347771 0.506579 0.787952 0.221746
C26   C     C_R   0.628683 0.623561 0.230163 0.205688
C27   C     C_2   0.416214 0.663220 0.981145 -0.167326
C28   C     C_2   0.529501 0.659746 0.020581 -0.168550
H1    H     H_    0.630356 0.666073 0.989113 0.146848
H2    H     H_    0.316578 0.656244 0.014304 0.150314
H3    H     H_    0.240010 0.526162 0.904076 0.168602
H4    H     H_    0.700683 0.732423 0.127980 0.176289
H5    H     H_    0.359676 0.489130 0.094798 0.156074
H6    H     H_    0.612942 0.739002 0.866389 0.158403
H7    H     H_    0.708515 0.887464 0.446335 0.186992
H8    H     H_    0.291460 0.112563 0.553704 0.168918
H9    H     H_    0.708099 0.114286 0.446066 0.148460
H10   H     H_    0.291860 0.885668 0.553902 0.146835
H11   H     H_    0.878466 0.336363 0.429821 0.166464
H12   H     H_    0.121825 0.663944 0.569707 0.167215
N1    N     N_R   0.142790 0.500030 0.500020 -0.124177
N2    N     N_R   0.857210 0.499970 0.499980 -0.121134
O1    O     O_R   0.385380 0.683250 0.500010 -0.652653
O2    O     O_R   0.614620 0.316750 0.499990 -0.647524
O3    O     O_R   0.614710 0.683220 0.500000 -0.547836
O4    O     O_R   0.385290 0.316780 0.500000 -0.560602
O5    O     O_R   0.371780 0.500040 0.615800 -0.586924
O6    O     O_R   0.628220 0.499960 0.384200 -0.589289
O7    O     O_R   0.601110 0.500010 0.615800 -0.556501
O8    O     O_R   0.398890 0.499990 0.384200 -0.564662
Zn1   Zn    Zn3+2 0.346870 0.500020 0.500000 1.022881
Zn2   Zn    Zn3+2 0.653130 0.499980 0.500000 1.032897
O9    O     O_3   0.685035 0.650145 0.724526 -0.560060
C29   C     C_3   0.794204 0.584926 0.754614 -0.170233
H13   H     H_    0.779189 0.481848 0.749526 0.157177
H14   H     H_    0.808638 0.611958 0.817850 0.125319
H15   H     H_    0.890176 0.609372 0.718476 0.206250
O10   O     O_3   0.335947 0.399983 0.241966 -0.585998
C30   C     C_3   0.201475 0.445775 0.242024 -0.167495
H16   H     H_    0.170321 0.457294 0.180130 0.128204
H17   H     H_    0.188991 0.535226 0.276508 0.161069
H18   H     H_    0.130301 0.376189 0.271569 0.210109
Br1   Br    Br    0.765581 0.699054 0.291604 -0.559847
Br2   Br    Br    0.212285 0.390037 0.755232 -0.548025
O11   O     O_3   0.157501 0.315655 0.420692 -0.561782
C31   C     C_3   0.097842 0.195098 0.426478 -0.333707
H19   H     H_    0.021118 0.182791 0.381752 0.158806
H20   H     H_    0.052506 0.174561 0.488322 0.145478
H21   H     H_    0.178887 0.125103 0.411526 0.212955
O12   O     O_3   0.843150 0.688063 0.575625 -0.538245
C32   C     C_3   0.905910 0.807340 0.570244 -0.308186
H22   H     H_    0.954437 0.826303 0.508898 0.142844
H23   H     H_    0.980506 0.818566 0.616299 0.154348
H24   H     H_    0.826180 0.879081 0.583628 0.208894

loop_
_geom_bond_atom_site_label_1
_geom_bond_atom_site_label_2
_ccdc_geom_bond_type
C32   H24   S    
C31   H20   S    
C26   Br1   S    
C6    H10   S    
C29   H14   S    
C15   C17   A    
O12   C32   S    
C5    H9    S    
O5    Zn1   S    
C1    C8    S    
C2    C7    S    
C3    H7    S    
C3    C5    A    
O7    Zn2   S    
O1    Zn1   S    
O2    Zn2   S    
C27   C28   D    
C13   C15   S    
C31   H19   S    
C21   C27   S    
C30   H16   S    
C16   C18   A    
C22   C28   S    
O9    C29   S    
C2    O4    A    
C27   H2    S    
C9    C11   A    
C24   C26   A    
C1    O3    A    
C9    N2    A    
C14   O8    A    
C10   C12   A    
C4    C7    A    
C13   O7    A    
C20   H5    S    
C22   C24   A    
C10   H12   S    
C28   H1    S    
C17   C19   A    
N1    Zn1   S    
C1    O1    A    
C11   N1    A    
O6    Zn2   S    
C18   C20   A    
C21   C23   A    
C3    C8    A    
C16   C26   A    
C14   C16   S    
C30   H17   S    
C31   H21   S    
C15   C25   A    
C12   N2    A    
C23   H3    S    
C17   O9    S    
C32   H22   S    
C23   C25   A    
C25   Br2   S    
C4    H8    S    
C4    C6    A    
O11   C31   S    
C32   H23   S    
C24   H4    S    
C5    C7    A    
C14   O6    A    
C12   O12   S    
C29   H13   S    
C30   H18   S    
C6    C8    A    
O3    Zn2   S    
O8    Zn1   S    
O10   C30   S    
C19   C21   A    
C13   O5    A    
O4    Zn1   S    
C19   H6    S    
C9    H11   S    
C2    O2    A    
C11   O11   S    
C20   C22   A    
C18   O10   S    
C10   N1    A    
C29   H15   S    
N2    Zn2   S    
