data_mof_unit_37050.cif
_audit_creation_date              2012-12-11T15:23:55-0500
_audit_creation_method            fapswitch 2.2
_symmetry_space_group_name_H-M    P1
_symmetry_Int_Tables_number       1
_space_group_crystal_system       triclinic
_cell_length_a                    8.281831
_cell_length_b                    14.508024
_cell_length_c                    19.021095
_cell_angle_alpha                 92.074426
_cell_angle_beta                  94.286344
_cell_angle_gamma                 90.963862
_cell_volume                      2277.11838831

loop_
_atom_site_label
_atom_site_type_symbol
_atom_type_description
_atom_site_fract_x
_atom_site_fract_y
_atom_site_fract_z
_atom_type_partial_charge
Ba1   Ba    Ba6+2 0.150350 0.545800 0.464500 1.641316
Ba2   Ba    Ba6+2 0.659830 0.454190 0.535450 1.645244
C1    C     C_3   0.332235 0.781435 0.186492 0.224232
C2    C     C_R   0.816178 0.804229 0.503171 0.039820
C3    C     C_R   0.664898 0.774249 0.472888 -0.312785
C4    C     C_3   0.799797 0.780248 0.294698 0.318018
C5    C     C_R   0.554383 0.835960 0.444619 0.028433
C6    C     C_R   0.596851 0.928767 0.442301 -0.138482
C7    C     C_R   0.751872 0.962515 0.468607 -0.005370
C8    C     C_R   0.860482 0.901018 0.503278 -0.037009
C9    C     C_R   0.941677 0.095805 0.496978 -0.020951
C10   C     C_R   0.047755 0.033987 0.533741 -0.019805
C11   C     C_R   0.985863 0.193572 0.499934 0.051526
C12   C     C_3   0.320637 0.753024 0.263978 0.337714
C13   C     C_R   0.130069 0.223404 0.537187 -0.285526
C14   C     C_R   0.238503 0.161788 0.567601 -0.004613
C15   C     C_R   0.197166 0.067600 0.566715 -0.135716
C16   C     C_3   0.760254 0.873583 0.264939 -0.406695
C17   C     C_R   0.798067 0.056523 0.460176 0.203588
C18   C     C_R   0.610243 0.532176 0.297171 -0.291360
C19   C     C_R   0.463952 0.487183 0.277057 0.072963
C20   C     C_R   0.411424 0.476078 0.205413 -0.121885
C21   C     C_R   0.509170 0.507284 0.153080 -0.021519
C22   C     C_R   0.662863 0.546778 0.174588 -0.150344
C23   C     C_3   0.515810 0.734574 0.633844 0.341071
C24   C     C_R   0.711978 0.559085 0.246463 0.019582
C25   C     C_R   0.491267 0.567685 0.030437 -0.083261
C26   C     C_R   0.434540 0.561997 0.959331 -0.077469
C27   C     C_R   0.338508 0.486274 0.931787 0.054312
C28   C     C_3   0.785061 0.341971 0.328025 0.318658
C29   C     C_R   0.297729 0.417604 0.978229 -0.088240
C30   C     C_R   0.353385 0.423865 0.049646 -0.073289
C31   C     C_R   0.451176 0.499093 0.076791 0.064652
C32   C     C_R   0.137605 0.434455 0.830340 -0.139513
C33   C     C_R   0.093424 0.424532 0.757782 0.016064
C34   C     C_3   0.525580 0.837589 0.654361 -0.001291
C35   C     C_R   0.340461 0.503041 0.732272 0.043975
C36   C     C_R   0.387551 0.511829 0.804418 -0.119253
C37   C     C_R   0.287116 0.477231 0.854692 -0.009865
C38   C     C_R   0.197644 0.455905 0.709246 -0.272289
C39   C     C_3   0.787912 0.324837 0.248560 -0.342835
C40   C     C_3   0.018408 0.654740 0.671683 0.300402
C41   C     C_3   0.073832 0.681919 0.747933 -0.405894
C42   C     C_3   0.285481 0.265937 0.385877 0.313033
C43   C     C_3   0.262180 0.162539 0.367471 -0.260366
C44   C     C_2   0.147793 0.139661 0.303724 0.915033
C45   C     C_3   0.935854 0.203026 0.700176 0.335160
C46   C     C_3   0.527890 0.808956 0.097771 -0.218513
C47   C     C_3   0.698310 0.818691 0.764180 -0.158392
C48   C     C_3   0.100240 0.884727 0.172494 -0.196710
C49   C     C_2   0.856702 0.059197 0.758714 0.906074
C50   C     C_3   0.466079 0.272769 0.853641 -0.257875
C51   C     C_3   0.700227 0.091529 0.340002 -0.216863
C52   C     C_3   0.993743 0.117189 0.737375 -0.177810
C53   C     C_3   0.427518 0.189358 0.736455 0.595306
C54   C     C_3   0.404719 0.099633 0.774987 -0.294034
C55   C     C_R   0.007356 0.938567 0.535806 -0.033611
H1    H     H_    0.195701 0.729471 0.270327 0.093121
H2    H     H_    0.167701 0.296012 0.396044 0.021037
H3    H     H_    0.369579 0.274606 0.434102 0.029272
H4    H     H_    0.257828 0.730889 0.151763 0.045334
H5    H     H_    0.219299 0.127001 0.413315 -0.030756
H6    H     H_    0.379186 0.133173 0.355704 0.035861
H7    H     H_    0.402398 0.694392 0.274696 -0.036487
H8    H     H_    0.640967 0.709599 0.630187 -0.002189
H9    H     H_    0.447070 0.724707 0.581531 -0.007844
H10   H     H_    0.624089 0.871905 0.627704 0.063674
H11   H     H_    0.409378 0.869142 0.635752 0.044340
H12   H     H_    0.758593 0.251522 0.233526 0.143967
H13   H     H_    0.766578 0.872459 0.206907 0.154881
H14   H     H_    0.846503 0.183977 0.655251 0.096982
H15   H     H_    0.044108 0.234132 0.678329 -0.087330
H16   H     H_    0.066320 0.075035 0.701989 -0.019654
H17   H     H_    0.070837 0.139414 0.785232 0.068678
H18   H     H_    0.305579 0.214047 0.718600 -0.135707
H19   H     H_    0.325368 0.108684 0.818947 0.055938
H20   H     H_    0.522988 0.075668 0.797246 0.135600
H21   H     H_    0.863305 0.791775 0.347974 0.057823
H22   H     H_    0.349146 0.045758 0.737403 0.071086
H23   H     H_    0.697242 0.367196 0.219915 0.043926
H24   H     H_    0.631240 0.701793 0.472225 0.073990
H25   H     H_    0.506622 0.973301 0.418649 0.075408
H26   H     H_    0.282399 0.020492 0.591268 0.065178
H27   H     H_    0.164037 0.295865 0.538659 0.055063
H28   H     H_    0.091096 0.894206 0.564097 0.095917
H29   H     H_    0.501105 0.547000 0.820748 0.072788
H30   H     H_    0.465561 0.617697 0.926186 0.059513
H31   H     H_    0.565678 0.626597 0.049167 0.061006
H32   H     H_    0.683292 0.742699 0.299978 -0.020924
H33   H     H_    0.295268 0.442664 0.190993 0.090462
H34   H     H_    0.909549 0.342705 0.231544 0.151896
H35   H     H_    0.226221 0.357470 0.959224 0.068856
H36   H     H_    0.322478 0.368515 0.083155 0.072691
H37   H     H_    0.054333 0.410508 0.867246 0.076086
H38   H     H_    0.743548 0.569061 0.136054 0.077121
H39   H     H_    0.161557 0.450175 0.653362 0.059109
H40   H     H_    0.649289 0.541736 0.352578 0.066098
H41   H     H_    0.846628 0.926723 0.289284 0.116211
H42   H     H_    0.635651 0.891800 0.276520 0.128626
H43   H     H_    0.658336 0.345338 0.341827 0.015525
H44   H     H_    0.850546 0.408097 0.342897 0.039533
H45   H     H_    0.121266 0.624879 0.645414 0.030538
H46   H     H_    0.161613 0.003069 0.318752 0.279651
H47   H     H_    0.548955 0.713256 0.175794 0.180773
H48   H     H_    0.653865 0.793054 0.085729 0.094549
H49   H     H_    0.514702 0.884930 0.096858 0.137268
H50   H     H_    0.442283 0.775328 0.056496 0.106905
H51   H     H_    0.524731 0.918992 0.747104 0.220693
H52   H     H_    0.805313 0.849045 0.741009 0.139486
H53   H     H_    0.700295 0.742409 0.758497 0.116211
H54   H     H_    0.704643 0.836864 0.821504 0.076569
H55   H     H_    0.338398 0.926307 0.203401 0.242312
H56   H     H_    0.918990 0.602537 0.671213 0.057895
H57   H     H_    0.068897 0.953986 0.153270 0.148640
H58   H     H_    0.060545 0.878555 0.226179 0.168717
H59   H     H_    0.037552 0.831750 0.136077 0.106452
H60   H     H_    0.750817 0.000077 0.838592 0.287716
H61   H     H_    0.516743 0.322374 0.756771 0.217957
H62   H     H_    0.526838 0.335889 0.878426 0.131464
H63   H     H_    0.508278 0.213880 0.885342 0.130121
H64   H     H_    0.332813 0.278731 0.854457 0.086971
H65   H     H_    0.583541 0.118608 0.430703 0.220665
H66   H     H_    0.644228 0.149149 0.310992 0.131820
H67   H     H_    0.178424 0.730986 0.749798 0.160256
H68   H     H_    0.625774 0.029667 0.324195 0.075589
H69   H     H_    0.825785 0.083725 0.324900 0.165188
H70   H     H_    0.108675 0.620560 0.777702 0.064937
H71   H     H_    0.975019 0.715140 0.774768 0.100338
N1    N     N_2   0.497963 0.776201 0.166816 -0.427515
N2    N     N_2   0.550111 0.853019 0.730369 -0.386060
N3    N     N_2   0.273049 0.874057 0.175394 -0.411752
N4    N     N_2   0.510684 0.260767 0.781800 -0.375661
N5    N     N_2   0.698388 0.111117 0.414927 -0.398923
O1    O     O_2   0.108370 0.727470 0.525290 -0.462315
O2    O     O_2   0.754571 0.431134 0.751832 -0.489221
O3    O     O_3   0.864839 0.262868 0.748559 -0.576893
O4    O     O_3   0.865330 0.611210 0.531230 -0.491520
O5    O     O_3   0.438280 0.453360 0.418700 -0.494029
O6    O     O_2   0.627420 0.543410 0.667830 -0.469256
O7    O     O_3   0.437638 0.688296 0.685604 -0.638490
O8    O     O_2   0.562281 0.167916 0.549952 -0.481956
O9    O     O_3   0.525191 0.168556 0.680814 -0.556901
O10   O     O_3   0.346360 0.671710 0.401620 -0.483801
O11   O     O_2   0.213814 0.834645 0.430077 -0.491922
O12   O     O_3   0.351503 0.308438 0.329601 -0.627390
O13   O     O_3   0.963599 0.733775 0.638161 -0.644437
O14   O     O_3   0.357879 0.827955 0.311588 -0.638400
O15   O     O_2   0.182890 0.456530 0.332150 -0.461157
O16   O     O_3   0.933230 0.625130 0.368420 -0.481630
O17   O     O_2   0.053661 0.574335 0.246064 -0.505489
O18   O     O_2   0.091892 0.200204 0.266832 -0.567004
O19   O     O_R   0.108613 0.047765 0.284801 -0.779806
O20   O     O_2   0.758603 0.025044 0.713665 -0.632692
O21   O     O_R   0.844763 0.042711 0.830104 -0.758132
O22   O     O_3   0.899181 0.731224 0.250054 -0.622390
O23   O     O_2   0.701930 0.272470 0.474700 -0.446925
O24   O     O_3   0.944970 0.388780 0.468720 -0.498943
O25   O     O_3   0.463940 0.328280 0.598320 -0.473990
O26   O     O_3   0.858753 0.268110 0.361698 -0.614358
O27   O     O_3   0.372010 0.546630 0.581240 -0.474065
O28   O     O_3   0.877070 0.374860 0.631520 -0.483756
P1    P     P_3+3 0.937730 0.712710 0.546710 0.973474
P2    P     P_3+3 0.357970 0.428340 0.344000 0.994084
P3    P     P_3+3 0.902893 0.617437 0.276742 0.932334
P4    P     P_3+3 0.872570 0.287280 0.453240 0.999011
P5    P     P_3+3 0.895867 0.376098 0.723619 0.975863
P6    P     P_3+3 0.364343 0.791840 0.399066 0.937269
P7    P     P_3+3 0.444356 0.569724 0.668642 0.945249
P8    P     P_3+3 0.441777 0.207363 0.600281 0.961369

loop_
_geom_bond_atom_site_label_1
_geom_bond_atom_site_label_2
_ccdc_geom_bond_type
O7    P7    S    
C44   O19   S    
C53   C54   S    
C49   O21   S    
C16   H13   S    
C54   H19   S    
C45   O3    S    
C39   H23   S    
C34   H10   S    
C5    C6    A    
C43   C44   S    
C25   C31   A    
O13   P1    S    
C9    C17   A    
C54   H22   S    
O3    P5    S    
C36   H29   S    
C6    H25   S    
Ba2   O6    S    
C39   H12   S    
C26   C27   A    
C22   C24   A    
C32   C33   A    
C35   C38   A    
O4    P1    S    
C4    H21   S    
C46   H50   S    
C42   H2    S    
C13   C14   A    
C28   H43   S    
C43   H5    S    
C33   P5    S    
Ba1   Ba2   S    
C24   P3    S    
C52   H17   S    
C51   H68   S    
C14   P8    S    
C7    C17   A    
C46   H49   S    
C18   H40   S    
C46   H48   S    
C14   C15   A    
C21   C31   S    
C10   C15   A    
C21   C22   A    
C28   C39   S    
Ba1   O16   S    
O5    P2    S    
C7    C8    A    
H51   N2    S    
C4    O22   S    
C47   H54   S    
C53   H18   S    
C44   O18   D    
C53   O9    S    
C19   C20   A    
Ba2   O4    S    
C27   C37   S    
O6    P7    D    
C38   H39   S    
C12   H1    S    
C40   H45   S    
Ba2   O28   S    
C35   P7    S    
C1    H4    S    
C28   O26   S    
C4    C16   S    
O11   P6    D    
C32   C37   A    
Ba2   O5    S    
C23   O7    S    
C23   H8    S    
C51   H66   S    
C22   H38   S    
O24   P4    S    
C3    C5    A    
C6    C7    A    
O12   P2    S    
C12   O14   S    
C43   H6    S    
C54   H20   S    
O26   P4    S    
C48   H57   S    
C50   N4    S    
H65   N5    S    
C35   C36   A    
Ba1   O10   S    
C34   N2    S    
C52   H16   S    
C3    H24   S    
C50   H64   S    
C40   H56   S    
C11   P4    S    
C29   C30   A    
Ba2   O25   S    
C12   H7    S    
C8    C55   A    
C26   H30   S    
O8    P8    D    
C42   O12   S    
C20   H33   S    
C51   N5    S    
C51   H69   S    
C19   P2    S    
O16   P3    S    
Ba2   P4    S    
C45   H14   S    
C1    C12   S    
O14   P6    S    
H46   O19   S    
O9    P8    S    
C10   C55   A    
C50   H63   S    
C39   H34   S    
Ba1   P1    S    
C29   H35   S    
H47   N1    S    
C45   C52   S    
C1    N3    S    
C46   N1    S    
C16   H42   S    
C41   H70   S    
Ba1   O1    S    
C40   O13   S    
H60   O21   S    
Ba1   O4    S    
C42   C43   S    
C47   H52   S    
O10   P6    S    
C5    P6    S    
C49   O20   D    
Ba2   O23   S    
C23   C34   S    
C1    N1    S    
O15   P2    D    
Ba1   O27   S    
C23   H9    S    
C32   H37   S    
C2    C3    A    
C41   H71   S    
C9    C10   A    
C34   H11   S    
O25   P8    S    
C13   H27   S    
O22   P3    S    
C17   N5    S    
C4    H32   S    
O17   P3    D    
C47   N2    S    
C49   C52   S    
C30   C31   A    
C11   C13   A    
C33   C38   A    
C27   C29   A    
C48   H58   S    
C9    C11   A    
C36   C37   A    
C18   C24   A    
O23   P4    D    
C42   H3    S    
Ba2   O24   S    
C28   H44   S    
Ba1   O24   S    
O2    P5    D    
C55   H28   S    
C30   H36   S    
C2    P1    S    
O27   P7    S    
H55   N3    S    
C25   H31   S    
C45   H15   S    
H61   N4    S    
C48   N3    S    
O28   P5    S    
C50   H62   S    
O1    P1    D    
C18   C19   A    
Ba1   P2    S    
Ba2   O27   S    
C53   N4    S    
C40   C41   S    
C25   C26   A    
C20   C21   A    
Ba1   O15   S    
C16   H41   S    
C48   H59   S    
C15   H26   S    
C2    C8    A    
C41   H67   S    
Ba1   O5    S    
C47   H53   S    
