data_mof_unit_66709.cif
_audit_creation_date              2013-03-05T16:08:12-0500
_audit_creation_method            fapswitch 2.2
_symmetry_space_group_name_H-M    P1
_symmetry_Int_Tables_number       1
_space_group_crystal_system       triclinic
_cell_length_a                    19.718841
_cell_length_b                    23.168534
_cell_length_c                    8.526136
_cell_angle_alpha                 90.000035
_cell_angle_beta                  103.048129
_cell_angle_gamma                 89.902596
_cell_volume                      3794.64438518

loop_
_atom_site_label
_atom_site_type_symbol
_atom_site_description
_atom_site_fract_x
_atom_site_fract_y
_atom_site_fract_z
_atom_type_partial_charge
P1    P     P_3+3 0.853370 0.434890 0.996520 0.491411
P2    P     P_3+3 0.853370 0.565110 0.496520 0.484693
P3    P     P_3+3 0.353370 0.934890 0.996520 0.491491
P4    P     P_3+3 0.353370 0.065110 0.496520 0.489454
O1    O     O_2   0.860260 0.414960 0.826400 -0.381490
O2    O     O_2   0.860260 0.585040 0.326400 -0.392749
O3    O     O_2   0.360260 0.914960 0.826400 -0.381780
O4    O     O_2   0.360260 0.085040 0.326400 -0.393380
O5    O     O_3   0.918600 0.470180 0.098890 -0.407453
O6    O     O_3   0.918600 0.529820 0.598890 -0.413891
O7    O     O_3   0.418600 0.970180 0.098890 -0.403381
O8    O     O_3   0.418600 0.029820 0.598890 -0.400997
O9    O     O_3   0.975750 0.362410 0.628650 -0.411186
O10   O     O_3   0.975750 0.637590 0.128650 -0.435562
O11   O     O_3   0.475750 0.862410 0.628650 -0.417211
O12   O     O_3   0.475750 0.137590 0.128650 -0.432415
O13   O     O_2   0.866853 0.318007 0.697369 -0.288272
O14   O     O_2   0.871153 0.688188 0.203457 -0.325204
O15   O     O_2   0.369532 0.816468 0.706225 -0.301359
O16   O     O_2   0.371928 0.188143 0.206656 -0.324755
O17   O     O_3   0.780555 0.480558 0.954287 -0.524602
O18   O     O_3   0.780544 0.519683 0.454401 -0.518949
O19   O     O_3   0.280544 0.980527 0.954195 -0.526424
O20   O     O_3   0.280268 0.020031 0.454555 -0.520877
O21   O     O_3   0.958549 0.245819 0.633506 -0.472533
O22   O     O_3   0.962381 0.756286 0.115120 -0.457158
O23   O     O_3   0.457744 0.744998 0.625761 -0.480072
O24   O     O_3   0.461564 0.256079 0.111171 -0.457936
H1    H     H_    0.058305 0.279472 0.674275 0.118358
H2    H     H_    0.030064 0.720212 0.309141 0.162223
H3    H     H_    0.556799 0.780281 0.692034 0.125604
H4    H     H_    0.527366 0.221708 0.310732 0.156448
C1    C     C_3   0.058422 0.189213 0.620268 -0.701686
C2    C     C_3   0.070934 0.800522 0.243224 -0.796620
C3    C     C_3   0.561132 0.691081 0.629771 -0.698755
C4    C     C_3   0.568949 0.301356 0.242663 -0.792288
H5    H     H_    0.070307 0.177667 0.749910 0.231203
H6    H     H_    0.048152 0.825755 0.328946 0.308113
H7    H     H_    0.567138 0.677441 0.757009 0.237748
H8    H     H_    0.545217 0.327038 0.325859 0.307742
H9    H     H_    0.023541 0.155986 0.550886 0.308282
H10   H     H_    0.069651 0.827057 0.134282 0.259813
H11   H     H_    0.529559 0.658359 0.550196 0.312078
H12   H     H_    0.568258 0.327242 0.132872 0.261553
P5    P     P_3+3 0.146350 0.434230 0.693140 0.549789
P6    P     P_3+3 0.146350 0.565770 0.193140 0.580763
P7    P     P_3+3 0.646350 0.934230 0.693140 0.534035
P8    P     P_3+3 0.646350 0.065770 0.193140 0.521487
P9    P     P_3+3 0.091959 0.311885 0.120733 0.513555
P10   P     P_3+3 0.085466 0.692195 0.629229 0.456498
P11   P     P_3+3 0.591012 0.811051 0.119644 0.507917
P12   P     P_3+3 0.586265 0.191737 0.627112 0.502254
O25   O     O_2   0.139400 0.414340 0.863230 -0.306531
O26   O     O_2   0.139400 0.585660 0.363230 -0.359761
O27   O     O_2   0.639400 0.914340 0.863230 -0.320780
O28   O     O_2   0.639400 0.085660 0.363230 -0.343285
O29   O     O_3   0.023740 0.362300 0.060930 -0.338435
O30   O     O_3   0.023740 0.637700 0.560930 -0.391399
O31   O     O_3   0.523740 0.862300 0.060930 -0.341850
O32   O     O_3   0.523740 0.137700 0.560930 -0.349570
O33   O     O_2   0.149313 0.327950 0.032042 -0.319495
O34   O     O_2   0.136492 0.691193 0.515205 -0.376544
O35   O     O_2   0.647596 0.825924 0.027347 -0.315955
O36   O     O_2   0.636125 0.191202 0.510229 -0.369344
O37   O     O_3   0.221557 0.476831 0.734697 -0.520294
O38   O     O_3   0.221340 0.524372 0.261309 -0.551253
O39   O     O_3   0.718213 0.978902 0.757353 -0.588858
O40   O     O_3   0.720224 0.023419 0.262009 -0.578832
O41   O     O_3   0.063232 0.245834 0.032795 -0.599649
O42   O     O_3   0.041065 0.757984 0.586211 -0.604308
O43   O     O_3   0.560214 0.745046 0.033758 -0.610387
O44   O     O_3   0.541771 0.257588 0.588225 -0.614162
C5    C     C_3   0.013436 0.223191 0.110500 0.654443
C6    C     C_3   0.987426 0.760838 0.671674 0.712932
C7    C     C_3   0.509015 0.724560 0.110649 0.670083
C8    C     C_3   0.489112 0.259154 0.676430 0.696048
H13   H     H_    0.979746 0.258080 0.142406 0.084606
H14   H     H_    0.948449 0.726450 0.628629 0.091302
H15   H     H_    0.475373 0.760601 0.136257 0.081967
H16   H     H_    0.451471 0.223548 0.637208 0.086203
C9    C     C_3   0.967704 0.181039 0.995832 0.007216
C10   C     C_3   0.951134 0.819269 0.643267 -0.160688
C11   C     C_3   0.462799 0.681765 0.998857 -0.013574
C12   C     C_3   0.449704 0.315980 0.647311 -0.139568
H17   H     H_    0.974756 0.185630 0.871736 0.173702
H18   H     H_    0.989438 0.854613 0.681582 0.174099
H19   H     H_    0.463041 0.691380 0.872244 0.190840
H20   H     H_    0.485519 0.352811 0.687716 0.175597
C13   C     C_3   0.213152 0.466141 0.223341 0.706264
C14   C     C_3   0.209365 0.534932 0.759870 0.732656
C15   C     C_3   0.712098 0.965567 0.221643 0.647987
C16   C     C_3   0.704864 0.036534 0.716552 0.690049
H21   H     H_    0.209618 0.462472 0.094080 0.156209
H22   H     H_    0.187964 0.555537 0.642090 0.051416
H23   H     H_    0.707957 0.962437 0.092158 0.103915
H24   H     H_    0.702820 0.040017 0.588010 0.139618
C17   C     C_3   0.277715 0.433965 0.322213 0.839441
C18   C     C_3   0.279355 0.563959 0.843124 0.889839
C19   C     C_3   0.777307 0.933769 0.319269 0.862404
C20   C     C_3   0.764858 0.072882 0.815585 0.850032
Ba1   Ba    Ba6+2 0.999900 0.457470 0.844900 1.634093
Ba2   Ba    Ba6+2 0.999900 0.542530 0.344900 1.632389
Ba3   Ba    Ba6+2 0.499900 0.957470 0.844900 1.637890
Ba4   Ba    Ba6+2 0.499900 0.042530 0.344900 1.635881
C21   C     C_3   0.799271 0.536246 0.916630 0.258626
C22   C     C_3   0.799306 0.463893 0.417077 0.257931
C23   C     C_3   0.299051 0.036325 0.917321 0.258332
C24   C     C_3   0.298435 0.964104 0.417416 0.252893
H25   H     H_    0.813349 0.535614 0.798073 0.087383
H26   H     H_    0.813343 0.464334 0.298459 0.084585
H27   H     H_    0.313074 0.035952 0.798708 0.087365
H28   H     H_    0.312430 0.964339 0.298746 0.086091
H29   H     H_    0.843393 0.553322 0.009865 0.086424
H30   H     H_    0.843499 0.446766 0.510256 0.088906
H31   H     H_    0.343111 0.053369 0.010761 0.087240
H32   H     H_    0.342451 0.946760 0.510687 0.088184
C25   C     C_3   0.737119 0.576460 0.910870 -0.114387
C26   C     C_3   0.737211 0.423847 0.411786 -0.107550
C27   C     C_3   0.236627 0.076193 0.912153 -0.114804
C28   C     C_3   0.235756 0.924708 0.412193 -0.104167
H33   H     H_    0.751093 0.621516 0.888522 0.050993
H34   H     H_    0.750992 0.378839 0.388030 0.047285
H35   H     H_    0.250229 0.121385 0.890586 0.051033
H36   H     H_    0.248764 0.879552 0.388370 0.045041
H37   H     H_    0.722850 0.575524 0.029862 0.147630
H38   H     H_    0.723469 0.424463 0.531366 0.151347
H39   H     H_    0.222348 0.074855 0.031111 0.148233
H40   H     H_    0.222070 0.925575 0.531827 0.151465
O45   O     O_3   0.081330 0.529680 0.090830 -0.344227
O46   O     O_3   0.081330 0.470320 0.590830 -0.441149
O47   O     O_3   0.581330 0.029680 0.090830 -0.381055
O48   O     O_3   0.581330 0.970320 0.590830 -0.380220
P13   P     P_3+3 0.915223 0.691484 0.074803 0.519046
P14   P     P_3+3 0.913463 0.310228 0.575838 0.512243
P15   P     P_3+3 0.414661 0.191039 0.075347 0.516088
P16   P     P_3+3 0.413228 0.810367 0.577733 0.504093
C29   C     C_3   0.023931 0.248389 0.594271 0.359091
C30   C     C_3   0.030850 0.744525 0.198716 0.525568
C31   C     C_3   0.525799 0.749896 0.603017 0.368083
C32   C     C_3   0.529490 0.244998 0.199498 0.535761
H41   H     H_    0.018401 0.261121 0.466399 0.079866
H42   H     H_    0.058554 0.718939 0.123175 0.062841
H43   H     H_    0.524848 0.764684 0.478764 0.086343
H44   H     H_    0.558548 0.218676 0.128131 0.058247
H45   H     H_    0.108042 0.189581 0.579755 0.216089
H46   H     H_    0.126050 0.790616 0.301061 0.197049
H47   H     H_    0.613531 0.693245 0.602829 0.203054
H48   H     H_    0.623924 0.291946 0.302908 0.195925
H49   H     H_    0.981426 0.135697 0.031698 0.167690
H50   H     H_    0.911262 0.821935 0.715854 0.129898
H51   H     H_    0.481548 0.636595 0.021976 0.141860
H52   H     H_    0.409144 0.315585 0.717827 0.133319
C33   C     C_R   0.133521 0.693160 0.844443 0.287648
C34   C     C_R   0.132369 0.306197 0.340281 0.179972
C35   C     C_R   0.635287 0.192001 0.841338 0.353629
C36   C     C_R   0.632861 0.806141 0.339115 0.187412
C37   C     C_R   0.179540 0.738566 0.913519 0.040201
C38   C     C_R   0.182829 0.263202 0.405505 0.036506
C39   C     C_R   0.682597 0.236725 0.908787 -0.022550
C40   C     C_R   0.683814 0.763498 0.403542 0.032634
C41   C     C_R   0.781954 0.324681 0.043450 0.055039
C42   C     C_R   0.785011 0.676567 0.538520 0.039963
C43   C     C_R   0.279655 0.826183 0.046760 0.046854
C44   C     C_R   0.283934 0.176072 0.540293 0.045509
C45   C     C_R   0.738924 0.330291 0.888729 -0.022410
C46   C     C_R   0.744285 0.672025 0.381189 -0.050736
C47   C     C_R   0.236083 0.832068 0.892882 -0.027557
C48   C     C_R   0.243919 0.171992 0.382425 -0.054367
C49   C     C_R   0.186816 0.789730 0.828847 -0.094573
C50   C     C_R   0.196046 0.214927 0.316184 -0.047530
C51   C     C_R   0.690606 0.287482 0.823204 -0.092804
C52   C     C_R   0.696237 0.714861 0.314660 -0.062117
C53   C     C_R   0.835543 0.366105 0.106711 0.259551
C54   C     C_R   0.836484 0.633977 0.605696 0.244375
C55   C     C_R   0.334508 0.866767 0.108314 0.251026
C56   C     C_R   0.335972 0.133766 0.606485 0.242262
H53   H     H_    0.742617 0.367567 0.815061 0.148603
H54   H     H_    0.748979 0.635401 0.306222 0.149803
H55   H     H_    0.240210 0.869098 0.818606 0.150630
H56   H     H_    0.249418 0.135898 0.306334 0.149287
H57   H     H_    0.156402 0.796931 0.708448 0.178772
H58   H     H_    0.170520 0.209736 0.191520 0.171869
H59   H     H_    0.660573 0.294490 0.702296 0.176834
H60   H     H_    0.669307 0.709013 0.191086 0.169002
C57   C     C_R   0.874473 0.357596 0.264880 -0.532279
C58   C     C_R   0.873788 0.641515 0.765908 -0.535052
C59   C     C_R   0.373393 0.858363 0.266732 -0.534598
C60   C     C_R   0.373122 0.141179 0.766784 -0.539535
C61   C     C_R   0.161601 0.637681 0.094998 0.279185
C62   C     C_R   0.161728 0.362895 0.589535 0.294347
C63   C     C_R   0.663321 0.136680 0.091907 0.256496
C64   C     C_R   0.663609 0.863516 0.587900 0.282716
C65   C     C_R   0.213069 0.680835 0.161178 -0.311975
C66   C     C_R   0.215913 0.321165 0.651120 -0.249544
C67   C     C_R   0.717069 0.178402 0.154188 -0.195429
C68   C     C_R   0.718841 0.822528 0.646964 -0.237984
C69   C     C_R   0.218844 0.732933 0.073486 0.009283
C70   C     C_R   0.222206 0.269096 0.564760 -0.004275
C71   C     C_R   0.722576 0.230670 0.067801 -0.007795
C72   C     C_R   0.724432 0.770125 0.561538 0.000093
C73   C     C_R   0.259247 0.674836 0.311088 0.350301
C74   C     C_R   0.264837 0.328406 0.795999 0.259190
C75   C     C_R   0.765454 0.170791 0.300040 0.339771
C76   C     C_R   0.769459 0.830747 0.788383 0.252487
C77   C     C_R   0.801426 0.217692 0.380909 0.223767
C78   C     C_R   0.804705 0.784053 0.871366 0.215920
C79   C     C_R   0.295040 0.722225 0.388774 0.241664
C80   C     C_R   0.299765 0.281352 0.877349 0.223192
C81   C     C_R   0.810898 0.268952 0.297239 -0.189373
C82   C     C_R   0.812852 0.731948 0.791887 -0.253207
C83   C     C_R   0.306828 0.771887 0.302391 -0.193916
C84   C     C_R   0.309859 0.230230 0.795622 -0.254621
C85   C     C_R   0.771983 0.274914 0.136163 0.079318
C86   C     C_R   0.774582 0.726181 0.630262 0.032025
C87   C     C_R   0.268426 0.777244 0.141076 0.083497
C88   C     C_R   0.272348 0.225040 0.633351 0.034645
C89   C     C_R   0.861253 0.311903 0.363123 0.176539
C90   C     C_R   0.861348 0.688057 0.862302 0.246533
C91   C     C_R   0.358785 0.813741 0.366795 0.189288
C92   C     C_R   0.359695 0.187033 0.864316 0.238963
C93   C     C_R   0.119640 0.648372 0.942214 -0.429699
C94   C     C_R   0.118178 0.351161 0.438867 -0.481879
C95   C     C_R   0.620831 0.147666 0.940201 -0.396578
C96   C     C_R   0.619063 0.851116 0.438473 -0.481291
H61   H     H_    0.914273 0.388722 0.315501 0.163783
H62   H     H_    0.912471 0.609649 0.818365 0.167167
H63   H     H_    0.414362 0.888693 0.315903 0.165726
H64   H     H_    0.412521 0.109750 0.818378 0.170154
H65   H     H_    0.076660 0.619821 0.894906 0.159921
H66   H     H_    0.076165 0.380776 0.390601 0.186622
H67   H     H_    0.577397 0.119328 0.893988 0.171122
H68   H     H_    0.576221 0.880136 0.391721 0.184090
O49   O     O_3   0.273170 0.432089 0.483931 -0.767000
H69   H     H_    0.309603 0.404722 0.538654 0.367021
O50   O     O_3   0.296668 0.546748 0.005555 -0.733565
H70   H     H_    0.342825 0.563655 0.054008 0.383060
O51   O     O_3   0.773473 0.932176 0.481417 -0.773711
H71   H     H_    0.809792 0.904538 0.534724 0.364015
O52   O     O_3   0.763018 0.069931 0.978716 -0.773909
H72   H     H_    0.778540 0.030753 0.016164 0.344124
O53   O     O_3   0.279033 0.377775 0.263521 -0.652120
H73   H     H_    0.242944 0.355656 0.300378 0.335976
O54   O     O_3   0.269534 0.623954 0.830232 -0.710089
H74   H     H_    0.262889 0.638313 0.934316 0.344405
O55   O     O_3   0.778907 0.877476 0.261811 -0.646734
H75   H     H_    0.741682 0.855842 0.295420 0.335047
O56   O     O_3   0.754011 0.129929 0.762500 -0.694172
H76   H     H_    0.778880 0.155081 0.849976 0.397125
N1    N     N_R   0.342682 0.463374 0.311373 0.286882
O57   O     O_R   0.367429 0.458343 0.183098 -0.218472
O58   O     O_R   0.382283 0.486350 0.438868 -0.216085
N2    N     N_R   0.337493 0.548716 0.768443 0.278104
O59   O     O_R   0.388744 0.584875 0.778462 -0.287553
O60   O     O_R   0.349299 0.495373 0.737574 -0.234642
N3    N     N_R   0.842012 0.963413 0.306366 0.284015
O61   O     O_R   0.862528 0.963582 0.171905 -0.247134
O62   O     O_R   0.884784 0.982835 0.434438 -0.203576
N4    N     N_R   0.833630 0.053254 0.796872 0.275793
O63   O     O_R   0.889238 0.070415 0.898406 -0.290912
O64   O     O_R   0.840051 0.013531 0.693986 -0.245282
N5    N     N_R   0.677701 0.558912 0.784656 0.284759
O65   O     O_R   0.679708 0.564440 0.633968 -0.355790
O66   O     O_R   0.620615 0.541571 0.821871 -0.278467
N6    N     N_R   0.677429 0.441915 0.287036 0.284251
O67   O     O_R   0.678966 0.437203 0.135871 -0.363352
O68   O     O_R   0.620590 0.459140 0.325962 -0.263832
N7    N     N_R   0.177337 0.058618 0.785631 0.284178
O69   O     O_R   0.179362 0.064468 0.635043 -0.355924
O70   O     O_R   0.120342 0.040884 0.822521 -0.277938
N8    N     N_R   0.176211 0.943314 0.287561 0.284818
O71   O     O_R   0.177730 0.938680 0.136366 -0.362182
O72   O     O_R   0.119599 0.961053 0.326596 -0.257943
N9    N     N_R   0.817312 0.214467 0.551814 0.284683
O73   O     O_R   0.772591 0.236761 0.625077 -0.353144
O74   O     O_R   0.860586 0.175583 0.625851 -0.271505
N10   N     N_R   0.823466 0.789690 0.040962 0.299129
O75   O     O_R   0.779621 0.770647 0.121543 -0.341723
O76   O     O_R   0.867922 0.829218 0.104345 -0.168009
N11   N     N_R   0.310344 0.720656 0.559354 0.284099
O77   O     O_R   0.264896 0.742523 0.630859 -0.352205
O78   O     O_R   0.354413 0.683037 0.635699 -0.223222
N12   N     N_R   0.319763 0.286870 0.046758 0.296308
O79   O     O_R   0.276482 0.268158 0.128882 -0.354759
O80   O     O_R   0.364713 0.326138 0.109272 -0.163653
N13   N     N_R   0.280159 0.619837 0.378265 0.279265
O81   O     O_R   0.334136 0.595235 0.343568 -0.260218
O82   O     O_R   0.263159 0.605235 0.510399 -0.340891
N14   N     N_R   0.293668 0.383115 0.846175 0.281143
O83   O     O_R   0.357164 0.392585 0.833852 -0.320820
O84   O     O_R   0.274103 0.407326 0.964546 -0.300683
N15   N     N_R   0.790544 0.114989 0.352616 0.284385
O85   O     O_R   0.839491 0.091555 0.294497 -0.230517
O86   O     O_R   0.780146 0.095518 0.486726 -0.332887
N16   N     N_R   0.792743 0.886416 0.844112 0.278657
O87   O     O_R   0.852315 0.904276 0.821895 -0.312628
O88   O     O_R   0.773274 0.905110 0.969073 -0.322256
O89   O     O_3   0.045499 0.194601 0.253285 -0.808570
H77   H     H_    0.072415 0.161556 0.224536 0.329101
O90   O     O_3   0.013037 0.754240 0.837585 -0.817169
H78   H     H_    0.046850 0.785878 0.873285 0.303823
O91   O     O_3   0.539569 0.697388 0.256768 -0.796353
H79   H     H_    0.567683 0.664409 0.232336 0.329478
O92   O     O_3   0.516638 0.254143 0.841911 -0.820812
H80   H     H_    0.550387 0.286110 0.873110 0.306097
N17   N     N_R   0.895741 0.191971 0.996656 0.243468
O93   O     O_R   0.865572 0.237184 0.922230 -0.356163
O94   O     O_R   0.870974 0.169530 0.110808 -0.370422
N18   N     N_R   0.917619 0.825843 0.475218 0.262100
O95   O     O_R   0.937224 0.866604 0.390702 -0.252275
O96   O     O_R   0.867650 0.791026 0.410065 -0.329115
N19   N     N_R   0.392414 0.686538 0.020719 0.247741
O97   O     O_R   0.351386 0.724743 0.936903 -0.327355
O98   O     O_R   0.379329 0.667946 0.154176 -0.402071
N20   N     N_R   0.416659 0.322260 0.479003 0.259909
O99   O     O_R   0.434469 0.364339 0.396077 -0.258194
O100  O     O_R   0.366974 0.287241 0.413712 -0.330490
O101  O     O_3   0.152150 0.443428 0.256856 -0.763843
H81   H     H_    0.147122 0.460694 0.359932 0.331906
O102  O     O_3   0.162644 0.540721 0.859801 -0.787557
H82   H     H_    0.115576 0.545082 0.789157 0.314419
O103  O     O_3   0.651441 0.942519 0.255652 -0.748483
H83   H     H_    0.646015 0.960111 0.357977 0.331405
O104  O     O_3   0.641599 0.055877 0.746018 -0.733077
H84   H     H_    0.637204 0.038353 0.849225 0.319541

loop_
_geom_bond_atom_site_label_1
_geom_bond_atom_site_label_2
_geom_bond_distance
_ccdc_geom_bond_type
N3    O62   1.300637 A    
H2    C30   1.100256 S    
P1    Ba1   3.461966 S    
C24   C28   1.530250 S    
C47   H55   1.080384 S    
N15   O85   1.298493 A    
C2    H10   1.109368 S    
C70   C88   1.448087 A    
P6    O45   1.613241 S    
O91   H79   0.992606 S    
C75   C77   1.393230 A    
N12   O79   1.295259 A    
O23   P16   1.750748 S    
C51   H59   1.078798 S    
C34   C38   1.427718 A    
O10   Ba2   2.841978 S    
C67   C75   1.396971 A    
C65   C73   1.398644 A    
O14   P13   1.547539 D    
C3    C31   1.522905 S    
C4    H48   1.110988 S    
C1    C29   1.523219 S    
O42   C6    1.414860 S    
P4    O8    1.604453 S    
Ba3   O48   2.988601 S    
C12   N20   1.443089 S    
Ba1   O46   2.988601 S    
P5    O46   1.610978 S    
P9    O41   1.742417 S    
O55   H75   0.984067 S    
C22   C26   1.530048 S    
P11   O43   1.745260 S    
C5    C9    1.525679 S    
C56   C60   1.407987 A    
O38   C13   1.388569 S    
O1    Ba1   2.896547 S    
C5    O89   1.404129 S    
O104  H84   0.990576 S    
Ba2   O46   2.871326 S    
C44   C48   1.401412 A    
C17   N1    1.473221 S    
C84   C92   1.430786 A    
O15   P16   1.545447 D    
C48   H56   1.078621 S    
C81   C85   1.420492 A    
C34   C94   1.405459 A    
P12   O44   1.752555 S    
O92   H80   0.991934 S    
C80   C84   1.410616 A    
O19   C23   1.398784 S    
C40   C52   1.409596 A    
O4    Ba4   2.893362 S    
C73   N13   1.418940 S    
N8    O72   1.300788 A    
C4    H12   1.109219 S    
C63   C95   1.396340 A    
P3    Ba3   3.461966 S    
C12   H20   1.112547 S    
H4    C32   1.100176 S    
C27   H35   1.106909 S    
P14   C89   1.872824 S    
C81   C89   1.429419 A    
P10   O42   1.753523 S    
N13   O82   1.291101 A    
C20   O56   1.397432 S    
O18   C22   1.400160 S    
C2    H46   1.110943 S    
C9    H49   1.109941 S    
P4    Ba4   3.460483 S    
O39   C16   1.389478 S    
C38   C70   1.410508 A    
N11   O78   1.296347 A    
P3    O7    1.606680 S    
O103  H83   0.990320 S    
C5    H13   1.117367 S    
O11   Ba3   2.843230 S    
C7    H15   1.117376 S    
C41   C45   1.404021 A    
N2    O59   1.301669 A    
C45   C51   1.402303 A    
C46   C52   1.399478 A    
O24   P15   1.759705 S    
C45   H53   1.080072 S    
C35   C95   1.398702 A    
C43   C55   1.441062 A    
C9    N17   1.442607 S    
C47   C49   1.402771 A    
P16   C91   1.876453 S    
C58   C90   1.410147 A    
P1    C53   1.922760 S    
N1    O57   1.299479 A    
P4    C56   1.915814 S    
C20   O52   1.401186 S    
C21   H29   1.110975 S    
N15   O86   1.288093 A    
C14   O102  1.395244 S    
C62   C94   1.401536 A    
N5    O65   1.300619 A    
P2    Ba2   3.460483 S    
C16   H24   1.090556 S    
P9    O29   1.766021 S    
O53   H73   0.984903 S    
C26   H34   1.107298 S    
P7    C64   1.934195 S    
P8    C63   1.920500 S    
P12   O32   1.759833 S    
C31   H43   1.109544 S    
N6    O67   1.300613 A    
N17   O94   1.292905 A    
Ba4   O47   2.988055 S    
C72   C86   1.446639 A    
P8    O47   1.613241 S    
C76   N16   1.415482 S    
C7    O91   1.403985 S    
C3    H11   1.110662 S    
O49   H69   0.991441 S    
C74   N14   1.416146 S    
C16   O104  1.399966 S    
C37   C49   1.412181 A    
O2    Ba2   2.893362 S    
C27   N7    1.458935 S    
O3    Ba3   2.896547 S    
O51   H71   0.990425 S    
C50   H58   1.075278 S    
C79   C83   1.413713 A    
N18   O96   1.298362 A    
C67   C71   1.434336 A    
C35   C39   1.426791 A    
C36   C40   1.426444 A    
C38   C50   1.409780 A    
O11   P16   1.710463 S    
C2    C30   1.523158 S    
O23   C31   1.403351 S    
O9    Ba1   2.843230 S    
N14   O84   1.287300 A    
O21   C29   1.404507 S    
P2    O18   1.752482 S    
C59   H63   1.082220 S    
C78   C82   1.410982 A    
N11   O77   1.294850 A    
C57   H61   1.082242 S    
C46   H54   1.078668 S    
N19   O98   1.296075 A    
P5    O37   1.751202 S    
C68   C76   1.394131 A    
P6    C61   1.918791 S    
Ba3   Ba4   4.696538 S    
C42   C86   1.430814 A    
C10   N18   1.443947 S    
C21   H25   1.107134 S    
C71   C85   1.444508 A    
C23   H27   1.107043 S    
C8    H16   1.110527 S    
N10   O76   1.299231 A    
C60   H64   1.082168 S    
N7    O69   1.300623 A    
O10   P13   1.715191 S    
O29   Ba1   2.842694 S    
N12   O80   1.298799 A    
P13   C90   1.883808 S    
C36   C96   1.407322 A    
O31   Ba3   2.842694 S    
N4    O63   1.297200 A    
C18   N2    1.473992 S    
C66   C70   1.433046 A    
O30   Ba2   2.843932 S    
C48   C50   1.398464 A    
N9    O74   1.300907 A    
C13   H21   1.091811 S    
C63   C67   1.445337 A    
C55   C59   1.407862 A    
C61   C65   1.446684 A    
P5    C62   1.929506 S    
N10   O75   1.297589 A    
C94   H66   1.081921 S    
C15   C19   1.549989 S    
O32   Ba4   2.843932 S    
C25   H37   1.112591 S    
C9    H17   1.103009 S    
C27   H39   1.112621 S    
C11   H19   1.103322 S    
Ba1   Ba2   4.696538 S    
N16   O88   1.286169 A    
O52   H72   0.987146 S    
C8    C12   1.519312 S    
C44   C88   1.431712 A    
P12   C35   1.863710 S    
C39   C51   1.411728 A    
P1    O1    1.557012 D    
C64   C68   1.445816 A    
P7    O27   1.556988 D    
P6    O38   1.746839 S    
P3    O3    1.557012 D    
N16   O87   1.299663 A    
P4    O20   1.751844 S    
P10   C33   1.865576 S    
N20   O100  1.297874 A    
O54   H74   0.983734 S    
C66   C74   1.395400 A    
C77   N9    1.421557 S    
C75   N15   1.419461 S    
O9    P14   1.711213 S    
C13   O101  1.401021 S    
C42   C46   1.403318 A    
C43   C87   1.436141 A    
O25   Ba1   2.895904 S    
O5    Ba2   2.875797 S    
O50   H70   0.991924 S    
O41   C5    1.404931 S    
O7    Ba4   2.875797 S    
O20   C24   1.398994 S    
C19   O55   1.396005 S    
C68   C72   1.432662 A    
C25   N5    1.458903 S    
C39   C71   1.412909 A    
C11   N19   1.445544 S    
C21   C25   1.530176 S    
C6    C10   1.523773 S    
C23   C27   1.530356 S    
C95   H67   1.081374 S    
C14   H22   1.105606 S    
C11   H51   1.112002 S    
C60   C92   1.410199 A    
O37   C14   1.392171 S    
C20   N4    1.472029 S    
P7    Ba3   3.462030 S    
P10   O30   1.760639 S    
P9    C34   1.866127 S    
P11   O35   1.542962 D    
O28   Ba4   2.899130 S    
O8    Ba3   2.872620 S    
P12   O36   1.549944 D    
C10   H18   1.112854 S    
C1    H5    1.109542 S    
C24   H28   1.107248 S    
C3    H7    1.110247 S    
O90   H78   0.992228 S    
C33   C93   1.396624 A    
N13   O81   1.298230 A    
C41   C53   1.440391 A    
C53   C57   1.406711 A    
P6    O26   1.556848 D    
C73   C79   1.390636 A    
P1    O5    1.606680 S    
P8    O40   1.743120 S    
O21   P14   1.748466 S    
C64   C96   1.404566 A    
C18   O54   1.403986 S    
P5    Ba1   3.462030 S    
P3    C55   1.923536 S    
C30   H42   1.105648 S    
C83   C91   1.428574 A    
N2    O60   1.295206 A    
C29   H41   1.110751 S    
O26   Ba2   2.899130 S    
O6    Ba1   2.872620 S    
C32   H44   1.107566 S    
O22   C30   1.403346 S    
C28   H40   1.112627 S    
C80   N12   1.414618 S    
H1    C29   1.111860 S    
C78   N10   1.415431 S    
P7    O48   1.610978 S    
C1    H9    1.110728 S    
C24   H32   1.111004 S    
N20   O99   1.298837 A    
N7    O70   1.300783 A    
P9    O33   1.541741 D    
C7    C11   1.527381 S    
C44   C56   1.437802 A    
C37   C69   1.414313 A    
C33   C37   1.427926 A    
C15   O103  1.399504 S    
P2    C54   1.913445 S    
C17   O53   1.397001 S    
O102  H82   0.990792 S    
C19   O51   1.401997 S    
C26   N6    1.458890 S    
N6    O68   1.300789 A    
N17   O93   1.296643 A    
C6    H14   1.111238 S    
C93   H65   1.079855 S    
O13   P14   1.542845 D    
N8    O71   1.300629 A    
C8    O92   1.397411 S    
O17   C21   1.399659 S    
C83   C87   1.417721 A    
N19   O97   1.298160 A    
P1    O17   1.752758 S    
O89   H77   0.992635 S    
P3    O19   1.752506 S    
O24   C32   1.403735 S    
Ba2   O45   2.988055 S    
P4    O4    1.557151 D    
C40   C72   1.411725 A    
C59   C91   1.411247 A    
P6    Ba2   3.463555 S    
C57   C89   1.410613 A    
C22   H30   1.110960 S    
C96   H68   1.081963 S    
C61   C93   1.398397 A    
P15   C92   1.881637 S    
Ba4   O48   2.871326 S    
P8    Ba4   3.463555 S    
O27   Ba3   2.895904 S    
O40   C15   1.384382 S    
C25   H33   1.107524 S    
C19   N3    1.475832 S    
C18   O50   1.406972 S    
C84   C88   1.419149 A    
C69   C87   1.446010 A    
C74   C80   1.387696 A    
C6    O90   1.398788 S    
P2    O2    1.557151 D    
P7    O39   1.741743 S    
O12   Ba4   2.841978 S    
P11   C36   1.870258 S    
N1    O58   1.301117 A    
C4    H8    1.106853 S    
N5    O66   1.300786 A    
C82   C86   1.420251 A    
C15   H23   1.090901 S    
C13   C17   1.548997 S    
C43   C47   1.403109 A    
C52   H60   1.076125 S    
C58   H62   1.082124 S    
C77   C81   1.419556 A    
C17   O49   1.402466 S    
N9    O73   1.296860 A    
O44   C8    1.413367 S    
C3    H47   1.109162 S    
C49   H57   1.078409 S    
C4    C32   1.523145 S    
C23   H31   1.110906 S    
C10   H50   1.106600 S    
C1    H45   1.108761 S    
C12   H52   1.103809 S    
C76   C78   1.389021 A    
P10   O34   1.549086 D    
P11   O31   1.764918 S    
H3    C31   1.112326 S    
N3    O61   1.298997 A    
P2    O6    1.604453 S    
N4    O64   1.297042 A    
N18   O95   1.299051 A    
C16   C20   1.540764 S    
C79   N11   1.417542 S    
C22   H26   1.107232 S    
P8    O28   1.556848 D    
C41   C85   1.436654 A    
C2    H6    1.106849 S    
O56   H76   0.985979 S    
C42   C54   1.437362 A    
C82   C90   1.430534 A    
N14   O83   1.298915 A    
O22   P13   1.759935 S    
C54   C58   1.408635 A    
O43   C7    1.405276 S    
C28   N8    1.458950 S    
Ba3   O47   2.874503 S    
C65   C69   1.437997 A    
O16   P15   1.547297 D    
O101  H81   0.990678 S    
C62   C66   1.447499 A    
P5    O25   1.556988 D    
C26   H38   1.112588 S    
O12   P15   1.714297 S    
C14   C18   1.556174 S    
C28   H36   1.106450 S    
Ba1   O45   2.874503 S    
