data_mof_unit_34619.cif
_audit_creation_date              2012-10-26T20:13:57-0400
_audit_creation_method            fapswitch 2.2
_symmetry_space_group_name_H-M    P1
_symmetry_Int_Tables_number       1
_space_group_crystal_system       triclinic
_cell_length_a                    8.718462
_cell_length_b                    10.833741
_cell_length_c                    9.606305
_cell_angle_alpha                 89.074686
_cell_angle_beta                  96.789724
_cell_angle_gamma                 91.67019
_cell_volume                      900.529670659

loop_
_atom_site_label
_atom_site_type_symbol
_atom_type_description
_atom_site_fract_x
_atom_site_fract_y
_atom_site_fract_z
_atom_type_partial_charge
C1    C     C_R   0.501889 0.262418 0.500754 0.545146
C2    C     C_R   0.589936 0.583403 0.934105 0.131244
C3    C     C_3   0.761483 0.597208 0.944996 -0.248565
C4    C     C_R   0.204421 0.499007 0.464689 0.543687
C5    C     C_3   0.761231 0.598666 0.103346 -0.124854
C6    C     C_R   0.502911 0.737446 0.499328 0.546727
C7    C     C_R   0.795581 0.503275 0.535057 0.544149
C8    C     C_2   0.039155 0.492808 0.445607 -0.160527
C9    C     C_2   0.960755 0.513371 0.552867 -0.166800
C10   C     C_R   0.549418 0.062196 0.625029 0.062531
C11   C     C_R   0.515022 0.129249 0.500523 -0.004341
C12   C     C_R   0.503007 0.937673 0.371482 -0.171291
C13   C     C_R   0.502562 0.066173 0.372405 -0.171589
C14   C     C_3   0.279608 0.337138 0.846420 -0.246034
C15   C     C_3   0.115640 0.370967 0.871014 -0.466888
C16   C     C_3   0.823119 0.718624 0.177965 -0.268574
C17   C     C_3   0.755877 0.838794 0.113889 -0.442662
C18   C     C_R   0.517498 0.870782 0.498429 -0.000124
C19   C     C_R   0.550299 0.934766 0.623800 -0.009118
C20   C     C_3   0.477619 0.921108 0.756450 -0.254582
C21   C     C_3   0.474067 0.061391 0.757071 -0.035486
C22   C     C_R   0.588697 0.584558 0.081151 0.164213
C23   C     C_R   0.403702 0.424555 0.068058 0.013817
C24   C     C_R   0.399365 0.425150 0.919809 0.134045
Cu1   Cu    Cu3+1 0.499990 0.499980 0.640670 0.937816
Cu2   Cu    Cu3+1 0.500010 0.500020 0.359330 0.920565
H1    H     H_    0.982027 0.468111 0.343123 0.113577
H2    H     H_    0.355598 0.097956 0.741807 0.129952
H3    H     H_    0.329257 0.361779 0.119927 0.122802
H4    H     H_    0.103175 0.472595 0.868562 0.151114
H5    H     H_    0.030157 0.328304 0.789672 0.150789
H6    H     H_    0.088933 0.335960 0.974992 0.129434
H7    H     H_    0.284566 0.329671 0.733993 0.212613
H8    H     H_    0.300411 0.243357 0.891213 0.114181
H9    H     H_    0.803900 0.862662 0.014729 0.132457
H10   H     H_    0.628130 0.831679 0.093918 0.145000
H11   H     H_    0.787721 0.915585 0.187860 0.142286
H12   H     H_    0.816153 0.513646 0.909740 0.141205
H13   H     H_    0.798600 0.712318 0.288709 0.181928
H14   H     H_    0.950771 0.723928 0.179495 0.141847
H15   H     H_    0.683662 0.079186 0.882891 0.235127
H16   H     H_    0.526232 0.094932 0.966266 0.214578
H17   H     H_    0.799487 0.684428 0.895926 0.128330
H18   H     H_    0.814697 0.515001 0.153712 0.136339
H19   H     H_    0.018303 0.540366 0.654211 0.120716
H20   H     H_    0.483761 0.115109 0.272887 0.133392
H21   H     H_    0.482361 0.891205 0.271976 0.133176
H22   H     H_    0.360475 0.876513 0.740280 0.126910
H23   H     H_    0.557249 0.879588 0.842069 0.132800
N1    N     N_R   0.500980 0.500930 0.148050 -0.256243
N2    N     N_R   0.500990 0.500890 0.852140 -0.227397
N3    N     N_3   0.573934 0.117360 0.873916 -0.619162
O1    O     O_R   0.500000 0.319640 0.618810 -0.493359
O2    O     O_R   0.500020 0.319680 0.381230 -0.513157
O3    O     O_R   0.274830 0.499980 0.591380 -0.513849
O4    O     O_R   0.274850 0.500020 0.353800 -0.504872
O5    O     O_R   0.499980 0.680320 0.618770 -0.499995
O6    O     O_R   0.500000 0.680360 0.381190 -0.505994
O7    O     O_R   0.725150 0.499980 0.646200 -0.501605
O8    O     O_R   0.725170 0.500020 0.408620 -0.507423

loop_
_geom_bond_atom_site_label_1
_geom_bond_atom_site_label_2
_ccdc_geom_bond_type
C14   H8    S    
C23   C24   A    
Cu1   N2    S    
C9    H19   S    
C20   H23   S    
C17   H10   S    
C11   C13   A    
C6    O6    A    
H15   N3    S    
C19   C20   S    
C1    C11   S    
C22   N1    A    
C10   C19   A    
C4    C8    S    
C14   H7    S    
C2    C3    S    
C15   H6    S    
C4    O3    A    
C17   H11   S    
C2    C22   A    
C20   C21   S    
C15   H5    S    
Cu2   O6    S    
C6    O5    A    
C3    H17   S    
C20   H22   S    
Cu1   O5    S    
C16   H14   S    
C12   H21   S    
C23   H3    S    
C7    O7    A    
C21   H2    S    
Cu1   O1    S    
Cu2   N1    S    
C10   C21   S    
C13   H20   S    
C6    C18   S    
C24   N2    A    
C2    N2    A    
C16   H13   S    
C12   C18   A    
Cu2   O2    S    
C7    O8    A    
C17   H9    S    
C12   C13   A    
C15   H4    S    
C18   C19   A    
C10   C11   A    
C14   C24   S    
C7    C9    S    
C8    H1    S    
C1    O1    A    
C14   C15   S    
C8    C9    D    
C5    C16   S    
Cu1   O7    S    
C3    C5    S    
Cu1   Cu2   S    
Cu2   O8    S    
C1    O2    A    
C5    H18   S    
C21   N3    S    
C4    O4    A    
C5    C22   S    
Cu1   O3    S    
C3    H12   S    
H16   N3    S    
C16   C17   S    
C23   N1    A    
Cu2   O4    S    
