data_mof_unit_58601.cif
_audit_creation_date              2012-12-10T18:29:36-0500
_audit_creation_method            fapswitch 2.2
_symmetry_space_group_name_H-M    P1
_symmetry_Int_Tables_number       1
_space_group_crystal_system       triclinic
_cell_length_a                    35.892003
_cell_length_b                    25.821537
_cell_length_c                    22.139593
_cell_angle_alpha                 90.127343
_cell_angle_beta                  144.257081
_cell_angle_gamma                 89.974726
_cell_volume                      11985.9115779

loop_
_atom_site_label
_atom_site_type_symbol
_atom_type_description
_atom_site_fract_x
_atom_site_fract_y
_atom_site_fract_z
_atom_type_partial_charge
C1    C     C_R   0.650484 0.749807 0.000276 0.797688
C2    C     C_R   0.650479 0.250202 0.000173 0.823920
C3    C     C_R   0.150403 0.249919 0.000091 0.796081
C4    C     C_R   0.150664 0.750311 0.000559 0.821403
C5    C     C_3   0.748548 0.550969 0.999460 -0.098912
C6    C     C_3   0.747959 0.448902 0.995899 -0.054139
C7    C     C_3   0.248509 0.051020 0.999222 -0.101634
C8    C     C_3   0.247913 0.948952 0.995765 -0.055345
C9    C     C_3   0.470473 0.222458 0.915768 -0.335400
C10   C     C_3   0.527489 0.796698 0.028653 -0.339845
C11   C     C_3   0.995509 0.705987 0.963920 -0.363698
C12   C     C_3   0.996012 0.295326 0.966842 -0.320688
C13   C     C_3   0.941752 0.745686 0.905693 0.466173
C14   C     C_3   0.941392 0.256391 0.906547 0.457793
C15   C     C_3   0.443312 0.271452 0.910687 0.456831
C16   C     C_3   0.455530 0.783721 0.933542 0.450284
C17   C     C_1   0.889235 0.750072 0.999726 -0.124605
C18   C     C_1   0.889910 0.249300 0.001080 -0.112686
C19   C     C_1   0.389402 0.250354 0.000076 -0.123592
C20   C     C_1   0.389281 0.750186 0.999844 -0.113734
C21   C     C_1   0.610628 0.250560 0.999733 -0.163915
C22   C     C_1   0.611426 0.748986 0.001445 -0.162339
C23   C     C_1   0.112262 0.751568 0.003021 -0.159844
C24   C     C_1   0.111008 0.249578 0.000550 -0.157567
C25   C     C_3   0.017965 0.712835 0.059490 0.461231
C26   C     C_3   0.019688 0.285852 0.063108 0.445965
C27   C     C_3   0.491317 0.202966 0.006143 0.463438
C28   C     C_3   0.535281 0.761257 0.094547 0.450045
C29   C     C_3   0.963545 0.751110 0.000252 -0.005619
C30   C     C_3   0.964222 0.248321 0.001678 0.002641
C31   C     C_3   0.462724 0.251112 0.998646 0.004464
C32   C     C_3   0.463524 0.749822 0.000320 0.016816
C33   C     C_3   0.556845 0.230032 0.087648 -0.315209
C34   C     C_3   0.547784 0.713071 0.071305 -0.335160
C35   C     C_3   0.063265 0.757799 0.102383 -0.331915
C36   C     C_3   0.062839 0.240500 0.099856 -0.349123
C37   C     C_3   0.535524 0.251028 0.997211 0.011712
C38   C     C_3   0.537961 0.748144 0.002258 0.016028
C39   C     C_3   0.039311 0.752266 0.004860 0.006543
C40   C     C_3   0.037699 0.248815 0.001603 0.009118
C41   C     C_3   0.007590 0.795849 0.040121 0.452226
C42   C     C_3   0.006066 0.203229 0.035294 0.465977
C43   C     C_3   0.527116 0.278901 0.077222 0.441622
C44   C     C_3   0.475189 0.702645 0.975004 0.447242
C45   C     C_R   0.849592 0.749960 0.999900 0.809639
C46   C     C_R   0.849757 0.249906 0.000179 0.813943
C47   C     C_R   0.349681 0.250062 0.000081 0.810484
C48   C     C_R   0.349633 0.750059 0.999943 0.815553
C49   C     C_3   0.507372 0.300757 0.989021 -0.345339
C50   C     C_3   0.465390 0.736154 0.905099 -0.338389
C51   C     C_3   0.984752 0.791693 0.943975 -0.293188
C52   C     C_3   0.982001 0.210103 0.938215 -0.328546
C53   C     C_1   0.922597 0.750434 0.999583 0.075652
C54   C     C_1   0.923551 0.248700 0.001518 0.084351
C55   C     C_1   0.422557 0.250779 0.999525 0.076788
C56   C     C_1   0.422706 0.750197 0.999858 0.085788
C57   C     C_1   0.576608 0.250839 0.998443 -0.014773
C58   C     C_1   0.578412 0.748318 0.002183 -0.012693
C59   C     C_1   0.079741 0.752270 0.004734 -0.016912
C60   C     C_1   0.077895 0.249220 0.001068 -0.013614
C61   C     C_3   0.535558 0.692925 0.556206 -0.161893
C62   C     C_3   0.501481 0.292863 0.558006 -0.149930
C63   C     C_3   0.036430 0.193500 0.556418 -0.160095
C64   C     C_3   0.001277 0.792634 0.557994 -0.149811
C65   C     C_3   0.475348 0.694576 0.436590 -0.474221
C66   C     C_3   0.444536 0.294288 0.439174 -0.457423
C67   C     C_3   0.977107 0.195251 0.436777 -0.476369
C68   C     C_3   0.944255 0.793953 0.439157 -0.457184
C69   C     C_3   0.562148 0.784769 0.559209 -0.175875
C70   C     C_3   0.569458 0.259228 0.560399 -0.174463
C71   C     C_3   0.061176 0.286326 0.559208 -0.177135
C72   C     C_3   0.069414 0.759559 0.560418 -0.173876
C73   C     C_3   0.492577 0.771854 0.559533 -0.215500
C74   C     C_3   0.516530 0.194895 0.559453 -0.206356
C75   C     C_3   0.991800 0.270862 0.559281 -0.216560
C76   C     C_3   0.016753 0.694796 0.559522 -0.206041
C77   C     C_3   0.551108 0.748784 0.601220 0.038138
C78   C     C_3   0.549804 0.249341 0.601906 0.038336
C79   C     C_3   0.050858 0.249132 0.601217 0.037776
C80   C     C_3   0.049791 0.749336 0.601916 0.038355
C81   C     C_3   0.448978 0.750520 0.397374 0.099012
C82   C     C_3   0.448440 0.249010 0.397999 0.102524
C83   C     C_3   0.948799 0.250671 0.397367 0.099113
C84   C     C_3   0.948473 0.748977 0.398013 0.103148
C85   C     C_3   0.502077 0.785452 0.439902 -0.416591
C86   C     C_3   0.509865 0.256509 0.440591 -0.434685
C87   C     C_3   0.000688 0.287671 0.439959 -0.418430
C88   C     C_3   0.009836 0.756976 0.440600 -0.434996
C89   C     C_R   0.891217 0.749855 0.282653 0.772312
C90   C     C_R   0.891403 0.249996 0.282396 0.796028
C91   C     C_R   0.391215 0.249872 0.282648 0.772576
C92   C     C_R   0.391452 0.749944 0.282398 0.794302
C93   C     C_3   0.431641 0.770108 0.439186 -0.170044
C94   C     C_3   0.452382 0.197222 0.439687 -0.180018
C95   C     C_3   0.930750 0.267762 0.439058 -0.168430
C96   C     C_3   0.952793 0.696951 0.439688 -0.180707
C97   C     C_3   0.817726 0.971161 0.098771 0.286338
C98   C     C_3   0.816780 0.031074 0.087825 0.275575
C99   C     C_3   0.317142 0.471162 0.099907 0.286047
C100  C     C_3   0.316628 0.531061 0.089499 0.273166
C101  C     C_3   0.704466 0.969195 0.990869 0.085099
C102  C     C_3   0.711566 0.029342 0.005632 0.153532
C103  C     C_3   0.202017 0.469268 0.985784 0.078840
C104  C     C_3   0.209594 0.529373 0.001832 0.155941
C105  C     C_3   0.723319 0.969319 0.901336 0.364184
C106  C     C_3   0.709891 0.028177 0.888815 0.332361
C107  C     C_3   0.225340 0.469353 0.903044 0.366126
C108  C     C_3   0.211757 0.528231 0.889977 0.333477
C109  C     C_3   0.748943 0.949021 0.997575 -0.209199
C110  C     C_3   0.746285 0.050715 0.993803 -0.208792
C111  C     C_3   0.248732 0.449047 0.997166 -0.208293
C112  C     C_3   0.246268 0.550737 0.993638 -0.208295
C113  C     C_R   0.609077 0.749243 0.717227 0.759698
C114  C     C_R   0.608338 0.249641 0.717465 0.778905
C115  C     C_R   0.108916 0.249458 0.717212 0.759983
C116  C     C_R   0.108328 0.749630 0.717468 0.779561
C117  C     C_R   0.749942 0.891319 0.999769 0.867874
C118  C     C_R   0.747270 0.108646 0.996441 0.907872
C119  C     C_R   0.249918 0.391330 0.999707 0.865762
C120  C     C_R   0.247348 0.608652 0.996500 0.910308
C121  C     C_R   0.749819 0.608624 0.000540 0.830325
C122  C     C_R   0.749447 0.391284 0.997362 0.829861
C123  C     C_R   0.249793 0.108639 0.000352 0.830451
C124  C     C_R   0.249444 0.891304 0.997394 0.825468
C125  C     C_3   0.685019 0.529789 0.885784 0.296720
C126  C     C_3   0.685523 0.469769 0.882572 0.337137
C127  C     C_3   0.184865 0.029816 0.885574 0.296796
C128  C     C_3   0.185373 0.969785 0.882437 0.338139
C129  C     C_3   0.762144 0.528453 0.082151 0.252470
C130  C     C_3   0.753945 0.468230 0.070350 0.330668
C131  C     C_3   0.262325 0.028618 0.082171 0.256043
C132  C     C_3   0.254142 0.968452 0.070457 0.332899
C133  C     C_3   0.804147 0.530267 0.032143 -0.580901
C134  C     C_3   0.805822 0.470573 0.035700 -0.613171
C135  C     C_3   0.303994 0.030289 0.031634 -0.579837
C136  C     C_3   0.305646 0.970587 0.035187 -0.611728
H1    H     H_    0.603972 0.212802 0.160297 0.149821
H2    H     H_    0.586236 0.684052 0.127875 0.142697
H3    H     H_    0.113784 0.762258 0.182921 0.146684
H4    H     H_    0.113221 0.233455 0.179093 0.143274
H5    H     H_    0.576272 0.679438 0.581712 0.129887
H6    H     H_    0.526148 0.330868 0.588386 0.140161
H7    H     H_    0.077902 0.180601 0.583543 0.129571
H8    H     H_    0.025746 0.830729 0.588176 0.140650
H9    H     H_    0.437381 0.668289 0.404126 0.187818
H10   H     H_    0.398454 0.292327 0.403596 0.190084
H11   H     H_    0.939799 0.167331 0.402864 0.185923
H12   H     H_    0.898225 0.791555 0.403683 0.189511
H13   H     H_    0.487739 0.680135 0.407017 0.167601
H14   H     H_    0.444542 0.331956 0.414870 0.175067
H15   H     H_    0.991111 0.182991 0.408866 0.168668
H16   H     H_    0.943911 0.831767 0.414684 0.175570
H17   H     H_    0.512880 0.771998 0.407317 0.186442
H18   H     H_    0.505279 0.291796 0.406171 0.166833
H19   H     H_    0.011475 0.276537 0.406534 0.188345
H20   H     H_    0.005045 0.792484 0.406328 0.166649
H21   H     H_    0.504844 0.812760 0.587121 0.121514
H22   H     H_    0.549466 0.167013 0.580581 0.138684
H23   H     H_    0.002705 0.312032 0.585010 0.123136
H24   H     H_    0.049966 0.667012 0.581180 0.138901
H25   H     H_    0.689405 0.542336 0.843589 0.069015
H26   H     H_    0.690398 0.458968 0.840174 -0.003227
H27   H     H_    0.189171 0.042309 0.843249 0.069539
H28   H     H_    0.190111 0.958959 0.839854 -0.002528
H29   H     H_    0.395810 0.742844 0.411413 0.148104
H30   H     H_    0.411628 0.197164 0.418292 0.127112
H31   H     H_    0.896922 0.238439 0.413041 0.150297
H32   H     H_    0.911815 0.696363 0.417736 0.126389
H33   H     H_    0.571250 0.825073 0.587067 0.140012
H34   H     H_    0.603017 0.228331 0.589780 0.148425
H35   H     H_    0.070240 0.326325 0.588058 0.138240
H36   H     H_    0.103032 0.728770 0.589693 0.147421
H37   H     H_    0.484921 0.826051 0.413153 0.183768
H38   H     H_    0.515304 0.223451 0.415833 0.189308
H39   H     H_    0.982284 0.328048 0.414171 0.181767
H40   H     H_    0.015442 0.724215 0.415675 0.188867
H41   H     H_    0.830554 0.964646 0.164082 -0.016938
H42   H     H_    0.840542 0.049347 0.159103 -0.013016
H43   H     H_    0.328476 0.464556 0.163556 -0.015522
H44   H     H_    0.339227 0.549322 0.159850 -0.010191
H45   H     H_    0.721419 0.952915 0.057121 0.075499
H46   H     H_    0.742994 0.038631 0.086371 0.061730
H47   H     H_    0.216017 0.452598 0.048868 0.077443
H48   H     H_    0.239748 0.538249 0.081893 0.061972
H49   H     H_    0.676754 0.949962 0.830110 0.029506
H50   H     H_    0.657705 0.031948 0.829568 0.087398
H51   H     H_    0.179125 0.450033 0.830793 0.030527
H52   H     H_    0.159292 0.531982 0.828860 0.089025
H53   H     H_    0.851079 0.545284 0.109801 0.241202
H54   H     H_    0.851418 0.457896 0.116721 0.232888
H55   H     H_    0.350973 0.045297 0.109239 0.241668
H56   H     H_    0.351312 0.957907 0.116160 0.233294
H57   H     H_    0.798559 0.543770 0.977366 0.205877
H58   H     H_    0.805288 0.455288 0.987947 0.215603
H59   H     H_    0.298287 0.043778 0.976708 0.207086
H60   H     H_    0.304933 0.955277 0.987213 0.216340
H61   H     H_    0.813859 0.535048 0.160236 0.066989
H62   H     H_    0.798551 0.450398 0.147255 0.018744
H63   H     H_    0.314007 0.035342 0.160242 0.066301
H64   H     H_    0.298823 0.950713 0.147493 0.018823
H65   H     H_    0.447785 0.199899 0.848961 0.148107
H66   H     H_    0.549606 0.835321 0.050751 0.138374
H67   H     H_    0.993703 0.669136 0.935731 0.141480
H68   H     H_    0.993149 0.333188 0.939656 0.138515
H69   H     H_    0.514599 0.340616 0.981181 0.142279
H70   H     H_    0.437373 0.725658 0.827448 0.145885
H71   H     H_    0.971848 0.824259 0.896750 0.153817
H72   H     H_    0.966938 0.179344 0.886313 0.146418
O1    O     O_3   0.749990 0.749990 0.000000 -0.480440
O2    O     O_3   0.749990 0.250010 0.000000 -0.483819
O3    O     O_3   0.249990 0.249990 0.000000 -0.480422
O4    O     O_3   0.249990 0.750010 0.000000 -0.483246
O5    O     O_R   0.888390 0.719350 0.233690 -0.632579
O6    O     O_R   0.888390 0.280650 0.233690 -0.646519
O7    O     O_R   0.388390 0.219350 0.233690 -0.632590
O8    O     O_R   0.388390 0.780650 0.233690 -0.646128
O9    O     O_R   0.611600 0.719370 0.766300 -0.619067
O10   O     O_R   0.611600 0.280630 0.766300 -0.652454
O11   O     O_R   0.111600 0.219370 0.766300 -0.618696
O12   O     O_R   0.111600 0.780630 0.766300 -0.651785
O13   O     O_R   0.698440 0.780630 0.061300 -0.646751
O14   O     O_R   0.698440 0.219370 0.061300 -0.644931
O15   O     O_R   0.198440 0.280630 0.061300 -0.645948
O16   O     O_R   0.198440 0.719370 0.061300 -0.642301
O17   O     O_R   0.801540 0.780630 0.938710 -0.643769
O18   O     O_R   0.801540 0.219370 0.938710 -0.638765
O19   O     O_R   0.301540 0.280630 0.938710 -0.643494
O20   O     O_R   0.301540 0.719370 0.938710 -0.639275
O21   O     O_R   0.637170 0.719360 0.938750 -0.636689
O22   O     O_R   0.637170 0.280640 0.938750 -0.633832
O23   O     O_R   0.137170 0.219360 0.938750 -0.637907
O24   O     O_R   0.137170 0.780640 0.938750 -0.636379
O25   O     O_R   0.862810 0.719350 0.061240 -0.629844
O26   O     O_R   0.862810 0.280650 0.061240 -0.633208
O27   O     O_R   0.362810 0.219350 0.061240 -0.628921
O28   O     O_R   0.362810 0.780650 0.061240 -0.632857
O29   O     O_R   0.845300 0.780620 0.233710 -0.658032
O30   O     O_R   0.845300 0.219380 0.233710 -0.657062
O31   O     O_R   0.345300 0.280620 0.233710 -0.658136
O32   O     O_R   0.345300 0.719380 0.233710 -0.657386
O33   O     O_R   0.654690 0.780640 0.766300 -0.657765
O34   O     O_R   0.654690 0.219360 0.766300 -0.669077
O35   O     O_R   0.154690 0.280640 0.766300 -0.657197
O36   O     O_R   0.154690 0.719360 0.766300 -0.669593
O37   O     O_R   0.759080 0.866840 0.061290 -0.688361
O38   O     O_R   0.759080 0.133160 0.061290 -0.668126
O39   O     O_R   0.259080 0.366840 0.061290 -0.688682
O40   O     O_R   0.259080 0.633160 0.061290 -0.667624
O41   O     O_R   0.697810 0.633140 0.938720 -0.615792
O42   O     O_R   0.697810 0.366860 0.938720 -0.596474
O43   O     O_R   0.197810 0.133140 0.938720 -0.616398
O44   O     O_R   0.197810 0.866860 0.938720 -0.598883
O45   O     O_R   0.740900 0.866850 0.938740 -0.643192
O46   O     O_R   0.740900 0.133150 0.938740 -0.620340
O47   O     O_R   0.240900 0.366850 0.938740 -0.643695
O48   O     O_R   0.240900 0.633150 0.938740 -0.623126
O49   O     O_R   0.802180 0.633140 0.061250 -0.653077
O50   O     O_R   0.802180 0.366860 0.061250 -0.660768
O51   O     O_R   0.302180 0.133140 0.061250 -0.652453
O52   O     O_R   0.302180 0.866860 0.061250 -0.660547
Zn1   Zn    Zn3+2 0.824550 0.706220 0.087530 0.967382
Zn2   Zn    Zn3+2 0.824550 0.293780 0.087530 0.958780
Zn3   Zn    Zn3+2 0.324550 0.206220 0.087530 0.968892
Zn4   Zn    Zn3+2 0.324550 0.793780 0.087530 0.958194
Zn5   Zn    Zn3+2 0.762980 0.793760 0.087560 0.925539
Zn6   Zn    Zn3+2 0.762980 0.206240 0.087560 0.945424
Zn7   Zn    Zn3+2 0.262980 0.293760 0.087560 0.925723
Zn8   Zn    Zn3+2 0.262980 0.706240 0.087560 0.945180
Zn9   Zn    Zn3+2 0.737010 0.793770 0.912460 0.947672
Zn10  Zn    Zn3+2 0.737010 0.206230 0.912460 0.963822
Zn11  Zn    Zn3+2 0.237010 0.293770 0.912460 0.948411
Zn12  Zn    Zn3+2 0.237010 0.706230 0.912460 0.962255
Zn13  Zn    Zn3+2 0.675440 0.706230 0.912460 0.983646
Zn14  Zn    Zn3+2 0.675440 0.293770 0.912460 0.978986
Zn15  Zn    Zn3+2 0.175440 0.206230 0.912460 0.982583
Zn16  Zn    Zn3+2 0.175440 0.793770 0.912460 0.976613
O53   O     O_3   0.624684 0.552062 0.822594 -0.628767
C137  C     C_3   0.607896 0.549855 0.862323 0.265146
H73   H     H_    0.626621 0.584605 0.910438 0.197266
H74   H     H_    0.624471 0.514338 0.906285 0.244405
C138  C     C_3   0.535379 0.551234 0.773909 -0.392458
H75   H     H_    0.515954 0.585823 0.725159 0.254516
H76   H     H_    0.514036 0.515955 0.725459 0.230332
C139  C     C_3   0.516073 0.553462 0.814957 -0.978662
H77   H     H_    0.533882 0.518763 0.862655 0.275373
H78   H     H_    0.463268 0.554376 0.748948 0.270428
H79   H     H_    0.535615 0.588903 0.862474 0.267989
O54   O     O_3   0.628700 0.448966 0.833511 -0.585292
C140  C     C_3   0.588419 0.425856 0.736397 0.142925
H80   H     H_    0.551408 0.403263 0.712115 0.167403
H81   H     H_    0.614920 0.397517 0.742785 0.132282
C141  C     C_3   0.554846 0.466423 0.652606 -0.363250
H82   H     H_    0.527978 0.493923 0.645940 0.251612
H83   H     H_    0.590435 0.488750 0.672952 0.222253
C142  C     C_3   0.508432 0.441029 0.547538 -1.007520
H84   H     H_    0.534587 0.414119 0.551857 0.278391
H85   H     H_    0.485281 0.471160 0.488935 0.276394
H86   H     H_    0.470869 0.419437 0.522995 0.265314
O55   O     O_3   0.124520 0.052104 0.822383 -0.628402
C143  C     C_3   0.107921 0.050188 0.862420 0.265606
H87   H     H_    0.127133 0.084824 0.911020 0.197943
H88   H     H_    0.124083 0.014551 0.905852 0.245342
C144  C     C_3   0.035468 0.052279 0.774423 -0.400607
H89   H     H_    0.016399 0.086882 0.725866 0.255332
H90   H     H_    0.013546 0.017055 0.725619 0.229718
C145  C     C_3   0.016685 0.055145 0.816317 -0.961931
H91   H     H_    0.034612 0.020647 0.864483 0.273693
H92   H     H_    0.963919 0.056214 0.750904 0.272517
H93   H     H_    0.036600 0.090726 0.863711 0.268003
O56   O     O_3   0.128626 0.948980 0.833632 -0.585027
C146  C     C_3   0.088261 0.925798 0.736516 0.143191
H94   H     H_    0.051446 0.903066 0.712582 0.167929
H95   H     H_    0.114748 0.897564 0.742730 0.132744
C147  C     C_3   0.054343 0.966330 0.652496 -0.361797
H96   H     H_    0.027273 0.993547 0.645782 0.251163
H97   H     H_    0.089745 0.988963 0.672725 0.223159
C148  C     C_3   0.008113 0.940884 0.547508 -1.007889
H98   H     H_    0.034421 0.914268 0.551767 0.278438
H99   H     H_    0.984675 0.971029 0.488757 0.276630
H100  H     H_    0.970749 0.918969 0.523110 0.264911
O57   O     O_3   0.009516 0.842224 0.076467 -0.637913
C149  C     C_3   0.059676 0.874698 0.122565 0.091588
H101  H     H_    0.039764 0.914106 0.089608 0.165582
H102  H     H_    0.081286 0.862945 0.106982 0.126873
C150  C     C_3   0.111225 0.877435 0.239229 -0.328927
H103  H     H_    0.089578 0.890999 0.253788 0.234350
H104  H     H_    0.131331 0.838218 0.273236 0.218810
C151  C     C_3   0.165040 0.914314 0.292446 -0.977039
H105  H     H_    0.188802 0.900686 0.281827 0.268598
H106  H     H_    0.201024 0.915760 0.376569 0.271832
H107  H     H_    0.146172 0.953970 0.260421 0.261546
O58   O     O_3   0.009134 0.155825 0.070825 -0.634660
C152  C     C_3   0.050203 0.120668 0.094897 0.094360
H108  H     H_    0.083884 0.104893 0.173227 0.157687
H109  H     H_    0.080054 0.138383 0.097872 0.130847
C153  C     C_3   0.011211 0.075861 0.017171 -0.319456
H110  H     H_    0.985149 0.055846 0.019837 0.234171
H111  H     H_    0.975621 0.091157 0.937833 0.220974
C154  C     C_3   0.053859 0.036880 0.040771 -0.998245
H112  H     H_    0.079261 0.055810 0.036098 0.271632
H113  H     H_    0.024248 0.004770 0.983512 0.268334
H114  H     H_    0.089373 0.020447 0.119302 0.260307
O59   O     O_3   0.554414 0.307225 0.161250 -0.633902
C155  C     C_3   0.607580 0.335308 0.209748 0.098132
H115  H     H_    0.591856 0.365658 0.156724 0.140301
H116  H     H_    0.642556 0.309195 0.233183 0.141918
C156  C     C_3   0.640657 0.361985 0.306368 -0.313328
H117  H     H_    0.605696 0.386551 0.284929 0.231176
H118  H     H_    0.659128 0.332243 0.362367 0.225735
C157  C     C_3   0.695849 0.395897 0.357481 -0.988338
H119  H     H_    0.731898 0.372075 0.380851 0.273376
H120  H     H_    0.718884 0.414766 0.427287 0.270418
H121  H     H_    0.678172 0.426542 0.303355 0.265707
O60   O     O_3   0.445705 0.654696 0.948721 -0.631131
C158  C     C_3   0.461472 0.618455 0.924159 0.099244
H122  H     H_    0.514138 0.615318 0.987799 0.135685
H123  H     H_    0.439426 0.629831 0.851410 0.144543
C159  C     C_3   0.435539 0.565423 0.908482 -0.302563
H124  H     H_    0.457671 0.553633 0.981071 0.228028
H125  H     H_    0.383082 0.567938 0.846150 0.232969
C160  C     C_3   0.449635 0.524296 0.879316 -0.994074
H126  H     H_    0.425404 0.534106 0.804383 0.270493
H127  H     H_    0.431604 0.486186 0.871304 0.269652
H128  H     H_    0.501824 0.521237 0.940147 0.268258
O61   O     O_3   0.032649 0.672559 0.119447 -0.633761
C161  C     C_3   0.080904 0.640210 0.159036 0.101967
H129  H     H_    0.117903 0.635245 0.243145 0.160276
H130  H     H_    0.105841 0.656278 0.151406 0.130484
C162  C     C_3   0.052625 0.587090 0.106552 -0.331895
H131  H     H_    0.030996 0.570019 0.119365 0.235366
H132  H     H_    0.014530 0.591458 0.021970 0.211634
C163  C     C_3   0.103435 0.550296 0.149132 -0.999246
H133  H     H_    0.124951 0.566111 0.135491 0.258016
H134  H     H_    0.081368 0.512195 0.109568 0.268190
H135  H     H_    0.141468 0.544496 0.233407 0.274106
O62   O     O_3   0.035690 0.325140 0.125931 -0.630672
C164  C     C_3   0.091723 0.350593 0.180454 0.099404
H136  H     H_    0.086705 0.365165 0.126739 0.132957
H137  H     H_    0.133117 0.323763 0.237492 0.143272
C165  C     C_3   0.104459 0.396813 0.238738 -0.311585
H138  H     H_    0.064116 0.424538 0.182426 0.226801
H139  H     H_    0.107969 0.383248 0.290860 0.233226
C166  C     C_3   0.166234 0.424557 0.302988 -0.987377
H140  H     H_    0.207522 0.398014 0.362267 0.266614
H141  H     H_    0.173506 0.458390 0.342845 0.270727
H142  H     H_    0.163889 0.438493 0.252526 0.266595
O63   O     O_3   0.481622 0.152922 0.017263 -0.631652
C167  C     C_3   0.502219 0.114483 0.003132 0.092467
H143  H     H_    0.532307 0.086549 0.067950 0.159068
H144  H     H_    0.532313 0.129434 0.004947 0.126282
C168  C     C_3   0.444166 0.085621 0.901517 -0.319862
H145  H     H_    0.417074 0.067947 0.903777 0.233108
H146  H     H_    0.412274 0.113335 0.836052 0.220210
C169  C     C_3   0.463656 0.043093 0.882928 -1.002836
H147  H     H_    0.487749 0.060163 0.874695 0.266269
H148  H     H_    0.420501 0.021990 0.810495 0.276956
H149  H     H_    0.496196 0.015081 0.947939 0.263916
O64   O     O_3   0.567910 0.773714 0.191329 -0.631882
C170  C     C_3   0.632102 0.785477 0.262511 0.097087
H150  H     H_    0.635097 0.820740 0.237726 0.140569
H151  H     H_    0.655674 0.752473 0.270011 0.136484
C171  C     C_3   0.667595 0.795974 0.368266 -0.311385
H152  H     H_    0.643603 0.827910 0.361562 0.233734
H153  H     H_    0.666263 0.760666 0.395139 0.227209
C172  C     C_3   0.736924 0.811082 0.447964 -0.975977
H154  H     H_    0.762163 0.779490 0.456954 0.271192
H155  H     H_    0.761232 0.818215 0.523738 0.273368
H156  H     H_    0.739375 0.847031 0.423816 0.266037
C173  C     C_1   0.527643 0.653233 0.593047 0.221809
N1    N     N_1   0.521329 0.621774 0.621359 -0.183222
C174  C     C_1   0.478493 0.287647 0.590667 0.206758
N2    N     N_1   0.460524 0.283795 0.616244 -0.203396
C175  C     C_1   0.027857 0.153299 0.591739 0.221015
N3    N     N_1   0.021055 0.121475 0.618913 -0.183497
C176  C     C_1   0.978430 0.787229 0.590871 0.207680
N4    N     N_1   0.960572 0.783232 0.616613 -0.207840
C177  C     C_1   0.618290 0.769466 0.596560 0.181349
N5    N     N_1   0.662101 0.757461 0.625671 -0.209369
C178  C     C_1   0.603903 0.308793 0.597805 0.146647
N6    N     N_1   0.631154 0.347460 0.627634 -0.236268
C179  C     C_1   0.117060 0.272004 0.595323 0.186636
N7    N     N_1   0.160700 0.260807 0.623536 -0.206581
C180  C     C_1   0.103729 0.809219 0.597941 0.144892
N8    N     N_1   0.130854 0.847968 0.627806 -0.235994
C181  C     C_1   0.479910 0.746544 0.601548 0.194124
N9    N     N_1   0.469936 0.726915 0.634427 -0.193512
C182  C     C_1   0.506164 0.174371 0.607276 0.144646
N10   N     N_1   0.497789 0.158080 0.644244 -0.210267
C183  C     C_1   0.980228 0.245308 0.602797 0.194191
N11   N     N_1   0.971093 0.225489 0.636825 -0.195148
C184  C     C_1   0.006041 0.674206 0.606805 0.145843
N12   N     N_1   0.997319 0.657872 0.643238 -0.212137
C185  C     C_1   0.401057 0.821683 0.397531 0.123549
N13   N     N_1   0.377511 0.862146 0.365303 -0.232710
C186  C     C_1   0.444718 0.150486 0.391496 0.144734
N14   N     N_1   0.438237 0.113988 0.353135 -0.208498
C187  C     C_1   0.896769 0.317927 0.395188 0.121549
N15   N     N_1   0.870376 0.357230 0.360988 -0.234766
C188  C     C_1   0.946009 0.650428 0.392143 0.145289
N16   N     N_1   0.940299 0.614067 0.354428 -0.208241
O65   O     O_3   0.862120 0.947895 0.116684 -0.550681
C189  C     C_3   0.904736 0.913727 0.201991 0.098923
H157  H     H_    0.918967 0.883825 0.187197 0.153118
H158  H     H_    0.882632 0.892428 0.211320 0.124058
C190  C     C_3   0.964453 0.943018 0.301109 -0.387651
H159  H     H_    0.985113 0.964345 0.289355 0.231461
H160  H     H_    0.951497 0.971354 0.319833 0.202918
C191  C     C_3   0.014601 0.906157 0.391825 -0.939370
H161  H     H_    0.994826 0.884332 0.404584 0.258075
H162  H     H_    0.056766 0.928609 0.462841 0.279238
H163  H     H_    0.030046 0.878482 0.376588 0.264778
O66   O     O_3   0.846965 0.044595 0.072112 -0.508241
C192  C     C_3   0.908173 0.066690 0.161416 0.166462
H164  H     H_    0.936868 0.057942 0.158238 0.173790
H165  H     H_    0.934287 0.049536 0.234618 0.092825
C193  C     C_3   0.903448 0.125605 0.162437 -0.388307
H166  H     H_    0.873524 0.141645 0.086218 0.253194
H167  H     H_    0.880774 0.135076 0.176561 0.200676
C194  C     C_3   0.969039 0.151218 0.246555 -0.972495
H168  H     H_    0.000541 0.134810 0.323425 0.256984
H169  H     H_    0.964051 0.193505 0.247953 0.268807
H170  H     H_    0.991272 0.145141 0.230812 0.282674
O67   O     O_3   0.362599 0.447935 0.120271 -0.551001
C195  C     C_3   0.404773 0.413953 0.205798 0.099029
H171  H     H_    0.418525 0.383360 0.191043 0.152823
H172  H     H_    0.382637 0.393478 0.215670 0.124546
C196  C     C_3   0.464832 0.443204 0.304430 -0.386955
H173  H     H_    0.484454 0.465004 0.291185 0.232312
H174  H     H_    0.452543 0.471120 0.324691 0.202008
C197  C     C_3   0.515795 0.406252 0.394454 -0.939383
H175  H     H_    0.496910 0.383491 0.408021 0.258257
H176  H     H_    0.557975 0.428710 0.465441 0.278967
H177  H     H_    0.530930 0.379398 0.377846 0.265616
O68   O     O_3   0.348444 0.544498 0.076721 -0.508884
C198  C     C_3   0.409218 0.566901 0.166929 0.162512
H178  H     H_    0.439212 0.557866 0.166391 0.171377
H179  H     H_    0.434216 0.550214 0.239593 0.091893
C199  C     C_3   0.403960 0.625864 0.166368 -0.386927
H180  H     H_    0.373987 0.641393 0.089806 0.252792
H181  H     H_    0.381096 0.635620 0.180069 0.201703
C200  C     C_3   0.469339 0.651831 0.249955 -0.976516
H182  H     H_    0.501175 0.635566 0.327080 0.256643
H183  H     H_    0.464057 0.694091 0.250988 0.270103
H184  H     H_    0.491401 0.645874 0.233892 0.278230
O69   O     O_3   0.770247 0.960163 0.917643 -0.511952
C201  C     C_3   0.746848 0.932286 0.836386 0.138420
H185  H     H_    0.724918 0.959481 0.775184 0.126295
H186  H     H_    0.710998 0.902206 0.801271 0.135869
C202  C     C_3   0.803146 0.905755 0.879408 -0.277122
H187  H     H_    0.837218 0.935623 0.907822 0.229225
H188  H     H_    0.828456 0.880930 0.945870 0.250460
C203  C     C_3   0.781448 0.872425 0.797660 -0.918340
H189  H     H_    0.748398 0.841607 0.769881 0.286324
H190  H     H_    0.823542 0.853806 0.831727 0.285497
H191  H     H_    0.756979 0.896646 0.731190 0.252114
O70   O     O_3   0.727633 0.052913 0.857009 -0.548429
C204  C     C_3   0.675057 0.077601 0.759419 0.160154
H192  H     H_    0.694231 0.108848 0.755346 0.177566
H193  H     H_    0.642959 0.097313 0.750137 0.130222
C205  C     C_3   0.637706 0.039612 0.670382 -0.461034
H194  H     H_    0.667289 0.029018 0.669584 0.229159
H195  H     H_    0.625965 0.003997 0.680702 0.209086
C206  C     C_3   0.575784 0.063395 0.566294 -0.907822
H196  H     H_    0.543818 0.071957 0.562972 0.267354
H197  H     H_    0.551160 0.035610 0.503408 0.273908
H198  H     H_    0.585706 0.099556 0.553888 0.260557
O71   O     O_3   0.273747 0.460147 0.922747 -0.513217
C207  C     C_3   0.251769 0.432717 0.842481 0.146245
H199  H     H_    0.230220 0.460125 0.781780 0.125805
H200  H     H_    0.216057 0.402224 0.806466 0.136836
C208  C     C_3   0.308996 0.406900 0.887485 -0.290989
H201  H     H_    0.343346 0.437145 0.917770 0.225874
H202  H     H_    0.333504 0.381552 0.952904 0.247696
C209  C     C_3   0.288889 0.374452 0.806573 -0.934981
H203  H     H_    0.255501 0.343290 0.776734 0.291334
H204  H     H_    0.331674 0.356310 0.842319 0.295307
H205  H     H_    0.265385 0.399217 0.741299 0.248287
O72   O     O_3   0.231165 0.552988 0.860868 -0.550509
C210  C     C_3   0.179540 0.578001 0.763327 0.160178
H206  H     H_    0.199727 0.609279 0.761241 0.177734
H207  H     H_    0.146627 0.597713 0.752240 0.133082
C211  C     C_3   0.142957 0.540391 0.674196 -0.462903
H208  H     H_    0.173425 0.529913 0.675116 0.228036
H209  H     H_    0.130427 0.504656 0.682923 0.208913
C212  C     C_3   0.081671 0.564591 0.569906 -0.909159
H210  H     H_    0.048654 0.572542 0.564578 0.267005
H211  H     H_    0.057877 0.537322 0.506915 0.273469
H212  H     H_    0.092248 0.601191 0.559462 0.260012
O73   O     O_3   0.723263 0.551137 0.076356 -0.675714
C213  C     C_3   0.756109 0.588183 0.155255 0.062391
H213  H     H_    0.720838 0.617854 0.123062 0.156499
H214  H     H_    0.794057 0.609369 0.180001 0.128955
C214  C     C_3   0.783346 0.562324 0.247633 -0.361291
H215  H     H_    0.744504 0.541537 0.220606 0.219223
H216  H     H_    0.820405 0.533810 0.283083 0.210084
C215  C     C_3   0.812904 0.601839 0.329499 -0.935937
H217  H     H_    0.854023 0.621067 0.361657 0.263486
H218  H     H_    0.830133 0.581915 0.393436 0.268978
H219  H     H_    0.777172 0.631421 0.295855 0.255988
O74   O     O_3   0.699560 0.451710 0.031915 -0.598161
C216  C     C_3   0.712946 0.441236 0.111002 0.126499
H220  H     H_    0.679034 0.464195 0.094119 0.164182
H221  H     H_    0.761835 0.452353 0.190256 0.112204
C217  C     C_3   0.701777 0.383701 0.108705 -0.313020
H222  H     H_    0.653724 0.372403 0.028744 0.246188
H223  H     H_    0.737999 0.360499 0.131651 0.208876
C218  C     C_3   0.705742 0.371666 0.181327 -0.988070
H224  H     H_    0.752819 0.383556 0.261685 0.281933
H225  H     H_    0.699552 0.329411 0.180367 0.267336
H226  H     H_    0.667478 0.392359 0.155901 0.254826
O75   O     O_3   0.223299 0.051161 0.076164 -0.672521
C219  C     C_3   0.255722 0.088484 0.154420 0.062951
H227  H     H_    0.220247 0.118229 0.121280 0.156288
H228  H     H_    0.293967 0.109508 0.179785 0.128338
C220  C     C_3   0.282262 0.063016 0.246391 -0.358770
H229  H     H_    0.243348 0.041644 0.218501 0.222828
H230  H     H_    0.320226 0.035063 0.283718 0.210481
C221  C     C_3   0.309986 0.102963 0.326393 -0.936518
H231  H     H_    0.350660 0.123271 0.358525 0.263197
H232  H     H_    0.327400 0.083226 0.390626 0.269667
H233  H     H_    0.273073 0.131638 0.291004 0.255704
O76   O     O_3   0.199705 0.952466 0.032187 -0.596840
C222  C     C_3   0.214274 0.938801 0.111658 0.122762
H234  H     H_    0.176742 0.955772 0.091661 0.166184
H235  H     H_    0.260693 0.954276 0.189375 0.114929
C223  C     C_3   0.212605 0.879914 0.115747 -0.324988
H236  H     H_    0.167191 0.865128 0.036726 0.252390
H237  H     H_    0.252861 0.862717 0.142968 0.205823
C224  C     C_3   0.216704 0.863341 0.187116 -0.977971
H238  H     H_    0.259604 0.880286 0.265460 0.278903
H239  H     H_    0.219673 0.820486 0.193697 0.269582
H240  H     H_    0.173440 0.876211 0.154854 0.254282
O77   O     O_3   0.639906 0.955822 0.892817 -0.616723
C225  C     C_3   0.615962 0.918483 0.902156 0.097540
H241  H     H_    0.619421 0.932768 0.954097 0.116971
H242  H     H_    0.642728 0.881604 0.933042 0.157563
C226  C     C_3   0.545907 0.907850 0.795425 -0.334235
H243  H     H_    0.518193 0.944266 0.763892 0.226572
H244  H     H_    0.541631 0.894258 0.742274 0.220439
C227  C     C_3   0.517900 0.866786 0.800490 -0.978637
H245  H     H_    0.543460 0.829483 0.828275 0.266846
H246  H     H_    0.466767 0.860635 0.722211 0.272083
H247  H     H_    0.521706 0.879471 0.853337 0.255957
O78   O     O_3   0.651414 0.053924 0.933636 -0.575612
C228  C     C_3   0.626770 0.047632 0.960507 0.217862
H248  H     H_    0.581981 0.024687 0.898831 0.153487
H249  H     H_    0.658933 0.026504 0.034401 0.043970
C229  C     C_3   0.611673 0.100423 0.968376 -0.424810
H250  H     H_    0.594568 0.094805 0.992886 0.163055
H251  H     H_    0.655844 0.124164 0.028347 0.248419
C230  C     C_3   0.560578 0.128965 0.865193 -0.746941
H252  H     H_    0.580001 0.140904 0.846247 0.278056
H253  H     H_    0.545299 0.164046 0.870079 0.227782
H254  H     H_    0.518040 0.103910 0.802356 0.243907
O79   O     O_3   0.138054 0.456782 0.885247 -0.617356
C231  C     C_3   0.112366 0.417084 0.888061 0.092448
H255  H     H_    0.105860 0.431332 0.926559 0.119431
H256  H     H_    0.143741 0.382535 0.929924 0.155238
C232  C     C_3   0.047723 0.400773 0.777316 -0.339738
H257  H     H_    0.014323 0.434102 0.735395 0.228063
H258  H     H_    0.053609 0.389192 0.736970 0.217121
C233  C     C_3   0.019325 0.355331 0.774861 -0.968729
H259  H     H_    0.051315 0.321187 0.814150 0.264486
H260  H     H_    0.972554 0.344630 0.693317 0.269307
H261  H     H_    0.012099 0.366003 0.813507 0.262900
O80   O     O_3   0.149550 0.554455 0.928417 -0.575956
C234  C     C_3   0.122221 0.547233 0.950546 0.218599
H262  H     H_    0.076923 0.525293 0.885611 0.153377
H263  H     H_    0.152374 0.524610 0.022165 0.045922
C235  C     C_3   0.107406 0.599587 0.960226 -0.429100
H264  H     H_    0.086130 0.592894 0.977541 0.169837
H265  H     H_    0.152365 0.621822 0.025524 0.242535
C236  C     C_3   0.060684 0.631129 0.860931 -0.733387
H266  H     H_    0.083966 0.643822 0.849033 0.275257
H267  H     H_    0.045460 0.665931 0.866507 0.225948
H268  H     H_    0.017508 0.607869 0.793347 0.244424
O81   O     O_3   0.876260 0.743493 0.804238 -0.636044
C237  C     C_3   0.865271 0.710548 0.739734 0.109877
H269  H     H_    0.812897 0.704524 0.667576 0.171082
H270  H     H_    0.886005 0.671422 0.773990 0.122944
C238  C     C_3   0.888179 0.734753 0.710287 -0.373672
H271  H     H_    0.866116 0.773502 0.675669 0.235225
H272  H     H_    0.940747 0.739704 0.779887 0.229243
C239  C     C_3   0.870675 0.700652 0.633348 -0.945852
H273  H     H_    0.894275 0.662323 0.668280 0.263483
H274  H     H_    0.886950 0.719433 0.612391 0.285737
H275  H     H_    0.818198 0.695027 0.561892 0.259877
O82   O     O_3   0.876427 0.264196 0.807194 -0.633617
C240  C     C_3   0.867972 0.271075 0.733171 0.103538
H276  H     H_    0.827944 0.245700 0.665924 0.162019
H277  H     H_    0.910062 0.259875 0.760549 0.134738
C241  C     C_3   0.850191 0.327374 0.696783 -0.338489
H278  H     H_    0.806131 0.337571 0.664060 0.235485
H279  H     H_    0.889158 0.353410 0.763482 0.215347
C242  C     C_3   0.838979 0.336000 0.614722 -0.974923
H280  H     H_    0.882079 0.325195 0.645195 0.271047
H281  H     H_    0.828614 0.377518 0.592866 0.270626
H282  H     H_    0.797832 0.312424 0.544765 0.270990
O83   O     O_3   0.381996 0.291866 0.819170 -0.642340
C243  C     C_3   0.378498 0.313884 0.756197 0.108393
H283  H     H_    0.334281 0.299291 0.676113 0.162494
H284  H     H_    0.418736 0.303025 0.778602 0.138043
C244  C     C_3   0.374161 0.372871 0.755831 -0.359963
H285  H     H_    0.330570 0.383358 0.724254 0.233163
H286  H     H_    0.416211 0.387931 0.836177 0.217860
C245  C     C_3   0.371560 0.398466 0.690400 -0.950956
H287  H     H_    0.415620 0.389755 0.722430 0.271693
H288  H     H_    0.367714 0.441094 0.690862 0.269118
H289  H     H_    0.329391 0.384399 0.609242 0.264436
O84   O     O_3   0.405989 0.820349 0.863092 -0.632087
C246  C     C_3   0.410526 0.845176 0.812459 0.104199
H290  H     H_    0.402944 0.816794 0.765206 0.146036
H291  H     H_    0.457939 0.864122 0.869304 0.135090
C247  C     C_3   0.359281 0.886956 0.740805 -0.313322
H292  H     H_    0.311447 0.869008 0.683769 0.231762
H293  H     H_    0.366614 0.915859 0.787113 0.228790
C248  C     C_3   0.361662 0.914512 0.683026 -0.992558
H294  H     H_    0.409034 0.932973 0.738570 0.270145
H295  H     H_    0.324470 0.945026 0.632661 0.269087
H296  H     H_    0.352625 0.886562 0.633871 0.269727

loop_
_geom_bond_atom_site_label_1
_geom_bond_atom_site_label_2
_ccdc_geom_bond_type
O2    Zn2   S    
C168  C169  S    
C149  H102  S    
C182  N10   T    
C82   C94   S    
C17   C53   T    
C210  C211  S    
C181  N9    T    
C36   C42   S    
C229  C230  S    
C73   C93   S    
C232  H257  S    
C244  C245  S    
C110  C118  S    
C245  H289  S    
C98   O66   S    
C144  H90   S    
C187  N15   T    
C138  C139  S    
C221  H233  S    
C210  H206  S    
C74   C182  S    
C101  C102  S    
C136  H56   S    
C103  H47   S    
C4    O24   A    
C165  H139  S    
C139  H77   S    
C90   O6    A    
C62   H6    S    
O51   Zn3   S    
C240  H277  S    
C246  C247  S    
C242  H281  S    
C149  C150  S    
C237  H269  S    
C63   C175  S    
C96   C188  S    
C19   C55   T    
C163  H133  S    
C159  C160  S    
O29   Zn5   S    
C213  H213  S    
C228  H248  S    
C74   C94   S    
C164  C165  S    
C91   O7    A    
C35   H3    S    
C13   C51   S    
C219  C220  S    
C14   C52   S    
C80   C116  S    
C33   H1    S    
C227  H245  S    
C130  O74   S    
C96   H32   S    
C142  H86   S    
C241  C242  S    
O52   Zn4   S    
C94   C186  S    
C162  C163  S    
C236  H267  S    
O3    Zn11  S    
C77   C113  S    
C248  H295  S    
C47   O27   A    
C206  H197  S    
C25   C29   S    
C160  H128  S    
C90   O30   A    
C27   C31   S    
C222  H234  S    
C102  H46   S    
C28   C32   S    
C231  H255  S    
C106  H50   S    
C71   C179  S    
C112  C120  S    
C4    C23   S    
O78   C228  S    
C224  H240  S    
C123  O51   A    
C147  H96   S    
C152  H108  S    
C82   C91   S    
C243  H284  S    
C86   H38   S    
C12   C40   S    
C148  H100  S    
C190  H159  S    
C191  H163  S    
C225  H241  S    
C66   C82   S    
C27   O63   S    
C233  H260  S    
C158  H122  S    
C226  C227  S    
O11   Zn15  S    
C145  H91   S    
C45   O17   A    
C215  H217  S    
C10   H66   S    
C13   O81   S    
C196  H174  S    
C69   C177  S    
C235  H265  S    
C214  H216  S    
C67   H11   S    
C228  C229  S    
C247  H293  S    
C238  C239  S    
C166  H140  S    
C72   H36   S    
C198  H178  S    
C143  H87   S    
C233  H261  S    
O25   Zn1   S    
C167  H143  S    
C152  C153  S    
C44   C50   S    
C170  H151  S    
C221  H231  S    
O36   Zn12  S    
C108  H52   S    
C139  H79   S    
O37   Zn5   S    
C84   C88   S    
C7    C123  S    
C153  H110  S    
C22   C58   T    
C246  H290  S    
C118  O38   A    
C136  H60   S    
O72   C210  S    
C102  O78   S    
C235  C236  S    
O81   C237  S    
C163  H135  S    
C10   C38   S    
C191  H161  S    
C141  H83   S    
C9    C15   S    
O49   Zn1   S    
C106  O70   S    
C172  H154  S    
C217  H222  S    
C11   C13   S    
O68   C198  S    
C195  C196  S    
C15   C49   S    
C86   H18   S    
C157  H119  S    
C66   H10   S    
O13   Zn5   S    
C169  H147  S    
C61   C65   S    
C134  H58   S    
O4    Zn8   S    
O57   C149  S    
C232  C233  S    
C12   C26   S    
C73   C77   S    
C10   C16   S    
C222  H235  S    
C173  N1    T    
C238  H271  S    
C75   C79   S    
C41   C51   S    
C129  H61   S    
C42   C52   S    
C165  H138  S    
C105  O69   S    
C39   C51   S    
C116  O36   A    
C67   C83   S    
C179  N7    T    
C40   C60   S    
C79   C115  S    
O32   Zn8   S    
C69   C77   S    
C234  H262  S    
C231  C232  S    
C6    C130  S    
C243  H283  S    
C200  H184  S    
C71   C79   S    
C97   C98   S    
C234  C235  S    
C131  O75   S    
C142  H85   S    
C183  N11   T    
C27   C33   S    
C23   C59   T    
C30   C54   S    
C216  H220  S    
C31   C43   S    
C46   O26   A    
C1    O13   A    
C17   C45   S    
C126  H26   S    
C227  H247  S    
C48   O20   A    
C51   H71   S    
C28   O64   S    
C11   C25   S    
C73   C181  S    
C170  H150  S    
C73   H21   S    
C132  H64   S    
C205  H194  S    
C201  C202  S    
C111  C119  S    
C150  H104  S    
C119  O39   A    
C81   C92   S    
C117  O45   A    
C8    C128  S    
C176  N4    T    
C61   C77   S    
C193  H166  S    
C61   C173  S    
C107  C108  S    
C116  O12   A    
C68   H12   S    
C143  C144  S    
C107  O71   S    
C43   O59   S    
C219  H228  S    
C208  C209  S    
C1    C22   S    
C15   O83   S    
O53   C137  S    
C65   H13   S    
C3    C24   S    
O50   Zn2   S    
C114  O10   A    
C153  C154  S    
C239  H273  S    
C241  H279  S    
C200  H182  S    
C46   O18   A    
C62   C66   S    
C217  C218  S    
O30   Zn6   S    
C218  H226  S    
O58   C152  S    
O20   Zn12  S    
C172  H156  S    
C3    O23   A    
C104  C112  S    
C197  H175  S    
C195  H171  S    
C245  H288  S    
C34   H2    S    
O5    Zn1   S    
C204  H193  S    
C190  C191  S    
C11   C39   S    
C63   C67   S    
C180  N8    T    
O69   C201  S    
C122  O42   A    
C97   C109  S    
C145  H92   S    
O79   C231  S    
O2    Zn10  S    
C99   C111  S    
C196  C197  S    
O3    Zn7   S    
O73   C213  S    
C69   H33   S    
C159  H125  S    
C202  H188  S    
C161  C162  S    
C211  H209  S    
C165  C166  S    
C50   H70   S    
C61   H5    S    
C158  H123  S    
C26   C30   S    
C201  H185  S    
C146  H95   S    
C195  H172  S    
C74   C78   S    
C45   O25   A    
C71   H35   S    
C208  H201  S    
C100  H44   S    
C243  C244  S    
C174  N2    T    
C69   C85   S    
C171  H152  S    
C103  O79   S    
C168  H146  S    
C105  C109  S    
C223  H236  S    
C92   O32   A    
O27   Zn3   S    
C225  C226  S    
C29   C41   S    
C107  C111  S    
C62   C78   S    
C30   C42   S    
C76   C80   S    
C12   C14   S    
C151  H105  S    
C244  H286  S    
C197  H177  S    
C95   H31   S    
O16   Zn8   S    
C230  H254  S    
C206  H196  S    
O1    Zn1   S    
C127  C128  S    
C138  H76   S    
C87   H39   S    
O1    Zn13  S    
O12   Zn16  S    
C88   H40   S    
C205  C206  S    
C139  H78   S    
C209  H203  S    
O9    Zn13  S    
C166  H142  S    
C124  O44   A    
C240  H276  S    
C156  C157  S    
C246  H291  S    
C237  H270  S    
C193  C194  S    
O2    Zn14  S    
O33   Zn9   S    
C101  O77   S    
C12   H68   S    
C199  H180  S    
C35   C41   S    
C220  C221  S    
C37   C57   S    
C164  H137  S    
C220  H230  S    
C211  H208  S    
C2    O22   A    
C127  O55   S    
O26   Zn2   S    
C154  H114  S    
C47   O19   A    
C155  H115  S    
C227  H246  S    
O60   C158  S    
C212  H212  S    
C5    C125  S    
O80   C234  S    
C63   H7    S    
C137  H73   S    
C41   O57   S    
C120  O40   A    
C7    C127  S    
C189  H157  S    
O38   Zn6   S    
C65   H9    S    
C239  H275  S    
C81   C85   S    
C121  O49   A    
C207  H199  S    
C162  H132  S    
C223  C224  S    
C83   C87   S    
C175  N3    T    
C98   C110  S    
C8    C136  S    
C213  C214  S    
C228  H249  S    
O24   Zn16  S    
C218  H224  S    
O59   C155  S    
C94   H30   S    
C248  H294  S    
C101  H45   S    
C135  C136  S    
O62   C164  S    
O1    Zn5   S    
C160  H127  S    
O21   Zn13  S    
C88   H20   S    
C13   C29   S    
O74   C216  S    
C16   C50   S    
C66   H14   S    
C216  C217  S    
C126  O54   S    
C62   C174  S    
C72   C180  S    
C224  H239  S    
C70   C78   S    
O40   Zn8   S    
O4    Zn12  S    
C101  C109  S    
C131  H63   S    
C2    O14   A    
C140  C141  S    
O82   C240  S    
C203  H189  S    
C103  C111  S    
C147  H97   S    
C192  H165  S    
C161  H129  S    
C225  H242  S    
C38   C58   S    
C76   C184  S    
C76   H24   S    
C178  N6    T    
O45   Zn9   S    
C226  H244  S    
C137  C138  S    
C3    O15   A    
C7    C131  S    
C20   C56   T    
C147  C148  S    
C5    C129  S    
C149  H101  S    
C28   C34   S    
C52   H72   S    
C214  H215  S    
O22   Zn14  S    
C64   C80   S    
C247  C248  S    
O71   C207  S    
C78   C114  S    
C192  H164  S    
C151  H107  S    
C18   C46   S    
C75   C95   S    
C148  H99   S    
C144  C145  S    
C152  H109  S    
C221  H232  S    
C145  H93   S    
C74   H22   S    
C68   C84   S    
C89   O29   A    
C168  H145  S    
O8    Zn4   S    
C153  H111  S    
O18   Zn10  S    
C240  C241  S    
C142  H84   S    
C8    C124  S    
C242  H282  S    
C63   C79   S    
C157  H121  S    
C82   C86   S    
C15   C31   S    
C33   C37   S    
O67   C195  S    
C191  H162  S    
C109  C117  S    
C5    C133  S    
C188  N16   T    
C133  H57   S    
C99   H43   S    
C68   H16   S    
O7    Zn3   S    
C194  H169  S    
C129  O73   S    
C154  H112  S    
C155  C156  S    
C39   C59   S    
C2    C21   S    
O31   Zn7   S    
O44   Zn16  S    
C11   H67   S    
C201  H186  S    
C6    C126  S    
C20   C48   S    
C9    H65   S    
C25   C35   S    
C207  C208  S    
C71   C87   S    
C97   O65   S    
C26   C36   S    
C104  H48   S    
C49   H69   S    
C100  C112  S    
C236  H268  S    
C232  H258  S    
C125  C126  S    
C102  C110  S    
C16   C32   S    
C131  C132  S    
C64   C68   S    
C7    C135  S    
C156  H117  S    
C248  H296  S    
C186  N14   T    
C9    C27   S    
C89   O5    A    
O2    Zn6   S    
C206  H198  S    
C10   C28   S    
C210  H207  S    
O63   C167  S    
C127  H27   S    
C44   O60   S    
O6    Zn2   S    
C125  H25   S    
C215  H218  S    
C169  H149  S    
C119  O47   A    
O61   C161  S    
C234  H263  S    
C108  O72   S    
C117  O37   A    
C105  C106  S    
O3    Zn3   S    
C203  H191  S    
C25   O61   S    
C204  C205  S    
C172  H155  S    
C129  C130  S    
C100  O68   S    
C198  C199  S    
C233  H259  S    
C135  H55   S    
C125  O53   S    
C14   O82   S    
C205  H195  S    
C92   O8    A    
C19   C47   S    
C150  H103  S    
O35   Zn11  S    
C135  H59   S    
C108  C112  S    
C215  H219  S    
C124  O52   A    
C72   C80   S    
C235  H264  S    
O56   C146  S    
C214  C215  S    
C103  C104  S    
C93   C185  S    
C247  H292  S    
C95   C187  S    
O42   Zn14  S    
C31   C55   S    
C32   C56   S    
C99   O67   S    
C170  C171  S    
C146  H94   S    
C208  H202  S    
C99   C100  S    
C137  H74   S    
C5    C121  S    
C192  C193  S    
C123  O43   A    
C35   C39   S    
C128  H28   S    
C220  H229  S    
C239  H274  S    
C177  N5    T    
O65   C189  S    
C128  O56   S    
C242  H280  S    
O47   Zn11  S    
O66   C192  S    
O48   Zn12  S    
C148  H98   S    
O3    Zn15  S    
C157  H120  S    
C104  O80   S    
C141  H82   S    
C218  H225  S    
O43   Zn15  S    
C238  H272  S    
C231  H256  S    
O41   Zn13  S    
C197  H176  S    
C75   C183  S    
O17   Zn9   S    
C107  H51   S    
C37   C49   S    
C204  H192  S    
C84   C96   S    
C105  H49   S    
C190  H160  S    
C118  O46   A    
C140  H81   S    
C65   C81   S    
O84   C246  S    
C122  O50   A    
C167  C168  S    
C144  H89   S    
C163  H134  S    
C8    C132  S    
C85   H37   S    
C40   C52   S    
C143  H88   S    
C202  H187  S    
O15   Zn7   S    
O1    Zn9   S    
C76   C96   S    
C93   H29   S    
O10   Zn14  S    
C97   H41   S    
C115  O11   A    
C159  H124  S    
C14   C30   S    
C184  N12   T    
C64   C176  S    
C113  O9    A    
C72   C88   S    
C213  H214  S    
O76   C222  S    
O55   C143  S    
C171  H153  S    
C167  H144  S    
O4    Zn16  S    
C194  H170  S    
C223  H237  S    
C217  H223  S    
C67   H15   S    
C120  O48   A    
C33   C43   S    
C36   C40   S    
C34   C44   S    
C229  H250  S    
C151  H106  S    
C207  H200  S    
C132  O76   S    
O75   C219  S    
C230  H253  S    
O14   Zn6   S    
C43   C49   S    
C64   H8    S    
C199  C200  S    
C138  H75   S    
C4    O16   A    
O46   Zn10  S    
C229  H251  S    
C150  C151  S    
C209  H204  S    
C166  H141  S    
C21   C57   T    
C156  H118  S    
C171  C172  S    
C81   C93   S    
C121  O41   A    
C196  H173  S    
C24   C60   T    
C83   C95   S    
C70   C178  S    
C9    C37   S    
C32   C44   S    
O23   Zn15  S    
C85   H17   S    
O83   C243  S    
C199  H181  S    
C36   H4    S    
C164  H136  S    
C48   O28   A    
C169  H148  S    
C115  O35   A    
O19   Zn11  S    
C219  H227  S    
C154  H113  S    
C155  H116  S    
C226  H243  S    
C113  O33   A    
C212  H211  S    
C87   H19   S    
C209  H205  S    
C98   H42   S    
C84   C89   S    
C6    C122  S    
C189  H158  S    
C70   C86   S    
C241  H278  S    
C140  H80   S    
C162  H131  S    
C106  C110  S    
C75   H23   S    
C83   C90   S    
O4    Zn4   S    
C34   C38   S    
C42   O58   S    
C141  C142  S    
C16   O84   S    
C70   H34   S    
C26   O62   S    
C211  C212  S    
C114  O34   A    
O28   Zn4   S    
C245  H287  S    
C38   C50   S    
C160  H126  S    
C198  H179  S    
C236  H266  S    
C222  C223  S    
O54   C140  S    
C134  H54   S    
C189  C190  S    
O39   Zn7   S    
C6    C134  S    
C130  H62   S    
C224  H238  S    
C133  C134  S    
C29   C53   S    
O70   C204  S    
C200  H183  S    
C194  H168  S    
C203  H190  S    
O34   Zn10  S    
O77   C225  S    
C202  C203  S    
C161  H130  S    
C18   C54   T    
C230  H252  S    
C1    O21   A    
C216  H221  S    
C158  C159  S    
C185  N13   T    
C133  H53   S    
C146  C147  S    
C91   O31   A    
O64   C170  S    
C193  H167  S    
C212  H210  S    
C237  C238  S    
C244  H285  S    
