data_mof_unit_33503.cif
_audit_creation_date              2012-12-11T14:35:48-0500
_audit_creation_method            fapswitch 2.2
_symmetry_space_group_name_H-M    P1
_symmetry_Int_Tables_number       1
_space_group_crystal_system       triclinic
_cell_length_a                    14.480239
_cell_length_b                    16.047059
_cell_length_c                    6.92384
_cell_angle_alpha                 89.99999
_cell_angle_beta                  81.081617
_cell_angle_gamma                 90.0
_cell_volume                      1589.4089793

loop_
_atom_site_label
_atom_site_type_symbol
_atom_type_description
_atom_site_fract_x
_atom_site_fract_y
_atom_site_fract_z
_atom_type_partial_charge
O1    O     O_R   0.337460 0.413110 0.524760 -0.546445
O2    O     O_R   0.662540 0.913110 0.475240 -0.546444
O3    O     O_R   0.348690 0.587910 0.191230 -0.547749
O4    O     O_R   0.651310 0.087910 0.808770 -0.547748
O5    O     O_R   0.166530 0.586890 0.082470 -0.547309
O6    O     O_R   0.833470 0.086890 0.917530 -0.547311
C1    C     C_R   0.370668 0.616568 0.353482 0.754871
C2    C     C_R   0.629332 0.116568 0.646517 0.754871
O7    O     O_R   0.348700 0.413830 0.191250 -0.547601
O8    O     O_R   0.651300 0.913830 0.808750 -0.547600
O9    O     O_R   0.166530 0.411570 0.082490 -0.551617
O10   O     O_R   0.833470 0.911570 0.917510 -0.551620
C3    C     C_R   0.371053 0.385370 0.353353 0.746584
C4    C     C_R   0.628947 0.885370 0.646647 0.746588
O11   O     O_R   0.337460 0.588430 0.524740 -0.546413
O12   O     O_R   0.662540 0.088430 0.475260 -0.546412
O13   O     O_3   0.192230 0.499460 0.407330 -0.356837
O14   O     O_3   0.807770 0.999460 0.592670 -0.356842
V1    V     V_3+5 0.263080 0.500100 0.108540 1.426601
V2    V     V_3+5 0.736920 0.000100 0.891460 1.426592
O15   O     O_R   0.155290 0.412090 0.756570 -0.509080
O16   O     O_R   0.844710 0.912090 0.243430 -0.509082
C5    C     C_R   0.131563 0.383648 0.933129 0.719516
C6    C     C_R   0.868437 0.883648 0.066871 0.719517
O17   O     O_R   0.155290 0.586170 0.756550 -0.524805
O18   O     O_R   0.844710 0.086170 0.243450 -0.524805
C7    C     C_R   0.130997 0.614015 0.933457 0.719209
C8    C     C_R   0.869003 0.114015 0.066543 0.719210
V3    V     V_3+5 0.240910 0.499900 0.616030 1.498135
V4    V     V_3+5 0.759090 0.999900 0.383970 1.498119
O19   O     O_3   0.311760 0.500540 0.867100 -0.380045
O20   O     O_3   0.688240 0.000540 0.132900 -0.380041
C9    C     C_3   0.113370 0.769734 0.962650 -0.356655
C10   C     C_3   0.886629 0.269735 0.037349 -0.356659
H1    H     H_    0.163872 0.767070 0.068358 0.191884
H2    H     H_    0.836129 0.267070 0.931640 0.191877
H3    H     H_    0.155883 0.778700 0.815797 0.115622
H4    H     H_    0.844117 0.278700 0.184201 0.115607
C11   C     C_3   0.044099 0.844481 0.007308 0.395903
C12   C     C_3   0.955901 0.344481 0.992690 0.395892
H5    H     H_    0.054528 0.886956 0.878721 0.039593
H6    H     H_    0.945472 0.386957 0.121277 0.039619
H7    H     H_    0.040830 0.679050 0.288757 0.177461
H8    H     H_    0.959170 0.179050 0.711244 0.177458
H9    H     H_    0.925912 0.778239 0.346063 0.197655
H10   H     H_    0.074090 0.278238 0.653937 0.197661
C13   C     C_3   0.997322 0.677061 0.169791 -0.285356
C14   C     C_3   0.002679 0.177061 0.830210 -0.285361
C15   C     C_3   0.995961 0.688962 0.808819 -0.297436
C16   C     C_3   0.004039 0.188962 0.191182 -0.297437
C17   C     C_3   0.060734 0.685496 0.967510 0.005116
C18   C     C_3   0.939266 0.185496 0.032490 0.005123
H11   H     H_    0.954474 0.630634 0.812362 0.217654
H12   H     H_    0.045526 0.130634 0.187639 0.217654
H13   H     H_    0.038219 0.694113 0.660768 0.172007
H14   H     H_    0.961780 0.194113 0.339233 0.172004
C19   C     C_3   0.940017 0.812702 0.033672 -0.027724
C20   C     C_3   0.059983 0.312702 0.966328 -0.027722
C21   C     C_3   0.923712 0.748010 0.202724 -0.298328
C22   C     C_3   0.076289 0.248009 0.797277 -0.298324
C23   C     C_3   0.928325 0.764225 0.843247 -0.424610
C24   C     C_3   0.071674 0.264226 0.156755 -0.424609
H15   H     H_    0.941861 0.806579 0.714832 0.188033
H16   H     H_    0.058138 0.306580 0.285169 0.188056
H17   H     H_    0.855084 0.741668 0.852036 0.164767
H18   H     H_    0.144915 0.241669 0.147968 0.164764
H19   H     H_    0.961067 0.615704 0.179710 0.156450
H20   H     H_    0.038933 0.115704 0.820291 0.156448
H21   H     H_    0.852506 0.720772 0.211224 0.132644
H22   H     H_    0.147495 0.220771 0.788779 0.132643
H23   H     H_    0.564141 0.808324 0.351345 0.151927
H24   H     H_    0.435859 0.308324 0.648655 0.151927
H25   H     H_    0.434418 0.694376 0.649135 0.153030
H26   H     H_    0.565582 0.194376 0.350865 0.153031
C25   C     C_2   0.439607 0.684566 0.342915 -0.316126
C26   C     C_2   0.560393 0.184566 0.657085 -0.316131
C27   C     C_2   0.464791 0.717490 0.505673 -0.116790
C28   C     C_2   0.535209 0.217490 0.494327 -0.116793
H27   H     H_    0.528937 0.794317 0.800471 0.129020
H28   H     H_    0.471063 0.294317 0.199529 0.129019
C29   C     C_2   0.559356 0.817892 0.657489 -0.324375
C30   C     C_2   0.440644 0.317892 0.342511 -0.324376
C31   C     C_2   0.533793 0.785221 0.494832 -0.120004
C32   C     C_2   0.466207 0.285221 0.505168 -0.120006
H29   H     H_    0.470061 0.708160 0.199973 0.126655
H30   H     H_    0.529939 0.208160 0.800027 0.126656
S1    S     S_3+6 0.075957 0.904445 0.208162 -0.060329
O21   O     O_2   0.173061 0.937841 0.146725 -0.341164
O22   O     O_2   0.010893 0.976591 0.258850 -0.361412
O23   O     O_3   0.075874 0.843911 0.406383 -0.544747
H31   H     H_    0.100312 0.879932 0.503052 0.352636
S2    S     S_3+6 0.924044 0.404445 0.791834 -0.060332
O24   O     O_2   0.826939 0.437839 0.853271 -0.341188
O25   O     O_2   0.989107 0.476591 0.741146 -0.361391
O26   O     O_3   0.924128 0.343910 0.593612 -0.544759
H32   H     H_    0.899632 0.379911 0.496988 0.352642

loop_
_geom_bond_atom_site_label_1
_geom_bond_atom_site_label_2
_ccdc_geom_bond_type
C20   C24   S    
C5    C20   S    
S1    O21   D    
O11   V3    S    
O13   V3    S    
O26   H32   S    
C11   S1    S    
O4    C2    A    
V1    O19   S    
O23   H31   S    
C11   H5    S    
O9    V1    S    
C16   H12   S    
C10   C12   S    
C26   C28   D    
O3    C1    A    
C19   C21   S    
C27   C31   S    
O12   V4    S    
C11   C19   S    
C2    C26   S    
O7    V1    S    
C23   H15   S    
O7    C3    A    
C24   H16   S    
O13   V1    S    
O5    C7    A    
C25   H29   S    
O6    C8    A    
O8    V2    S    
C6    C19   S    
C15   C17   S    
C16   C18   S    
O3    V1    S    
O14   V4    S    
C16   H14   S    
C10   H2    S    
C12   H6    S    
C2    O12   A    
C13   H19   S    
C29   C31   D    
C7    C17   S    
C14   C22   S    
H23   C31   S    
O17   V3    S    
C15   C23   S    
C24   H18   S    
C12   C20   S    
H28   C30   S    
O8    C4    A    
H27   C29   S    
C1    C25   S    
C1    O11   A    
C15   H13   S    
O15   V3    S    
C3    C30   S    
S2    O26   S    
C12   S2    S    
C23   H17   S    
C22   H22   S    
O10   V2    S    
S2    O25   D    
C9    C11   S    
C14   H20   S    
C25   C27   D    
H24   C32   S    
C21   H21   S    
O18   V4    S    
C30   C32   D    
O15   C5    A    
C16   C24   S    
O16   C6    A    
C9    C17   S    
C26   H30   S    
V2    O20   S    
H9    C21   S    
O16   V4    S    
H10   C22   S    
C10   H4    S    
C10   C18   S    
C13   C17   S    
C19   C23   S    
O5    V1    S    
O17   C7    A    
O6    V2    S    
O10   C6    A    
O18   C8    A    
O2    V4    S    
S1    O22   D    
V3    O19   S    
V4    O20   S    
C8    C18   S    
O1    V3    S    
H7    C13   S    
C15   H11   S    
O9    C5    A    
S2    O24   D    
C9    H1    S    
O14   V2    S    
O2    C4    A    
C9    H3    S    
C13   C21   S    
O4    V2    S    
C28   C32   S    
C14   C18   S    
O1    C3    A    
H26   C28   S    
S1    O23   S    
H25   C27   S    
C4    C29   S    
C20   C22   S    
H8    C14   S    
