data_mof_unit_28379.cif
_audit_creation_date              2012-12-10T16:44:38-0500
_audit_creation_method            fapswitch 2.2
_symmetry_space_group_name_H-M    P1
_symmetry_Int_Tables_number       1
_space_group_crystal_system       triclinic
_cell_length_a                    15.053224
_cell_length_b                    8.695768
_cell_length_c                    7.636448
_cell_angle_alpha                 103.680803
_cell_angle_beta                  95.400528
_cell_angle_gamma                 96.319107
_cell_volume                      957.844324874

loop_
_atom_site_label
_atom_site_type_symbol
_atom_type_description
_atom_site_fract_x
_atom_site_fract_y
_atom_site_fract_z
_atom_type_partial_charge
C1    C     C_R   0.497218 0.199951 0.452695 0.857197
C2    C     C_R   0.502821 0.800068 0.547352 0.859723
C3    C     C_R   0.014817 0.207669 0.375659 -0.212859
C4    C     C_R   0.984924 0.790899 0.625137 -0.211975
C5    C     C_2   0.496206 0.030943 0.427757 -0.376938
C6    C     C_2   0.503864 0.969129 0.572510 -0.369941
C7    C     C_R   0.328966 0.492078 0.498660 0.783401
C8    C     C_R   0.670978 0.507131 0.501159 0.780754
C9    C     C_R   0.828520 0.654442 0.574484 -0.059594
C10   C     C_R   0.171317 0.344032 0.425193 -0.064662
C11   C     C_R   0.768091 0.511860 0.501672 -0.078808
C12   C     C_R   0.231768 0.486838 0.497890 -0.088203
C13   C     C_R   0.799978 0.368602 0.429990 -0.257886
C14   C     C_R   0.199801 0.630197 0.569024 -0.262877
C15   C     C_R   0.891928 0.361651 0.435376 0.117920
C16   C     C_R   0.107849 0.637083 0.563981 0.117821
C17   C     C_R   0.953394 0.502775 0.501266 0.051884
C18   C     C_R   0.046422 0.495894 0.498420 0.051918
C19   C     C_R   0.921995 0.650663 0.568721 0.069812
C20   C     C_R   0.077819 0.347926 0.431296 0.069414
C21   C     C_R   0.923128 0.214951 0.376482 -0.216387
C22   C     C_R   0.076604 0.783754 0.623307 -0.218464
Cu1   Cu    Cu3+1 0.510010 0.517380 0.684380 0.960797
Cu2   Cu    Cu3+1 0.489990 0.482620 0.315620 0.959470
H1    H     H_    0.752637 0.261602 0.371080 0.126313
H2    H     H_    0.247108 0.737409 0.627257 0.128999
H3    H     H_    0.876534 0.105017 0.332393 0.141680
H4    H     H_    0.123177 0.893717 0.667402 0.141522
H5    H     H_    0.035323 0.090730 0.332100 0.170687
H6    H     H_    0.964282 0.907608 0.670091 0.169658
H7    H     H_    0.488569 0.957039 0.289570 0.182089
H8    H     H_    0.511223 0.042942 0.710828 0.194682
N1    N     N_2   0.474890 0.456420 0.038520 0.026007
N2    N     N_2   0.525110 0.543580 0.961480 0.026462
O1    O     O_R   0.506510 0.286130 0.619770 -0.595624
O2    O     O_R   0.493490 0.713870 0.380230 -0.606038
O3    O     O_R   0.489600 0.256770 0.308360 -0.580783
O4    O     O_R   0.510400 0.743230 0.691640 -0.591771
O5    O     O_R   0.378710 0.514640 0.655720 -0.609628
O6    O     O_R   0.621290 0.485360 0.344280 -0.598181
O7    O     O_R   0.361800 0.485290 0.344300 -0.586491
O8    O     O_R   0.638200 0.514710 0.655700 -0.571719
C23   C     C_R   0.794246 0.807538 0.647046 0.098321
C24   C     C_R   0.746837 0.878799 0.528194 -0.182200
C25   C     C_R   0.719664 0.028102 0.592516 -0.140412
C26   C     C_R   0.739724 0.107842 0.775921 -0.076925
C27   C     C_R   0.787614 0.038256 0.895302 -0.163037
C28   C     C_R   0.814938 0.888433 0.831540 -0.177304
H9    H     H_    0.732692 0.819581 0.385550 0.122483
H10   H     H_    0.682656 0.081503 0.500029 0.129167
H11   H     H_    0.718281 0.223452 0.825289 0.154261
H12   H     H_    0.803119 0.100245 0.037107 0.136151
H13   H     H_    0.852514 0.835947 0.925054 0.142525
C29   C     C_R   0.205337 0.190589 0.351894 0.101130
C30   C     C_R   0.181650 0.106983 0.168851 -0.185917
C31   C     C_R   0.208268 0.956574 0.105121 -0.156647
C32   C     C_R   0.257842 0.888322 0.223391 -0.082224
C33   C     C_R   0.280639 0.970359 0.405473 -0.136918
C34   C     C_R   0.254810 0.120859 0.469311 -0.178195
H14   H     H_    0.142259 0.157898 0.076370 0.138562
H15   H     H_    0.190475 0.892681 0.964426 0.136214
H16   H     H_    0.278313 0.771853 0.174284 0.145488
H17   H     H_    0.318549 0.917629 0.497379 0.131547
H18   H     H_    0.271410 0.182054 0.610681 0.116287
N3    N     N_2   0.419913 0.324641 0.927197 -0.315831
H19   H     H_    0.402188 0.330344 0.798551 0.292193
C35   C     C_3   0.340265 0.269708 0.997966 -0.586165
H20   H     H_    0.303382 0.161762 0.899180 0.160255
H21   H     H_    0.294937 0.363272 0.019116 0.218139
H22   H     H_    0.356795 0.231655 0.122840 0.277280
N4    N     N_2   0.597895 0.645320 0.067560 -0.314060
H23   H     H_    0.597826 0.670422 0.203134 0.292751
C36   C     C_3   0.623400 0.790519 0.014010 -0.576657
H24   H     H_    0.679888 0.865241 0.111527 0.156370
H25   H     H_    0.566238 0.861147 0.015542 0.218613
H26   H     H_    0.648153 0.764050 0.880503 0.275376

loop_
_geom_bond_atom_site_label_1
_geom_bond_atom_site_label_2
_ccdc_geom_bond_type
C24   H9    S    
C6    H8    S    
C30   C31   A    
C36   H24   S    
N1    N3    S    
C32   H16   S    
C2    C6    S    
C25   C26   A    
C34   H18   S    
Cu2   O2    S    
Cu1   O8    S    
C1    C5    S    
C8    O8    A    
C5    C6    D    
C31   C32   A    
C3    H5    S    
Cu2   O6    S    
C26   C27   A    
C4    C19   A    
C9    C19   A    
C10   C20   A    
N3    C35   S    
Cu1   Cu2   S    
C23   C28   A    
C1    O3    A    
C21   H3    S    
C22   H4    S    
C30   H14   S    
Cu2   O7    S    
C36   H25   S    
C13   H1    S    
C7    C12   S    
Cu2   O3    S    
C29   C34   A    
C28   H13   S    
C9    C23   S    
C35   H20   S    
N4    C36   S    
C33   C34   A    
C26   H11   S    
C35   H21   S    
C23   C24   A    
C4    C22   A    
C2    O4    A    
C27   C28   A    
Cu1   N2    S    
C17   C18   A    
C3    C20   A    
C14   H2    S    
C9    C11   A    
C10   C12   A    
C12   C14   A    
Cu1   O1    S    
C13   C15   A    
C36   H26   S    
C14   C16   A    
C3    C21   A    
C24   C25   A    
C1    O1    A    
C2    O2    A    
C33   H17   S    
C15   C17   A    
C29   C30   A    
C16   C22   A    
C27   H12   S    
Cu1   O4    S    
Cu2   N1    S    
C35   H22   S    
N4    H23   S    
C11   C13   A    
C32   C33   A    
C25   H10   S    
C8    C11   S    
Cu1   O5    S    
C17   C19   A    
N1    N2    D    
C18   C20   A    
C7    O7    A    
C10   C29   S    
C15   C21   A    
C16   C18   A    
N3    H19   S    
C7    O5    A    
C31   H15   S    
C8    O6    A    
N2    N4    S    
C4    H6    S    
C5    H7    S    
