data_mof_unit_29266.cif
_audit_creation_date              2012-12-10T17:07:05-0500
_audit_creation_method            fapswitch 2.2
_symmetry_space_group_name_H-M    P1
_symmetry_Int_Tables_number       1
_space_group_crystal_system       triclinic
_cell_length_a                    18.305428
_cell_length_b                    18.401832
_cell_length_c                    18.384568
_cell_angle_alpha                 120.35223
_cell_angle_beta                  120.332325
_cell_angle_gamma                 59.637289
_cell_volume                      4344.30991422

loop_
_atom_site_label
_atom_site_type_symbol
_atom_type_description
_atom_site_fract_x
_atom_site_fract_y
_atom_site_fract_z
_atom_type_partial_charge
C1    C     C_R   0.140617 0.863291 0.643236 0.823662
C2    C     C_R   0.920542 0.205200 0.964338 -0.323320
C3    C     C_R   0.969862 0.146631 0.906709 0.477233
C4    C     C_R   0.862400 0.140011 0.360026 0.784492
C5    C     C_R   0.930542 0.142593 0.817964 -0.279743
C6    C     C_R   0.912111 0.288357 0.398895 -0.209796
C7    C     C_R   0.932692 0.362627 0.422650 0.548090
C8    C     C_R   0.873791 0.421109 0.372829 -0.294705
C9    C     C_R   0.799315 0.402743 0.299400 -0.245212
C10   C     C_R   0.778421 0.327309 0.274491 0.105167
C11   C     C_R   0.834568 0.270626 0.326930 0.017101
C12   C     C_R   0.568492 0.349242 0.679055 -0.171358
C13   C     C_R   0.813137 0.195975 0.304138 -0.043979
C14   C     C_R   0.742508 0.174086 0.226681 -0.192709
C15   C     C_R   0.689486 0.227549 0.173662 -0.204449
C16   C     C_R   0.140199 0.139944 0.639156 0.776799
C17   C     C_R   0.704802 0.305048 0.197603 -0.057129
C18   C     C_R   0.870017 0.725595 0.422176 0.039155
C19   C     C_R   0.845368 0.699129 0.463313 -0.215955
C20   C     C_R   0.760644 0.693114 0.426992 -0.184974
C21   C     C_R   0.704391 0.702164 0.343607 -0.141454
C22   C     C_R   0.732766 0.716943 0.294761 0.082957
C23   C     C_R   0.659989 0.300847 0.715949 0.057549
C24   C     C_R   0.808398 0.744917 0.341453 0.047499
C25   C     C_R   0.818036 0.789866 0.304264 -0.095429
C26   C     C_R   0.770455 0.782866 0.214145 -0.209893
C27   C     C_R   0.711064 0.735917 0.162145 -0.226650
C28   C     C_R   0.865542 0.854671 0.360096 0.815572
C29   C     C_R   0.690973 0.702722 0.201055 -0.084822
C30   C     C_R   0.088726 0.880024 0.778073 -0.192521
C31   C     C_R   0.037297 0.864997 0.800291 -0.237163
C32   C     C_R   0.057044 0.778687 0.794545 0.368461
C33   C     C_R   0.144650 0.713561 0.793367 0.406833
C34   C     C_R   0.713792 0.247325 0.660790 0.059055
C35   C     C_R   0.203380 0.735883 0.783282 -0.040156
C36   C     C_R   0.164197 0.810431 0.756218 -0.003299
C37   C     C_R   0.198150 0.810914 0.703111 -0.063506
C38   C     C_R   0.281992 0.750464 0.695814 -0.229307
C39   C     C_R   0.333130 0.690510 0.742216 -0.036187
C40   C     C_R   0.140130 0.858949 0.359963 0.817846
C41   C     C_R   0.296620 0.684964 0.790605 -0.088023
C42   C     C_R   0.252005 0.668177 0.354166 0.009700
C43   C     C_R   0.312011 0.582439 0.355592 -0.163762
C44   C     C_R   0.369472 0.533645 0.306335 -0.156320
C45   C     C_R   0.698079 0.304568 0.806189 -0.138629
C46   C     C_R   0.366878 0.569030 0.253645 -0.175101
C47   C     C_R   0.308595 0.656189 0.251787 0.086914
C48   C     C_R   0.251593 0.708678 0.304665 0.033425
C49   C     C_R   0.195646 0.797634 0.303057 -0.129440
C50   C     C_R   0.191973 0.829178 0.245116 -0.009614
C51   C     C_R   0.244831 0.775055 0.191099 -0.251110
C52   C     C_R   0.859303 0.139852 0.638857 0.778070
C53   C     C_R   0.303958 0.690659 0.195588 -0.076212
C54   C     C_R   0.262949 0.128594 0.573370 -0.211918
C55   C     C_R   0.321968 0.123395 0.542645 0.065275
C56   C     C_R   0.789702 0.255134 0.842470 -0.040279
C57   C     C_R   0.375278 0.177796 0.596377 -0.188685
C58   C     C_R   0.369927 0.237390 0.680764 -0.204271
C59   C     C_R   0.311316 0.243153 0.713512 0.095441
C60   C     C_R   0.257056 0.187963 0.659035 0.081756
C61   C     C_R   0.196190 0.195991 0.690717 -0.043826
C62   C     C_R   0.186406 0.260305 0.772439 -0.203041
C63   C     C_R   0.239360 0.314252 0.825611 -0.227974
C64   C     C_R   0.675456 0.244782 0.570863 -0.200958
C65   C     C_R   0.303102 0.304688 0.798030 -0.062938
C66   C     C_R   0.636908 0.643527 0.141126 0.796890
C67   C     C_R   0.841168 0.197009 0.784766 -0.046525
C68   C     C_R   0.359680 0.360187 0.858772 0.776972
C69   C     C_R   0.642841 0.360255 0.140400 0.794956
C70   C     C_R   0.358138 0.636259 0.855469 0.809234
C71   C     C_R   0.359893 0.639478 0.139808 0.799356
C72   C     C_R   0.640893 0.360155 0.861267 0.886135
C73   C     C_R   0.585712 0.294492 0.536614 0.073137
C74   C     C_R   0.532297 0.346291 0.590719 -0.170869
C75   C     C_3   0.118338 0.134571 0.971936 0.093419
C76   C     C_3   0.154298 0.110530 0.900295 -0.379611
C77   C     C_3   0.229657 0.147471 0.939895 -0.938503
C78   C     C_R   0.803748 0.195707 0.695624 -0.078645
C79   C     C_3   0.042579 0.431697 0.501328 0.056425
C80   C     C_3   0.136232 0.423180 0.572091 -0.308890
C81   C     C_3   0.176024 0.483823 0.580569 -0.904505
C82   C     C_1   0.963517 0.715799 0.456300 0.164937
C83   C     C_3   0.914956 0.766821 0.713299 0.056874
C84   C     C_3   0.830934 0.831741 0.739629 -0.317031
C85   C     C_3   0.746323 0.837776 0.657377 -0.935287
C86   C     C_3   0.125620 0.603772 0.811554 0.177272
C87   C     C_3   0.133647 0.656029 0.911110 -0.322210
C88   C     C_3   0.132451 0.603311 0.953150 -0.899651
C89   C     C_R   0.833037 0.262725 0.934882 0.431745
C90   C     C_1   0.420304 0.631007 0.732991 0.192487
C91   C     C_1   0.135674 0.918483 0.241456 0.185961
C92   C     C_1   0.188274 0.707696 0.398843 0.133154
C93   C     C_1   0.548248 0.291837 0.445390 0.134402
C94   C     C_1   0.326923 0.062631 0.455111 0.149354
C95   C     C_3   0.828936 0.396735 0.048787 0.048323
C96   C     C_3   0.830089 0.433619 0.144431 -0.331690
C97   C     C_3   0.879385 0.501380 0.205661 -0.961344
H1    H     H_    0.959823 0.243487 0.436743 0.171978
H2    H     H_    0.679043 0.727556 0.091522 0.179758
H3    H     H_    0.307588 0.749702 0.653434 0.173341
H4    H     H_    0.066099 0.944352 0.772403 0.180608
H5    H     H_    0.975659 0.917473 0.810702 0.184398
H6    H     H_    0.312893 0.552011 0.393582 0.143579
H7    H     H_    0.414677 0.466864 0.307055 0.160574
H8    H     H_    0.410374 0.526557 0.213585 0.143616
H9    H     H_    0.241939 0.799775 0.146809 0.149837
H10   H     H_    0.138687 0.267482 0.795985 0.154004
H11   H     H_    0.220945 0.087037 0.529114 0.143627
H12   H     H_    0.884662 0.480925 0.389143 0.140932
H13   H     H_    0.420579 0.174794 0.572687 0.149142
H14   H     H_    0.410928 0.279758 0.719091 0.144862
H15   H     H_    0.232055 0.362391 0.889681 0.145491
H16   H     H_    0.462343 0.384523 0.564621 0.139369
H17   H     H_    0.523630 0.389887 0.717698 0.127398
H18   H     H_    0.951568 0.209014 0.033753 0.174342
H19   H     H_    0.971651 0.096404 0.775903 0.149793
H20   H     H_    0.726843 0.116254 0.208209 0.159898
H21   H     H_    0.175554 0.110333 0.027017 0.175020
H22   H     H_    0.090566 0.208774 0.002341 0.114271
H23   H     H_    0.759755 0.448619 0.262732 0.188367
H24   H     H_    0.180109 0.036611 0.869478 0.228942
H25   H     H_    0.099430 0.138888 0.847091 0.200026
H26   H     H_    0.204897 0.221498 0.969913 0.259516
H27   H     H_    0.253541 0.129454 0.886217 0.269366
H28   H     H_    0.287002 0.118714 0.991965 0.268044
H29   H     H_    0.998297 0.502467 0.521570 0.138418
H30   H     H_    0.048267 0.412371 0.435832 0.142143
H31   H     H_    0.132054 0.441472 0.637793 0.227763
H32   H     H_    0.181464 0.352669 0.553742 0.230185
H33   H     H_    0.184678 0.463857 0.516654 0.251390
H34   H     H_    0.634086 0.209736 0.114870 0.161747
H35   H     H_    0.242756 0.478052 0.634195 0.269807
H36   H     H_    0.131402 0.554652 0.597917 0.281408
H37   H     H_    0.907945 0.699563 0.673175 0.150205
H38   H     H_    0.919366 0.788507 0.669235 0.141329
H39   H     H_    0.824605 0.808923 0.781174 0.234732
H40   H     H_    0.837181 0.899279 0.780003 0.222814
H41   H     H_    0.751184 0.860236 0.614575 0.275459
H42   H     H_    0.686896 0.886724 0.678760 0.271840
H43   H     H_    0.736770 0.771636 0.617989 0.259401
H44   H     H_    0.160144 0.531576 0.803154 0.173966
H45   H     H_    0.778616 0.814290 0.183562 0.178442
H46   H     H_    0.055619 0.607694 0.766601 0.148219
H47   H     H_    0.195499 0.673346 0.947916 0.260830
H48   H     H_    0.077746 0.720222 0.920052 0.237593
H49   H     H_    0.069144 0.587594 0.916463 0.249925
H50   H     H_    0.136519 0.643777 0.023971 0.267115
H51   H     H_    0.190431 0.540054 0.951554 0.279732
H52   H     H_    0.786018 0.450877 0.018961 0.168134
H53   H     H_    0.898980 0.375665 0.051468 0.127481
H54   H     H_    0.759826 0.465807 0.144104 0.216866
H55   H     H_    0.864393 0.377589 0.170785 0.231615
H56   H     H_    0.892212 0.682267 0.523314 0.121190
H57   H     H_    0.951744 0.468013 0.212669 0.261947
H58   H     H_    0.873487 0.531195 0.272951 0.267646
H59   H     H_    0.850189 0.555482 0.178130 0.274545
H60   H     H_    0.739942 0.677337 0.461517 0.154944
H61   H     H_    0.638254 0.699881 0.320375 0.184671
H62   H     H_    0.714424 0.203891 0.526250 0.134532
N1    N     N_1   0.039110 0.706223 0.484836 -0.192698
N2    N     N_1   0.489965 0.583423 0.725400 -0.187064
N3    N     N_1   0.090697 0.989893 0.238619 -0.201456
N4    N     N_1   0.136884 0.739465 0.434448 -0.190795
N5    N     N_1   0.518177 0.289756 0.372116 -0.221763
N6    N     N_1   0.330820 0.013754 0.384764 -0.200244
O1    O     O_3   1.000000 0.000000 0.500000 -0.485841
O2    O     O_R   0.323460 0.615830 0.884170 -0.611197
O3    O     O_R   0.444880 0.615840 0.176480 -0.640930
O4    O     O_R   0.055060 0.884200 0.615800 -0.635028
O5    O     O_R   0.615800 0.444940 0.884180 -0.648133
O6    O     O_R   0.323440 0.615840 0.055040 -0.662770
O7    O     O_R   0.615780 0.323500 0.884180 -0.613682
O8    O     O_R   0.615760 0.323500 0.055050 -0.617538
O9    O     O_R   0.444910 0.615830 0.884180 -0.640149
O10   O     O_R   0.615780 0.615830 0.176490 -0.670090
O11   O     O_R   0.323430 0.444950 0.884170 -0.656863
O12   O     O_R   0.055100 0.176520 0.615800 -0.633351
O13   O     O_R   0.884210 0.176520 0.444920 -0.645310
O14   O     O_R   0.176540 0.055080 0.615800 -0.646362
O15   O     O_R   0.884190 0.884200 0.323480 -0.645944
O16   O     O_R   0.176540 0.884190 0.444930 -0.632839
O17   O     O_R   0.884180 0.055090 0.615790 -0.646079
O18   O     O_R   0.055100 0.884190 0.323490 -0.632187
O19   O     O_R   0.884190 0.176530 0.615790 -0.638848
O20   O     O_3   0.056353 0.090824 0.936528 -0.642607
O21   O     O_3   0.008833 0.375107 0.497237 -0.647962
O22   O     O_3   0.991033 0.760039 0.791654 -0.679519
O23   O     O_R   0.884180 0.884200 0.444920 -0.633602
O24   O     O_3   0.168550 0.623863 0.781043 -0.645531
O25   O     O_3   0.791916 0.326898 0.998110 -0.642365
O26   O     O_R   0.176510 0.884190 0.615800 -0.639620
O27   O     O_R   0.884210 0.055080 0.323480 -0.636213
O28   O     O_3   0.499970 0.500030 0.999970 -0.481797
O29   O     O_R   0.615800 0.615830 0.055050 -0.639211
O30   O     O_R   0.444880 0.323510 0.884180 -0.639906
O31   O     O_R   0.615760 0.444950 0.176490 -0.660558
Zn1   Zn    Zn3+2 0.956630 0.130130 0.543370 0.967666
Zn2   Zn    Zn3+2 0.130140 0.956620 0.543380 0.982051
Zn3   Zn    Zn3+2 0.956630 0.956620 0.369870 0.988224
Zn4   Zn    Zn3+2 0.956610 0.956630 0.543370 0.976152
Zn5   Zn    Zn3+2 0.543340 0.369890 0.956600 0.997345
Zn6   Zn    Zn3+2 0.543340 0.543410 0.130100 0.950331
Zn7   Zn    Zn3+2 0.369830 0.543410 0.956590 0.942132
Zn8   Zn    Zn3+2 0.543370 0.543400 0.956600 0.975507

loop_
_geom_bond_atom_site_label_1
_geom_bond_atom_site_label_2
_ccdc_geom_bond_type
C87   C88   S    
C63   C65   A    
C17   C69   S    
C23   C45   A    
C79   O21   S    
C12   C74   A    
C27   C29   A    
C11   C13   A    
C21   H61   S    
C4    O27   A    
C7    O21   S    
C95   C96   S    
O26   Zn2   S    
C73   C93   S    
C5    C67   A    
C68   O11   A    
C7    C8    A    
C39   C41   A    
C54   C60   A    
C25   C28   S    
C67   C78   A    
C12   C23   A    
C27   H2    S    
C26   C27   A    
C62   C63   A    
O28   Zn8   S    
C83   C84   S    
C18   C24   A    
C76   H24   S    
C6    H1    S    
O8    Zn5   S    
C36   C37   A    
C22   C29   A    
C52   O17   A    
C28   O23   A    
C56   C89   A    
C30   C31   A    
C97   H59   S    
O23   Zn4   S    
C10   C17   A    
C40   C49   S    
C96   H55   S    
C46   H8    S    
C4    C13   S    
O28   Zn5   S    
C30   H4    S    
C33   O24   S    
C18   C19   A    
C73   C74   A    
O27   Zn3   S    
C63   H15   S    
O1    Zn3   S    
C83   H37   S    
C95   O25   S    
C18   C82   S    
C46   C47   A    
C35   C36   A    
C45   C56   A    
C8    C9    A    
C86   O24   S    
C89   O25   S    
C91   N3    T    
C95   H52   S    
O2    Zn7   S    
C87   H47   S    
C9    C10   A    
C85   H42   S    
C39   C90   S    
C83   H38   S    
C61   C62   A    
C16   O14   A    
C1    C37   S    
C47   C53   A    
C40   O18   A    
C65   C68   S    
C24   C25   A    
C59   C60   A    
O12   Zn1   S    
C21   C22   A    
C45   C72   S    
O11   Zn7   S    
C83   O22   S    
C75   O20   S    
C75   H21   S    
C69   O8    A    
C55   C94   S    
C52   C78   S    
O16   Zn2   S    
C3    O20   S    
C94   N6    T    
O9    Zn8   S    
C66   O29   A    
C44   C46   A    
C86   H46   S    
C12   H17   S    
C44   H7    S    
C90   N2    T    
C58   H14   S    
C31   H5    S    
C75   H22   S    
C76   C77   S    
C38   H3    S    
C6    C11   A    
C86   C87   S    
C81   H35   S    
C62   H10   S    
C80   H31   S    
C93   N5    T    
C25   C26   A    
C74   H16   S    
C69   O31   A    
O18   Zn3   S    
O28   Zn6   S    
C29   C66   S    
C60   C61   A    
C51   C53   A    
C72   O5    A    
C2    C89   A    
C75   C76   S    
O1    Zn2   S    
C37   C38   A    
C77   H26   S    
C42   C92   S    
C28   O15   A    
C2    H18   S    
C47   C48   A    
C64   C73   A    
C14   H20   S    
O29   Zn8   S    
C96   C97   S    
C34   C64   A    
C50   C51   A    
C88   H51   S    
O17   Zn4   S    
C95   H53   S    
C42   C48   A    
C97   H57   S    
C84   C85   S    
C70   O9    A    
C85   H43   S    
O4    Zn4   S    
C1    O26   A    
C92   N4    T    
C48   C49   A    
O13   Zn1   S    
C84   H40   S    
C49   C50   A    
C70   O2    A    
C71   O3    A    
C55   C57   A    
C43   C44   A    
C19   H56   S    
C22   C24   A    
C66   O10   A    
C42   C43   A    
O31   Zn6   S    
C53   C71   S    
C72   O7    A    
C77   H28   S    
C16   O12   A    
C40   O16   A    
C15   C17   A    
C79   H30   S    
C54   C55   A    
C84   H39   S    
C23   C34   A    
C80   H32   S    
C87   H48   S    
C32   O22   S    
O5    Zn8   S    
C79   H29   S    
C31   C32   A    
C52   O19   A    
O10   Zn6   S    
C4    O13   A    
C80   C81   S    
C3    C5    A    
C43   H6    S    
C57   H13   S    
C81   H36   S    
C6    C7    A    
O30   Zn5   S    
O14   Zn2   S    
C54   H11   S    
C56   C67   A    
O28   Zn7   S    
C30   C36   A    
C20   H60   S    
C76   H25   S    
C32   C33   A    
C19   C20   A    
C2    C3    A    
C58   C59   A    
O1    Zn1   S    
C5    H19   S    
O15   Zn3   S    
C26   H45   S    
C8    H12   S    
C34   C78   A    
C96   H54   S    
C81   H33   S    
C38   C39   A    
C51   H9    S    
C64   H62   S    
C1    O4    A    
C33   C35   A    
C88   H50   S    
O3    Zn6   S    
C68   O30   A    
C71   O6    A    
C97   H58   S    
O6    Zn7   S    
O7    Zn5   S    
C35   C41   A    
O1    Zn4   S    
C10   C11   A    
C79   C80   S    
C50   C91   S    
C15   H34   S    
C20   C21   A    
O19   Zn1   S    
C16   C61   S    
C77   H27   S    
C9    H23   S    
C88   H49   S    
C14   C15   A    
C57   C58   A    
C13   C14   A    
C82   N1    T    
C85   H41   S    
C59   C65   A    
C86   H44   S    
C41   C70   S    
