data_mof_unit_15773.cif
_audit_creation_date              2012-12-10T16:32:40-0500
_audit_creation_method            fapswitch 2.2
_symmetry_space_group_name_H-M    P1
_symmetry_Int_Tables_number       1
_space_group_crystal_system       triclinic
_cell_length_a                    16.944539
_cell_length_b                    16.944846
_cell_length_c                    16.945022
_cell_angle_alpha                 65.746167
_cell_angle_beta                  65.743532
_cell_angle_gamma                 65.745028
_cell_volume                      3869.00093511

loop_
_atom_site_label
_atom_site_type_symbol
_atom_type_description
_atom_site_fract_x
_atom_site_fract_y
_atom_site_fract_z
_atom_type_partial_charge
C1    C     C_R   0.587844 0.039098 0.587909 -0.031831
C2    C     C_R   0.821529 0.564286 0.032568 0.915133
C3    C     C_R   0.435745 0.967358 0.178474 0.915132
C4    C     C_R   0.564252 0.032647 0.821526 0.915144
C5    C     C_R   0.564243 0.821524 0.032667 0.915138
C6    C     C_R   0.435753 0.178475 0.967343 0.915128
C7    C     C_R   0.032691 0.564233 0.821523 0.915128
C8    C     C_R   0.967308 0.435767 0.178477 0.915141
C9    C     C_R   0.821529 0.032580 0.564281 0.915161
C10   C     C_R   0.178471 0.967410 0.435723 0.915167
C11   C     C_R   0.542486 0.019621 0.542602 0.111554
C12   C     C_R   0.412157 0.960876 0.412104 -0.031830
C13   C     C_R   0.457511 0.980351 0.457417 0.111554
C14   C     C_R   0.019629 0.542416 0.542667 0.111563
C15   C     C_R   0.980355 0.457590 0.457335 0.111561
C16   C     C_R   0.542459 0.542614 0.019648 0.111694
C17   C     C_R   0.457524 0.457392 0.980372 0.111693
C18   C     C_R   0.489894 0.090100 0.488391 -0.200949
C19   C     C_R   0.510101 0.909872 0.511630 -0.200940
C20   C     C_R   0.929486 0.551178 0.555235 -0.196802
C21   C     C_R   0.070498 0.448829 0.444767 -0.196796
C22   C     C_R   0.552053 0.554371 0.929485 -0.196934
C23   C     C_R   0.039097 0.587809 0.587945 -0.031790
C24   C     C_R   0.447928 0.445638 0.070535 -0.196936
C25   C     C_R   0.447585 0.070519 0.445993 -0.196826
C26   C     C_R   0.552410 0.929454 0.554028 -0.196833
C27   C     C_R   0.509764 0.511956 0.909901 -0.201040
C28   C     C_R   0.490221 0.488048 0.090119 -0.201034
C29   C     C_R   0.909904 0.508934 0.512774 -0.200934
C30   C     C_R   0.090080 0.491073 0.487227 -0.200936
C31   C     C_R   0.545819 0.043041 0.677381 0.067856
C32   C     C_R   0.454176 0.956960 0.322623 0.067849
C33   C     C_R   0.042718 0.677388 0.545976 0.067968
C34   C     C_R   0.960888 0.412195 0.412058 -0.031790
C35   C     C_R   0.957268 0.322616 0.454028 0.067969
C36   C     C_R   0.677379 0.545925 0.042831 0.067902
C37   C     C_R   0.322619 0.454081 0.957162 0.067909
C38   C     C_R   0.322626 0.957104 0.454102 0.067954
C39   C     C_R   0.677382 0.042849 0.545914 0.067944
C40   C     C_R   0.454189 0.322624 0.956934 0.067825
C41   C     C_R   0.545796 0.677369 0.043107 0.067829
C42   C     C_R   0.956823 0.454236 0.322630 0.067816
C43   C     C_R   0.043165 0.545766 0.677372 0.067815
C44   C     C_R   0.595948 0.047220 0.724815 -0.063119
C45   C     C_R   0.587827 0.587911 0.039123 -0.031823
C46   C     C_R   0.404049 0.952785 0.275186 -0.063117
C47   C     C_R   0.047035 0.724824 0.596024 -0.063208
C48   C     C_R   0.952961 0.275176 0.403977 -0.063210
C49   C     C_R   0.724816 0.595998 0.047102 -0.063207
C50   C     C_R   0.275182 0.404005 0.952892 -0.063205
C51   C     C_R   0.275183 0.952867 0.404013 -0.063183
C52   C     C_R   0.724819 0.047113 0.595994 -0.063181
C53   C     C_R   0.404058 0.275189 0.952764 -0.063144
C54   C     C_R   0.595935 0.724809 0.047257 -0.063145
C55   C     C_R   0.952712 0.404077 0.275191 -0.063092
C56   C     C_R   0.412162 0.412090 0.960896 -0.031827
C57   C     C_R   0.047287 0.595922 0.724809 -0.063087
C58   C     C_R   0.682176 0.054203 0.682184 -0.357507
C59   C     C_R   0.317821 0.945798 0.317815 -0.357509
C60   C     C_R   0.054194 0.682175 0.682189 -0.357496
C61   C     C_R   0.945809 0.317822 0.317809 -0.357495
C62   C     C_R   0.682173 0.682183 0.054212 -0.357422
C63   C     C_R   0.317826 0.317819 0.945790 -0.357421
C64   C     C_R   0.967468 0.178469 0.435700 0.915148
C65   C     C_R   0.032530 0.821531 0.564301 0.915131
C66   C     C_R   0.178471 0.435717 0.967426 0.915137
H1    H     H_    0.592956 0.874452 0.595808 0.134476
H2    H     H_    0.592331 0.596417 0.874484 0.134371
H3    H     H_    0.125489 0.409232 0.402054 0.134489
H4    H     H_    0.874495 0.590774 0.597947 0.134484
H5    H     H_    0.719240 0.057699 0.719236 0.200093
H6    H     H_    0.280756 0.942313 0.280759 0.200100
H7    H     H_    0.057687 0.719246 0.719235 0.200086
H8    H     H_    0.942324 0.280749 0.280760 0.200088
H9    H     H_    0.719240 0.719235 0.057700 0.200118
H10   H     H_    0.280763 0.280767 0.942293 0.200115
H11   H     H_    0.413228 0.095203 0.681750 0.180938
H12   H     H_    0.407038 0.125520 0.404214 0.134480
H13   H     H_    0.448934 0.980656 0.722196 0.189868
H14   H     H_    0.551043 0.019366 0.277819 0.189863
H15   H     H_    0.586773 0.904817 0.318234 0.180943
H16   H     H_    0.094304 0.682350 0.413231 0.180620
H17   H     H_    0.979705 0.721849 0.449672 0.190134
H18   H     H_    0.020268 0.278152 0.550343 0.190133
H19   H     H_    0.905670 0.317667 0.586768 0.180615
H20   H     H_    0.682162 0.413227 0.094581 0.180682
H21   H     H_    0.721952 0.449447 0.980000 0.189983
H22   H     H_    0.278035 0.550584 0.019963 0.189992
H23   H     H_    0.159855 0.483857 0.476973 0.132747
H24   H     H_    0.317861 0.586772 0.905384 0.180674
H25   H     H_    0.317938 0.905219 0.586772 0.180675
H26   H     H_    0.278017 0.019796 0.550699 0.190095
H27   H     H_    0.721994 0.980094 0.449370 0.190082
H28   H     H_    0.682091 0.094670 0.413240 0.180690
H29   H     H_    0.586766 0.318314 0.904733 0.180885
H30   H     H_    0.551119 0.277766 0.019272 0.189854
H31   H     H_    0.448836 0.722247 0.980802 0.189869
H32   H     H_    0.413225 0.681651 0.095339 0.180882
H33   H     H_    0.904408 0.586761 0.318510 0.181019
H34   H     H_    0.840129 0.516150 0.523028 0.132743
H35   H     H_    0.018937 0.551369 0.277670 0.189845
H36   H     H_    0.981007 0.448665 0.722362 0.189840
H37   H     H_    0.095531 0.413241 0.681488 0.181029
H38   H     H_    0.482350 0.478443 0.159907 0.132669
H39   H     H_    0.517643 0.521555 0.840112 0.132670
H40   H     H_    0.518235 0.840081 0.520965 0.132735
H41   H     H_    0.481760 0.159891 0.479056 0.132740
H42   H     H_    0.407649 0.403591 0.125536 0.134371
N1    N     N_3   0.453477 0.041119 0.720341 -0.425368
N2    N     N_3   0.453425 0.720307 0.041275 -0.425422
N3    N     N_3   0.958464 0.546663 0.279740 -0.425420
N4    N     N_3   0.041502 0.453346 0.720267 -0.425418
N5    N     N_3   0.546512 0.958904 0.279658 -0.425366
N6    N     N_3   0.040135 0.720507 0.453843 -0.425198
N7    N     N_3   0.959838 0.279501 0.546164 -0.425197
N8    N     N_3   0.720453 0.453729 0.040442 -0.425288
N9    N     N_3   0.279552 0.546285 0.959522 -0.425289
N10   N     N_3   0.279583 0.959363 0.546337 -0.425263
N11   N     N_3   0.720436 0.040540 0.453695 -0.425252
N12   N     N_3   0.546548 0.279678 0.958801 -0.425407
O1    O     O_R   0.982940 0.138950 0.510160 -0.605167
O2    O     O_R   0.982940 0.510160 0.138950 -0.605315
O3    O     O_R   0.861050 0.017060 0.489840 -0.605190
O4    O     O_R   0.138950 0.982940 0.510160 -0.605192
O5    O     O_R   0.867700 0.025880 0.612340 -0.638702
O6    O     O_R   0.132300 0.974120 0.387660 -0.638705
O7    O     O_R   0.025880 0.612340 0.867700 -0.638666
O8    O     O_R   0.974120 0.387660 0.132300 -0.638666
O9    O     O_R   0.612340 0.867700 0.025880 -0.638613
O10   O     O_R   0.387660 0.132300 0.974120 -0.638614
O11   O     O_R   0.387660 0.974120 0.132300 -0.638632
O12   O     O_R   0.017060 0.861050 0.489840 -0.605167
O13   O     O_R   0.612340 0.025880 0.867700 -0.638627
O14   O     O_R   0.132300 0.387660 0.974120 -0.638608
O15   O     O_R   0.867700 0.612340 0.025880 -0.638609
O16   O     O_R   0.974120 0.132300 0.387660 -0.638690
O17   O     O_R   0.025880 0.867700 0.612340 -0.638690
O18   O     O_R   0.138950 0.510160 0.982940 -0.605279
O19   O     O_R   0.861050 0.489840 0.017060 -0.605276
O20   O     O_R   0.510160 0.982940 0.138950 -0.605327
O21   O     O_R   0.489840 0.017060 0.861050 -0.605328
O22   O     O_R   0.489840 0.861050 0.017060 -0.605344
O23   O     O_R   0.510160 0.138950 0.982940 -0.605341
O24   O     O_R   0.017060 0.489840 0.861050 -0.605320
Zn1   Zn    Zn3+2 0.004880 0.004880 0.583590 0.965542
Zn2   Zn    Zn3+2 0.995120 0.995120 0.416410 0.965543
Zn3   Zn    Zn3+2 0.004880 0.583590 0.004880 0.965447
Zn4   Zn    Zn3+2 0.995120 0.416410 0.995120 0.965447
Zn5   Zn    Zn3+2 0.583590 0.004880 0.004880 0.965426
Zn6   Zn    Zn3+2 0.416410 0.995120 0.995120 0.965422

loop_
_geom_bond_atom_site_label_1
_geom_bond_atom_site_label_2
_ccdc_geom_bond_type
C16   C28   A    
C5    O22   A    
C64   O16   A    
C11   C18   A    
H32   N2    S    
C46   C59   A    
H36   N4    S    
C34   C42   A    
C6    O10   A    
C13   C25   A    
O6    Zn2   S    
C18   C25   A    
C33   N6    S    
C3    O11   A    
C2    O19   A    
O17   Zn1   S    
C10   O4    A    
C58   H5    S    
C48   C64   S    
C63   H10   S    
C10   C51   S    
C64   O1    A    
C60   H7    S    
C1    C31   A    
H29   N12   S    
C23   C43   A    
H20   N8    S    
C34   C35   A    
C19   C26   A    
H26   N10   S    
C18   H41   S    
C47   C60   A    
C66   O14   A    
C37   C56   A    
C8    O8    A    
C44   C58   A    
C23   C33   A    
C1    C11   S    
O10   Zn6   S    
C35   N7    S    
C24   H42   S    
C32   N5    S    
C15   C34   S    
O24   Zn4   S    
C59   H6    S    
C65   O17   A    
C5    O9    A    
C39   C52   A    
C12   C32   A    
C50   C63   A    
H17   N6    S    
C20   H4    S    
C9    C52   S    
C14   C30   A    
C30   H23   S    
C35   C48   A    
C8    C55   S    
C7    O24   A    
O21   Zn6   S    
C15   C29   A    
C20   C29   A    
O19   Zn4   S    
C17   C24   A    
C31   C44   A    
H13   N1    S    
C25   H12   S    
C17   C27   A    
H24   N9    S    
C14   C20   A    
C5    C54   S    
H19   N7    S    
O13   Zn5   S    
H16   N6    S    
C4    O21   A    
C1    C39   A    
O8    Zn4   S    
C57   C60   A    
C38   C51   A    
C4    C44   S    
C11   C26   A    
C40   C56   A    
C9    O5    A    
C21   H3    S    
H37   N4    S    
C14   C23   S    
C42   N3    S    
O9    Zn5   S    
C2    C49   S    
C42   C55   A    
H28   N11   S    
C28   H38   S    
C66   O18   A    
O3    Zn2   S    
O23   Zn5   S    
O18   Zn3   S    
H33   N3    S    
C31   N1    S    
H25   N10   S    
C36   C45   A    
O2    Zn3   S    
C12   C13   S    
H11   N1    S    
C50   C66   S    
C17   C56   S    
C22   H2    S    
H21   N8    S    
C52   C58   A    
C27   H39   S    
C40   N12   S    
H18   N7    S    
O15   Zn3   S    
C22   C27   A    
C33   C47   A    
O1    Zn1   S    
C62   H9    S    
C51   C59   A    
C43   N4    S    
C26   H1    S    
C6    C53   S    
C36   N8    S    
C65   O12   A    
O14   Zn4   S    
O4    Zn1   S    
C16   C22   A    
C49   C62   A    
C29   H34   S    
C32   C46   A    
H30   N12   S    
C24   C28   A    
C16   C45   S    
C61   H8    S    
H35   N3    S    
C54   C62   A    
C21   C30   A    
C3    C46   S    
C2    O15   A    
C41   N2    S    
O12   Zn2   S    
O22   Zn6   S    
H22   N9    S    
O5    Zn1   S    
H31   N2    S    
C53   C63   A    
C8    O2    A    
C48   C61   A    
C39   N11   S    
C55   C61   A    
C37   C50   A    
C9    O3    A    
C47   C65   S    
C12   C38   A    
C41   C54   A    
C43   C57   A    
C38   N10   S    
C19   H40   S    
C15   C21   A    
C37   N9    S    
H14   N5    S    
C40   C53   A    
H15   N5    S    
C13   C19   A    
C41   C45   A    
O11   Zn6   S    
C3    O20   A    
H27   N11   S    
C7    O7    A    
C6    O23   A    
C10   O6    A    
O20   Zn5   S    
C7    C57   S    
O16   Zn2   S    
C36   C49   A    
O7    Zn3   S    
C4    O13   A    
