data_mof_unit_31823.cif
_audit_creation_date              2012-12-10T18:21:17-0500
_audit_creation_method            fapswitch 2.2
_symmetry_space_group_name_H-M    P1
_symmetry_Int_Tables_number       1
_space_group_crystal_system       triclinic
_cell_length_a                    14.85962
_cell_length_b                    13.998404
_cell_length_c                    10.627949
_cell_angle_alpha                 90.062951
_cell_angle_beta                  90.148986
_cell_angle_gamma                 90.264058
_cell_volume                      2210.69760197

loop_
_atom_site_label
_atom_site_type_symbol
_atom_type_description
_atom_site_fract_x
_atom_site_fract_y
_atom_site_fract_z
_atom_type_partial_charge
C1    C     C_R   0.327032 0.499810 0.499339 0.849950
C2    C     C_3   0.592520 0.518610 0.930025 0.902707
C3    C     C_R   0.812916 0.499377 0.382027 -0.239458
C4    C     C_R   0.768301 0.500907 0.496961 -0.041612
C5    C     C_R   0.813914 0.504405 0.611074 -0.276357
C6    C     C_R   0.906912 0.506568 0.611792 0.140423
C7    C     C_R   0.953495 0.504659 0.496016 0.057481
C8    C     C_R   0.906215 0.501195 0.380646 0.055159
C9    C     C_R   0.953822 0.509813 0.725997 -0.225864
C10   C     C_R   0.047246 0.509624 0.726111 -0.211335
C11   C     C_R   0.093915 0.506553 0.612075 0.156536
C12   C     C_R   0.492173 0.499726 0.257952 0.863429
C13   C     C_R   0.047118 0.504690 0.495947 -0.007376
C14   C     C_R   0.094053 0.501500 0.380212 -0.002104
C15   C     C_R   0.046518 0.501832 0.265019 0.495390
C16   C     C_R   0.952658 0.499255 0.266418 -0.316737
C17   C     C_R   0.186882 0.504798 0.612027 -0.263728
C18   C     C_R   0.232031 0.499687 0.498140 -0.029397
C19   C     C_R   0.187434 0.497330 0.383042 -0.257129
C20   C     C_R   0.552423 0.798279 0.415727 -0.078037
C21   C     C_R   0.552425 0.202070 0.415662 -0.048533
C22   C     C_R   0.448070 0.797891 0.584860 -0.053116
C23   C     C_R   0.447999 0.201738 0.584753 -0.074807
C24   C     C_R   0.446876 0.898581 0.587013 0.014802
C25   C     C_R   0.446820 0.101044 0.586913 0.023459
C26   C     C_R   0.673087 0.500206 0.498241 0.919013
C27   C     C_R   0.499920 0.949377 0.499891 0.085141
C28   C     C_R   0.499936 0.050627 0.499894 0.082872
C29   C     C_R   0.553148 0.898966 0.413009 0.003493
C30   C     C_R   0.553184 0.101405 0.413017 0.008274
C31   C     C_R   0.394232 0.949432 0.673775 -0.208383
C32   C     C_R   0.394178 0.049814 0.673677 -0.208286
C33   C     C_R   0.605499 0.050557 0.325887 -0.213596
C34   C     C_R   0.605493 0.950174 0.325889 -0.208644
C35   C     C_R   0.496096 0.499983 0.742180 0.961390
C36   C     C_3   0.433861 0.585218 0.070156 0.345615
C37   C     C_3   0.446855 0.404123 0.069328 0.310737
C38   C     C_3   0.429540 0.579071 0.925716 -0.494429
C39   C     C_3   0.453659 0.403897 0.925468 -0.595804
C40   C     C_3   0.589601 0.508049 0.076424 -0.490877
C41   C     C_3   0.490721 0.498975 0.121098 -0.061825
C42   C     C_3   0.494356 0.499747 0.878438 -0.038478
H1    H     H_    0.083118 0.511006 0.814992 0.158804
H2    H     H_    0.224337 0.506902 0.699880 0.115139
H3    H     H_    0.226096 0.493006 0.296792 0.141390
H4    H     H_    0.916210 0.496103 0.177969 0.156666
H5    H     H_    0.592988 0.758095 0.349961 0.148889
H6    H     H_    0.592870 0.242523 0.349754 0.159070
H7    H     H_    0.407658 0.757420 0.650804 0.127543
H8    H     H_    0.407532 0.241930 0.650609 0.132960
H9    H     H_    0.353164 0.911609 0.741709 0.142229
H10   H     H_    0.353063 0.087352 0.741529 0.138287
H11   H     H_    0.646473 0.088405 0.257884 0.144610
H12   H     H_    0.646483 0.912607 0.257898 0.146752
H13   H     H_    0.363876 0.577134 0.107338 0.002441
H14   H     H_    0.374383 0.406238 0.096025 0.060963
H15   H     H_    0.359233 0.563090 0.895349 0.110492
H16   H     H_    0.384868 0.393896 0.885352 0.156894
H17   H     H_    0.446630 0.649667 0.883925 0.243916
H18   H     H_    0.492532 0.341689 0.891300 0.211853
H19   H     H_    0.620280 0.572166 0.121641 0.186835
H20   H     H_    0.629724 0.448496 0.114899 0.157524
H21   H     H_    0.774909 0.496860 0.294676 0.117541
H22   H     H_    0.776884 0.504902 0.698580 0.175221
H23   H     H_    0.918252 0.511884 0.814826 0.133599
N1    N     N_R   0.500070 0.750030 0.500050 -0.105111
N2    N     N_R   0.500070 0.249970 0.500050 -0.116299
O1    O     O_R   0.367860 0.580280 0.500020 -0.636104
O2    O     O_R   0.367860 0.419720 0.500020 -0.632891
O3    O     O_R   0.500000 0.580270 0.314790 -0.608596
O4    O     O_R   0.500000 0.419730 0.314790 -0.585159
O5    O     O_R   0.632160 0.580270 0.499960 -0.612181
O6    O     O_R   0.632160 0.419730 0.499960 -0.610693
O7    O     O_R   0.500030 0.580270 0.685200 -0.608146
O8    O     O_R   0.500030 0.419730 0.685200 -0.630715
Zn1   Zn    Zn3+2 0.500020 0.607200 0.499990 0.949408
Zn2   Zn    Zn3+2 0.500020 0.392800 0.499990 0.943257
O9    O     O_3   0.474666 0.673920 0.104049 -0.606128
C43   C     C_3   0.411305 0.740498 0.150473 0.143697
H24   H     H_    0.449947 0.798532 0.197249 0.165888
H25   H     H_    0.367030 0.708777 0.224031 0.128198
C44   C     C_3   0.355652 0.785140 0.044048 -0.417527
H26   H     H_    0.401418 0.811208 0.968833 0.234873
H27   H     H_    0.309355 0.730779 0.003143 0.206811
C45   C     C_3   0.300008 0.868793 0.092228 -0.963089
H28   H     H_    0.253877 0.844684 0.168020 0.265155
H29   H     H_    0.259368 0.898691 0.013916 0.266327
H30   H     H_    0.344907 0.925896 0.129415 0.270994
O10   O     O_3   0.489195 0.321379 0.119097 -0.625659
C46   C     C_3   0.433397 0.239123 0.108955 0.072436
H31   H     H_    0.478146 0.176056 0.117311 0.169562
H32   H     H_    0.399975 0.233267 0.015358 0.119646
C47   C     C_3   0.362573 0.235052 0.214175 -0.341573
H33   H     H_    0.392145 0.260403 0.303920 0.264501
H34   H     H_    0.305158 0.282391 0.190860 0.200819
C48   C     C_3   0.326333 0.133829 0.232331 -0.949295
H35   H     H_    0.294839 0.107547 0.143859 0.263645
H36   H     H_    0.274821 0.133678 0.307826 0.273440
H37   H     H_    0.381452 0.084841 0.260269 0.266740
O11   O     O_3   0.090475 0.496253 0.150521 -0.652671
C49   C     C_3   0.119845 0.588299 0.112941 0.048003
H38   H     H_    0.174184 0.578079 0.042596 0.157494
H39   H     H_    0.150170 0.630365 0.191653 0.127000
C50   C     C_3   0.043120 0.644812 0.051696 -0.369402
H40   H     H_    0.006478 0.598731 0.983528 0.228985
H41   H     H_    0.994941 0.667844 0.125327 0.210713
C51   C     C_3   0.078563 0.733133 0.983640 -0.941087
H42   H     H_    0.113444 0.781342 0.051107 0.270917
H43   H     H_    0.021561 0.772356 0.940498 0.270537
H44   H     H_    0.126029 0.712222 0.907957 0.260043
O12   O     O_3   0.612481 0.616250 0.902543 -0.632307
C52   C     C_3   0.704650 0.640132 0.918777 0.139117
H45   H     H_    0.738103 0.638336 0.825519 0.163062
H46   H     H_    0.741202 0.590724 0.983056 0.117329
C53   C     C_3   0.711442 0.741292 0.972075 -0.342738
H47   H     H_    0.679281 0.792162 0.905677 0.236093
H48   H     H_    0.675014 0.744759 0.063218 0.233672
C54   C     C_3   0.809274 0.770827 0.993074 -0.994892
H49   H     H_    0.841542 0.722628 0.062572 0.262995
H50   H     H_    0.812051 0.844992 0.030064 0.272897
H51   H     H_    0.847045 0.767947 0.903097 0.271709
O13   O     O_3   0.656967 0.460851 0.863978 -0.705912
C55   C     C_3   0.674222 0.367788 0.909764 0.002956
H52   H     H_    0.671849 0.318202 0.828132 0.184321
H53   H     H_    0.624408 0.339939 0.977169 0.186040
C56   C     C_3   0.768916 0.364314 0.966633 -0.364259
H54   H     H_    0.819203 0.378569 0.891713 0.228616
H55   H     H_    0.776593 0.420368 0.039954 0.203862
C57   C     C_3   0.788032 0.267170 0.025595 -0.923399
H56   H     H_    0.739981 0.252719 0.103307 0.261623
H57   H     H_    0.857442 0.266735 0.064550 0.270225
H58   H     H_    0.782061 0.209814 0.953704 0.262655

loop_
_geom_bond_atom_site_label_1
_geom_bond_atom_site_label_2
_ccdc_geom_bond_type
C35   O7    A    
C47   H33   S    
C27   C29   A    
C26   O5    A    
O2    Zn2   S    
O12   C52   S    
N2    Zn2   S    
C24   C27   A    
C15   O11   S    
O5    Zn1   S    
C26   O6    A    
C6    C9    A    
C52   H46   S    
C7    C8    A    
C45   H28   S    
C25   C28   A    
C35   O8    A    
C1    C18   S    
C56   H54   S    
O7    Zn1   S    
C20   N1    A    
C47   C48   S    
C38   C42   S    
C5    C6    A    
C55   H53   S    
C15   C16   A    
C48   H37   S    
C1    O1    A    
C40   H20   S    
C52   C53   S    
C18   C19   A    
C8    C16   A    
C23   N2    A    
C35   C42   S    
C54   H49   S    
C22   N1    A    
C37   H14   S    
C32   H10   S    
C53   H48   S    
C48   H36   S    
C51   H42   S    
C9    C10   A    
C21   H6    S    
C25   C32   A    
C45   H29   S    
C49   H39   S    
C13   C14   A    
C21   N2    A    
C51   H43   S    
C36   C41   S    
C50   H41   S    
C52   H45   S    
C17   C18   A    
C39   C42   S    
C9    H23   S    
C20   C29   A    
C2    O13   S    
C33   H11   S    
C2    O12   S    
C49   H38   S    
C55   H52   S    
C3    C8    A    
C16   H4    S    
C43   H25   S    
O9    C43   S    
C23   H8    S    
C56   C57   S    
C39   H16   S    
C29   C34   A    
C1    O2    A    
C40   H19   S    
C43   H24   S    
C5    H22   S    
C54   H51   S    
C12   C41   S    
C38   H15   S    
C46   H32   S    
C31   C32   A    
C53   C54   S    
N1    Zn1   S    
C48   H35   S    
C33   C34   A    
O8    Zn2   S    
C22   H7    S    
C40   C41   S    
C12   O4    A    
C34   H12   S    
C49   C50   S    
C44   H27   S    
O3    Zn1   S    
C51   H44   S    
C22   C24   A    
C3    C4    A    
O4    Zn2   S    
C46   C47   S    
C57   H56   S    
C45   H30   S    
C12   O3    A    
C11   C17   A    
C56   H55   S    
C30   C33   A    
C10   H1    S    
C14   C19   A    
C31   H9    S    
C4    C5    A    
C55   C56   S    
C50   H40   S    
C43   C44   S    
C4    C26   S    
C19   H3    S    
C6    C7    A    
C3    H21   S    
O1    Zn1   S    
C44   C45   S    
C21   C30   A    
C37   O10   S    
C57   H58   S    
C36   C38   S    
O13   C55   S    
C24   C31   A    
C37   C39   S    
C36   H13   S    
C36   O9    S    
C11   C13   A    
C46   H31   S    
C2    C42   S    
C39   H18   S    
C28   C30   A    
O11   C49   S    
C23   C25   A    
C37   C41   S    
C54   H50   S    
C17   H2    S    
C20   H5    S    
C10   C11   A    
C38   H17   S    
C2    C40   S    
C7    C13   A    
C47   H34   S    
C44   H26   S    
C27   C28   A    
O6    Zn2   S    
C14   C15   A    
O10   C46   S    
C50   C51   S    
C53   H47   S    
C57   H57   S    
