data_mof_unit_32221.cif
_audit_creation_date              2012-12-11T15:10:48-0500
_audit_creation_method            fapswitch 2.2
_symmetry_space_group_name_H-M    P1
_symmetry_Int_Tables_number       1
_space_group_crystal_system       triclinic
_cell_length_a                    21.177346
_cell_length_b                    7.229661
_cell_length_c                    18.391321
_cell_angle_alpha                 90.000047
_cell_angle_beta                  92.904297
_cell_angle_gamma                 90.0
_cell_volume                      2812.18706784

loop_
_atom_site_label
_atom_site_type_symbol
_atom_type_description
_atom_site_fract_x
_atom_site_fract_y
_atom_site_fract_z
_atom_type_partial_charge
O1    O     O_R   0.448880 0.506250 0.415280 -0.531003
O2    O     O_R   0.551120 0.006250 0.584720 -0.531004
O3    O     O_R   0.434830 0.174000 0.557310 -0.502216
O4    O     O_R   0.565170 0.674000 0.442690 -0.502216
C1    C     C_R   0.417612 0.344584 0.580497 0.735306
C2    C     C_R   0.582388 0.844584 0.419503 0.735307
O5    O     O_R   0.441680 0.176440 0.414130 -0.512606
O6    O     O_R   0.558320 0.676440 0.585870 -0.512605
O7    O     O_R   0.558020 0.007570 0.440520 -0.525119
O8    O     O_R   0.441980 0.507570 0.559480 -0.525119
C3    C     C_R   0.425315 0.345096 0.390774 0.804400
C4    C     C_R   0.574685 0.845096 0.609226 0.804401
O9    O     O_3   0.538160 0.339670 0.508820 -0.362006
O10   O     O_3   0.461840 0.839670 0.491180 -0.362007
V1    V     V_3+5 0.492920 0.064260 0.498360 1.608579
V2    V     V_3+5 0.507080 0.564260 0.501640 1.608580
C5    C     C_R   0.885749 0.855187 0.693134 -0.070103
C6    C     C_R   0.114250 0.355192 0.306866 -0.070103
H1    H     H_    0.970433 0.863393 0.760847 0.132477
H2    H     H_    0.029566 0.363406 0.239153 0.132476
H3    H     H_    0.912878 0.818999 0.647071 0.188274
H4    H     H_    0.087122 0.319009 0.352929 0.188274
C7    C     C_R   0.888989 0.934943 0.820235 -0.090565
C8    C     C_R   0.111011 0.434943 0.179764 -0.090565
C9    C     C_R   0.583978 0.863839 0.742866 0.176338
C10   C     C_R   0.416022 0.363840 0.257134 0.176336
C11   C     C_R   0.618370 0.865924 0.809619 0.426112
C12   C     C_R   0.381631 0.365922 0.190381 0.426113
C13   C     C_R   0.683995 0.870986 0.812000 -0.142330
C14   C     C_R   0.316005 0.370979 0.188000 -0.142330
C15   C     C_R   0.718158 0.881422 0.748382 -0.000027
C16   C     C_R   0.281842 0.381417 0.251617 -0.000028
C17   C     C_R   0.684146 0.847419 0.680092 -0.073877
C18   C     C_R   0.315854 0.347415 0.319908 -0.073877
C19   C     C_R   0.785875 0.902234 0.752199 0.008132
C20   C     C_R   0.214125 0.402230 0.247801 0.008131
C21   C     C_R   0.819196 0.862867 0.688712 -0.023793
C22   C     C_R   0.180804 0.362865 0.311287 -0.023794
C23   C     C_R   0.786186 0.822663 0.622380 0.274561
C24   C     C_R   0.213814 0.322658 0.377620 0.274560
C25   C     C_R   0.720133 0.803576 0.619049 0.194490
C26   C     C_R   0.279867 0.303572 0.380951 0.194491
C27   C     C_R   0.822683 0.959818 0.816376 0.323431
C28   C     C_R   0.177317 0.459814 0.183624 0.323432
C29   C     C_R   0.919550 0.881615 0.758584 -0.233771
C30   C     C_R   0.080450 0.381623 0.241416 -0.233772
C31   C     C_R   0.615724 0.850994 0.677445 -0.179488
C32   C     C_R   0.384276 0.350994 0.322555 -0.179489
H5    H     H_    0.707593 0.854469 0.864803 0.214052
H6    H     H_    0.292407 0.354458 0.135196 0.214052
C33   C     C_1   0.864393 0.938988 0.131932 -0.155825
C34   C     C_1   0.135607 0.438988 0.868068 -0.155824
C35   C     C_1   0.821436 0.924968 0.175557 0.045546
C36   C     C_1   0.178564 0.424968 0.824443 0.045546
C37   C     C_1   0.770740 0.905870 0.227493 0.057030
C38   C     C_1   0.229260 0.405870 0.772507 0.057030
C39   C     C_1   0.728050 0.889247 0.271325 0.070867
C40   C     C_1   0.271950 0.389247 0.728675 0.070867
C41   C     C_1   0.677374 0.870140 0.323272 0.091397
C42   C     C_1   0.322626 0.370140 0.676728 0.091396
C43   C     C_1   0.634491 0.856083 0.366974 -0.078045
C44   C     C_1   0.365509 0.356083 0.633025 -0.078046
O11   O     O_R   0.058070 0.289240 0.940580 -0.527074
O12   O     O_R   0.941930 0.789240 0.059420 -0.527074
O13   O     O_R   0.058330 0.616740 0.085880 -0.515416
O14   O     O_R   0.941670 0.116740 0.914120 -0.515416
C45   C     C_R   0.072151 0.448297 0.111093 0.752568
C46   C     C_R   0.927849 0.948297 0.888907 0.752569
O15   O     O_R   0.065180 0.619040 0.942700 -0.518954
O16   O     O_R   0.934820 0.119040 0.057300 -0.518954
O17   O     O_R   0.948870 0.787780 0.915270 -0.540475
O18   O     O_R   0.051130 0.287780 0.084730 -0.540475
C47   C     C_R   0.083246 0.450331 0.920249 0.720503
C48   C     C_R   0.916754 0.950331 0.079751 0.720502
O19   O     O_3   0.961870 0.453310 0.991210 -0.365694
O20   O     O_3   0.038130 0.953310 0.008790 -0.365695
V3    V     V_3+5 0.007070 0.728770 0.001630 1.518880
V4    V     V_3+5 0.992930 0.228770 0.998370 1.518881
Br1   Br    Br    0.831523 0.791527 0.533815 -0.444584
Br2   Br    Br    0.168477 0.291515 0.466183 -0.444584
Cl1   Cl    Cl    0.791327 0.094624 0.886510 -0.627623
Cl2   Cl    Cl    0.208674 0.594614 0.113488 -0.627624
Br3   Br    Br    0.492620 0.866893 0.742007 -0.416372
Br4   Br    Br    0.507380 0.366902 0.257993 -0.416372
Cl3   Cl    Cl    0.580414 0.860338 0.892622 -0.416919
Cl4   Cl    Cl    0.419587 0.360335 0.107378 -0.416917
Br5   Br    Br    0.686892 0.660774 0.537778 -0.489056
Br6   Br    Br    0.313108 0.160772 0.462222 -0.489055

loop_
_geom_bond_atom_site_label_1
_geom_bond_atom_site_label_2
_ccdc_geom_bond_type
O14   C46   A    
C7    C29   A    
O16   V4    S    
O12   V3    S    
O15   V3    S    
O1    C3    A    
C33   C48   S    
O2    C4    A    
C2    O7    A    
C23   C25   A    
C13   H5    S    
O5    C3    A    
C16   C20   A    
C2    C43   S    
C22   C24   A    
C5    C29   A    
C28   Cl2   S    
C39   C41   S    
C11   C13   A    
C40   C42   S    
C7    C27   A    
C42   C44   T    
C45   O18   A    
C11   Cl3   S    
O18   V4    S    
C8    C45   S    
O13   C45   A    
C18   C26   A    
O16   C48   A    
C24   Br2   S    
O15   C47   A    
C19   C27   A    
C9    C31   A    
C10   C32   A    
O5    V1    S    
C14   H6    S    
O6    V2    S    
C3    C32   S    
C4    C31   S    
C25   Br5   S    
C6    C30   A    
C34   C36   T    
C35   C37   S    
O14   V4    S    
C36   C38   S    
C41   C43   T    
O13   V3    S    
O20   V3    S    
O4    C2    A    
C34   C47   S    
O11   C47   A    
C5    H3    S    
C33   C35   T    
C23   Br1   S    
C7    C46   S    
O4    V2    S    
O6    C4    A    
C15   C17   A    
O1    V2    S    
C5    C21   A    
O2    V1    S    
C37   C39   T    
C12   Cl4   S    
C8    C28   A    
C15   C19   A    
C20   C28   A    
C26   Br6   S    
C20   C22   A    
O17   V3    S    
O3    V1    S    
C10   Br4   S    
C19   C21   A    
C6    H4    S    
O3    C1    A    
H1    C29   S    
C9    C11   A    
C10   C12   A    
C8    C30   A    
C12   C14   A    
C6    C22   A    
C17   C25   A    
C1    O8    A    
C21   C23   A    
O8    V2    S    
C14   C16   A    
C46   O17   A    
C27   Cl1   S    
C24   C26   A    
C17   C31   A    
C38   C40   T    
C1    C44   S    
O7    V1    S    
O19   V4    S    
C18   C32   A    
C13   C15   A    
O9    V2    S    
C9    Br3   S    
O12   C48   A    
O10   V1    S    
H2    C30   S    
C16   C18   A    
O11   V4    S    
