data_mof_unit_47433.cif
_audit_creation_date              2012-12-10T19:01:20-0500
_audit_creation_method            fapswitch 2.2
_symmetry_space_group_name_H-M    P1
_symmetry_Int_Tables_number       1
_space_group_crystal_system       triclinic
_cell_length_a                    9.547717
_cell_length_b                    10.824657
_cell_length_c                    15.471928
_cell_angle_alpha                 89.899524
_cell_angle_beta                  74.391164
_cell_angle_gamma                 89.874561
_cell_volume                      1540.06002776

loop_
_atom_site_label
_atom_site_type_symbol
_atom_type_description
_atom_site_fract_x
_atom_site_fract_y
_atom_site_fract_z
_atom_type_partial_charge
C1    C     C_R   0.000703 0.262380 0.498665 0.804004
C2    C     C_R   0.672371 0.472898 0.905839 0.049783
C3    C     C_R   0.767416 0.417090 0.951298 0.074192
C4    C     C_R   0.522441 0.490331 0.951136 0.088889
C5    C     C_R   0.472912 0.465230 0.044700 0.076032
C6    C     C_R   0.571497 0.412490 0.088149 -0.236780
C7    C     C_R   0.714660 0.387763 0.042150 -0.181996
C8    C     C_R   0.419393 0.527542 0.905224 -0.210973
C9    C     C_R   0.274160 0.545151 0.950192 -0.165412
C10   C     C_R   0.226012 0.528236 0.042572 0.189282
C11   C     C_R   0.325195 0.490459 0.091171 0.087491
C12   C     C_R   0.918338 0.497380 0.672025 0.823861
C13   C     C_R   0.078972 0.548550 0.086935 -0.132909
C14   C     C_R   0.029575 0.535205 0.179682 -0.190002
C15   C     C_R   0.273522 0.482240 0.185045 -0.248217
C16   C     C_R   0.127840 0.063513 0.495836 0.130545
C17   C     C_R   0.004600 0.129338 0.490594 -0.096134
C18   C     C_R   0.886949 0.064882 0.473956 -0.204695
C19   C     C_R   0.886693 0.936165 0.474370 -0.208794
C20   C     C_R   0.004134 0.870977 0.491166 -0.096738
C21   C     C_R   0.127680 0.936274 0.496131 0.116626
C22   C     C_3   0.210989 0.930095 0.565171 -0.458891
C23   C     C_R   0.000415 0.737715 0.498880 0.802550
C24   C     C_3   0.211376 0.070302 0.564589 -0.458055
C25   C     C_R   0.605924 0.536753 0.425645 0.255227
C26   C     C_R   0.543958 0.451185 0.569640 -0.078982
C27   C     C_R   0.395162 0.451400 0.569708 -0.085116
C28   C     C_R   0.458712 0.536305 0.425550 0.259528
C29   C     C_3   0.471152 0.658857 0.380255 -0.494098
C30   C     C_3   0.629736 0.660222 0.381264 -0.507603
C31   C     C_R   0.081845 0.500780 0.327810 0.800642
C32   C     C_R   0.873281 0.480276 0.769528 -0.114506
C33   C     C_R   0.127455 0.504616 0.229341 -0.050873
C34   C     C_R   0.913034 0.390221 0.904280 0.350394
C35   C     C_R   0.964788 0.422211 0.813987 -0.241754
C36   C     C_R   0.730353 0.508485 0.815959 -0.253050
Cu1   Cu    Cu3+1 0.140670 0.499980 0.500000 0.940883
Cu2   Cu    Cu3+1 0.859330 0.500020 0.500000 0.943311
H1    H     H_    0.783850 0.345756 0.079111 0.201847
H2    H     H_    0.002298 0.575508 0.049830 0.143040
H3    H     H_    0.792635 0.113269 0.464660 0.166863
H4    H     H_    0.792161 0.888568 0.465548 0.155399
H5    H     H_    0.146485 0.889770 0.629769 0.204295
H6    H     H_    0.321135 0.889638 0.538236 0.194099
H7    H     H_    0.147262 0.111677 0.628878 0.203671
H8    H     H_    0.321479 0.110367 0.536826 0.199992
H9    H     H_    0.574182 0.412936 0.626655 0.149655
H10   H     H_    0.314791 0.413740 0.626728 0.141104
H11   H     H_    0.456470 0.651999 0.311543 0.196643
H12   H     H_    0.345936 0.462290 0.225828 0.146937
H13   H     H_    0.404741 0.731458 0.423104 0.214629
H14   H     H_    0.706170 0.656002 0.313088 0.190877
H15   H     H_    0.653944 0.732821 0.425615 0.208331
H16   H     H_    0.916073 0.552335 0.212618 0.143455
H17   H     H_    0.198870 0.572574 0.912201 0.152714
H18   H     H_    0.074828 0.397177 0.777714 0.175251
H19   H     H_    0.666667 0.558758 0.779805 0.154446
H20   H     H_    0.540341 0.384045 0.157405 0.143729
H21   H     H_    0.445935 0.539516 0.833540 0.139499
N1    N     N_R   0.648210 0.500930 0.499430 -0.185765
N2    N     N_R   0.352300 0.500890 0.499430 -0.185166
O1    O     O_R   0.118810 0.319640 0.500000 -0.578614
O2    O     O_R   0.881230 0.319680 0.499990 -0.582923
O3    O     O_R   0.055580 0.499970 0.629840 -0.589803
O4    O     O_R   0.818000 0.500010 0.629830 -0.586684
O5    O     O_R   0.118770 0.680320 0.500010 -0.577825
O6    O     O_R   0.881190 0.680360 0.500000 -0.583151
O7    O     O_R   0.182000 0.499990 0.370170 -0.586819
O8    O     O_R   0.944420 0.500030 0.370160 -0.581981
Cl1   Cl    Cl    0.031440 0.307218 0.953182 -0.665405

loop_
_geom_bond_atom_site_label_1
_geom_bond_atom_site_label_2
_ccdc_geom_bond_type
C27   H10   S    
C2    C4    A    
C19   H4    S    
C16   C21   A    
C9    H17   S    
C25   N1    A    
C9    C10   A    
C34   Cl1   S    
Cu1   N2    S    
C22   H5    S    
C20   C23   S    
C7    H1    S    
C4    C8    A    
C24   H8    S    
Cu1   O5    S    
C14   C33   A    
C31   C33   S    
Cu1   O1    S    
Cu2   O8    S    
C16   C24   S    
C29   H11   S    
C13   C14   A    
C28   N2    A    
C25   C28   A    
C26   C27   A    
C29   C30   S    
C11   C15   A    
C26   H9    S    
Cu2   N1    S    
C24   H7    S    
C1    O2    A    
C23   O5    A    
C30   H14   S    
C28   C29   S    
C14   H16   S    
Cu1   Cu2   S    
C5    C11   A    
C6    C7    A    
C3    C7    A    
C8    H21   S    
C29   H13   S    
C5    C6    A    
C12   O3    A    
C30   H15   S    
Cu2   O2    S    
C15   H12   S    
C16   C17   A    
C10   C11   A    
C1    C17   S    
C2    C36   A    
Cu2   O6    S    
Cu1   O7    S    
C32   C36   A    
C31   O8    A    
Cu1   O3    S    
C18   C19   A    
C20   C21   A    
C36   H19   S    
C1    O1    A    
C17   C18   A    
C34   C35   A    
C12   O4    A    
C18   H3    S    
C23   O6    A    
C25   C30   S    
C6    H20   S    
C22   H6    S    
C4    C5    A    
C13   H2    S    
C2    C3    A    
C27   N2    A    
C3    C34   A    
C35   H18   S    
C21   C22   S    
Cu2   O4    S    
C26   N1    A    
C31   O7    A    
C15   C33   A    
C12   C32   S    
C32   C35   A    
C19   C20   A    
C22   C24   S    
C8    C9    A    
C10   C13   A    
