data_mof_unit_28875.cif
_audit_creation_date              2012-10-26T19:55:52-0400
_audit_creation_method            fapswitch 2.2
_symmetry_space_group_name_H-M    P1
_symmetry_Int_Tables_number       1
_space_group_crystal_system       triclinic
_cell_length_a                    10.937561
_cell_length_b                    10.854935
_cell_length_c                    9.674639
_cell_angle_alpha                 88.631665
_cell_angle_beta                  91.29304
_cell_angle_gamma                 96.128325
_cell_volume                      1141.51484241

loop_
_atom_site_label
_atom_site_type_symbol
_atom_type_description
_atom_site_fract_x
_atom_site_fract_y
_atom_site_fract_z
_atom_type_partial_charge
C1    C     C_R   0.501912 0.262028 0.502900 0.572711
C2    C     C_R   0.857311 0.526389 0.001426 0.357799
C3    C     C_R   0.781738 0.415733 0.025677 -0.095570
C4    C     C_R   0.262182 0.498215 0.498030 0.536531
C5    C     C_R   0.762270 0.327885 0.922446 -0.104034
C6    C     C_R   0.816331 0.351294 0.793937 -0.048890
C7    C     C_R   0.888218 0.464364 0.767245 0.000968
C8    C     C_R   0.447960 0.099248 0.762594 -0.058135
C9    C     C_R   0.386977 0.027260 0.866409 -0.063726
C10   C     C_R   0.338481 0.906599 0.840303 -0.097295
C11   C     C_R   0.360785 0.854440 0.714732 -0.074749
C12   C     C_R   0.138730 0.384370 0.962304 -0.077221
C13   C     C_R   0.431076 0.923687 0.612601 0.033444
C14   C     C_R   0.460152 0.052478 0.628415 -0.003537
C15   C     C_R   0.502043 0.126284 0.510225 0.004402
C16   C     C_R   0.489831 0.735464 0.498420 0.571954
C17   C     C_R   0.533362 0.067261 0.390192 0.383864
C18   C     C_R   0.522739 0.939758 0.385483 -0.093351
C19   C     C_R   0.475580 0.867375 0.496647 -0.043604
C20   C     C_R   0.635332 0.690339 0.147839 -0.087288
C21   C     C_R   0.672883 0.802913 0.085517 -0.112998
C22   C     C_R   0.661052 0.816970 0.944651 0.270329
C23   C     C_R   0.927509 0.474259 0.381385 -0.106513
C24   C     C_R   0.629899 0.711466 0.864535 0.286189
C25   C     C_R   0.564699 0.600030 0.925924 0.089411
C26   C     C_R   0.564859 0.596285 0.075449 0.055824
C27   C     C_R   0.439729 0.406589 0.072516 0.343006
C28   C     C_R   0.736770 0.494312 0.502111 0.577023
C29   C     C_R   0.439256 0.407837 0.926038 -0.001136
C30   C     C_R   0.177116 0.502939 0.011440 -0.180311
C31   C     C_R   0.155865 0.531445 0.148461 -0.022017
C32   C     C_R   0.098285 0.440399 0.237728 0.023033
C33   C     C_R   0.059053 0.322036 0.186840 -0.030613
C34   C     C_R   0.870053 0.486039 0.506216 0.013529
C35   C     C_R   0.078542 0.294525 0.049456 0.444591
C36   C     C_R   0.941669 0.490411 0.629504 -0.001636
C37   C     C_R   0.069255 0.506384 0.620850 -0.141611
C38   C     C_R   0.127519 0.495348 0.494790 0.003636
C39   C     C_R   0.053936 0.473639 0.373531 -0.015310
C40   C     C_R   0.911052 0.550159 0.872969 -0.017006
Cl1   Cl    Cl    0.356523 0.278315 0.152066 -0.564673
Cl2   Cl    Cl    0.714412 0.963077 0.871395 -0.521254
Cl3   Cl    Cl    0.727943 0.720784 0.722047 -0.510654
Cu1   Cu    Cu3+1 0.499990 0.499990 0.640660 0.975763
Cu2   Cu    Cu3+1 0.500010 0.500010 0.359340 1.038530
F1    F     F_    0.580860 0.132501 0.278642 -0.601758
F2    F     F_    0.039964 0.180427 0.001081 -0.585864
F3    F     F_    0.877751 0.612115 0.101061 -0.658888
H1    H     H_    0.156669 0.360954 0.857308 0.135645
H2    H     H_    0.222858 0.572865 0.943253 0.107003
H3    H     H_    0.664731 0.679518 0.252811 0.217941
H4    H     H_    0.718282 0.877582 0.146306 0.186714
H5    H     H_    0.385777 0.334434 0.871320 0.129617
H6    H     H_    0.181684 0.624641 0.184046 0.148767
H7    H     H_    0.010091 0.252328 0.252914 0.146344
H8    H     H_    0.872649 0.459583 0.288738 0.180729
H9    H     H_    0.123199 0.521414 0.714763 0.115753
H10   H     H_    0.968232 0.636566 0.854815 0.166518
H11   H     H_    0.736569 0.397794 0.123349 0.163566
H12   H     H_    0.704280 0.242310 0.941637 0.191002
H13   H     H_    0.800053 0.282759 0.714163 0.151294
H14   H     H_    0.492997 0.186523 0.794758 0.148987
H15   H     H_    0.377837 0.065161 0.967613 0.191494
H16   H     H_    0.287811 0.851746 0.919272 0.125602
H17   H     H_    0.322251 0.759814 0.698397 0.131067
H18   H     H_    0.553902 0.897540 0.294873 0.143492
N1    N     N_R   0.501190 0.501210 0.147910 -0.242725
N2    N     N_R   0.501230 0.501290 0.852040 -0.275770
O1    O     O_R   0.499990 0.319640 0.618810 -0.556647
O2    O     O_R   0.500000 0.319660 0.381240 -0.371296
O3    O     O_R   0.319640 0.500000 0.618780 -0.536583
O4    O     O_R   0.319650 0.500020 0.381210 -0.478233
O5    O     O_R   0.500000 0.680340 0.618760 -0.462335
O6    O     O_R   0.500010 0.680360 0.381190 -0.548258
O7    O     O_R   0.680350 0.499980 0.618790 -0.445582
O8    O     O_R   0.680360 0.500000 0.381220 -0.527001

loop_
_geom_bond_atom_site_label_1
_geom_bond_atom_site_label_2
_ccdc_geom_bond_type
C33   H7    S    
C27   C29   A    
C7    C36   S    
C35   F2    S    
C12   H1    S    
C23   H8    S    
C5    C6    A    
C29   H5    S    
Cu2   O8    S    
C16   O6    A    
C26   N1    A    
C6    H13   S    
C36   C37   A    
C20   H3    S    
C30   C31   A    
Cu1   O3    S    
C18   C19   A    
C32   C39   S    
C8    C9    A    
Cu2   N1    S    
C7    C40   A    
C1    C15   S    
C9    C10   A    
C30   H2    S    
C28   C34   S    
C13   C14   A    
Cu2   O4    S    
C25   N2    A    
C38   C39   A    
C40   H10   S    
C13   C19   A    
C16   O5    A    
C24   C25   A    
C2    F3    S    
C25   C26   A    
C1    O1    A    
Cu2   O6    S    
Cu1   O7    S    
C37   C38   A    
C29   N2    A    
C27   Cl1   S    
C31   C32   A    
C23   C34   A    
C17   C18   A    
Cu1   O1    S    
C17   F1    S    
C12   C35   A    
C4    C38   S    
C22   C24   A    
Cu1   N2    S    
C28   O8    A    
C4    O4    A    
Cu1   Cu2   S    
C15   C17   A    
C8    C14   A    
C5    H12   S    
C12   C30   A    
Cu2   O2    S    
C9    H15   S    
C10   H16   S    
C3    C5    A    
C6    C7    A    
C18   H18   S    
C1    O2    A    
C32   C33   A    
C2    C3    A    
C11   C13   A    
C22   Cl2   S    
C20   C26   A    
C16   C19   S    
C23   C39   A    
C33   C35   A    
C34   C36   A    
C4    O3    A    
C31   H6    S    
Cu1   O5    S    
C27   N1    A    
C10   C11   A    
C2    C40   A    
C20   C21   A    
C24   Cl3   S    
C14   C15   A    
C21   C22   A    
C28   O7    A    
C21   H4    S    
C37   H9    S    
C11   H17   S    
C8    H14   S    
C3    H11   S    
