data_mof_unit_45271.cif
_audit_creation_date              2012-12-11T15:39:25-0500
_audit_creation_method            fapswitch 2.2
_symmetry_space_group_name_H-M    P1
_symmetry_Int_Tables_number       1
_space_group_crystal_system       triclinic
_cell_length_a                    17.382769
_cell_length_b                    24.609274
_cell_length_c                    14.849673
_cell_angle_alpha                 89.8565
_cell_angle_beta                  125.553114
_cell_angle_gamma                 90.104055
_cell_volume                      5168.11094347

loop_
_atom_site_label
_atom_site_type_symbol
_atom_type_description
_atom_site_fract_x
_atom_site_fract_y
_atom_site_fract_z
_atom_type_partial_charge
C1    C     C_R   0.349823 0.348945 0.909303 -0.198296
C2    C     C_R   0.428739 0.500106 0.628497 -0.018132
C3    C     C_R   0.184456 0.858867 0.003083 -0.067143
C4    C     C_3   0.232176 0.650219 0.076628 -0.285348
C5    C     C_3   0.805536 0.597154 0.899990 -0.219767
C6    C     C_3   0.731835 0.150161 0.076148 -0.285423
C7    C     C_3   0.305501 0.097133 0.900000 -0.219758
C8    C     C_R   0.947252 0.999868 0.272355 -0.008765
C9    C     C_R   0.928742 0.000106 0.628498 -0.018118
C10   C     C_R   0.174778 0.500753 0.722418 0.062323
C11   C     C_R   0.802468 0.500614 0.368562 0.051873
C12   C     C_R   0.674778 0.000753 0.722419 0.062317
C13   C     C_R   0.302465 0.000615 0.368565 0.051889
C14   C     C_R   0.022802 0.551577 0.622833 0.145648
C15   C     C_R   0.928937 0.551350 0.533860 0.167290
C16   C     C_R   0.522801 0.051577 0.622836 0.145618
C17   C     C_R   0.689179 0.375785 0.094177 -0.170777
C18   C     C_R   0.428936 0.051350 0.533864 0.167293
C19   C     C_R   0.072412 0.502578 0.666180 0.027465
C20   C     C_R   0.882459 0.502218 0.485222 0.034675
C21   C     C_R   0.572411 0.002578 0.666182 0.027467
C22   C     C_R   0.382457 0.002218 0.485225 0.034673
C23   C     C_R   0.019442 0.454293 0.637019 -0.187523
C24   C     C_R   0.924324 0.454054 0.546018 -0.178280
C25   C     C_R   0.519442 0.954293 0.637020 -0.187515
C26   C     C_R   0.424323 0.954054 0.546019 -0.178284
C27   C     C_3   0.940181 0.601070 0.484232 -0.495271
C28   C     C_R   0.849825 0.848945 0.909303 -0.198288
C29   C     C_3   0.042831 0.601259 0.580946 -0.492884
C30   C     C_3   0.440179 0.101071 0.484238 -0.495263
C31   C     C_3   0.542829 0.101260 0.580951 -0.492880
C32   C     C_R   0.320110 0.772311 0.939098 -0.209530
C33   C     C_R   0.785610 0.717840 0.093380 -0.229903
C34   C     C_R   0.820223 0.272339 0.939226 -0.209539
C35   C     C_R   0.285637 0.217827 0.093396 -0.229906
C36   C     C_R   0.773881 0.317413 0.941043 -0.088907
C37   C     C_R   0.332256 0.261962 0.092347 -0.096895
C38   C     C_R   0.273781 0.817392 0.940911 -0.088866
C39   C     C_R   0.189191 0.875807 0.094174 -0.170773
C40   C     C_R   0.832237 0.761973 0.092335 -0.096908
C41   C     C_R   0.743489 0.316896 0.009738 0.105991
C42   C     C_R   0.345889 0.267448 0.009144 0.100906
C43   C     C_R   0.243539 0.816925 0.009758 0.105881
C44   C     C_R   0.845887 0.767451 0.009144 0.100923
C45   C     C_R   0.443758 0.650679 0.092289 0.505162
C46   C     C_R   0.595582 0.628996 0.909037 0.507306
C47   C     C_R   0.943749 0.150680 0.092283 0.505194
C48   C     C_R   0.095585 0.128994 0.909038 0.507288
C49   C     C_R   0.759403 0.272619 0.077263 -0.305637
C50   C     C_R   0.377706 0.680020 0.001428 -0.018818
C51   C     C_R   0.318025 0.226874 0.930112 -0.310583
C52   C     C_R   0.259624 0.772695 0.077466 -0.305722
C53   C     C_R   0.818031 0.726873 0.930120 -0.310602
C54   C     C_R   0.302717 0.727225 0.073609 0.665746
C55   C     C_R   0.772920 0.680784 0.932724 0.675779
C56   C     C_R   0.802529 0.227160 0.073414 0.665679
C57   C     C_R   0.272922 0.180781 0.932720 0.675799
C58   C     C_R   0.334581 0.727781 0.005727 -0.017083
C59   C     C_R   0.751798 0.678436 0.011036 -0.020789
C60   C     C_R   0.834554 0.227770 0.005702 -0.017046
C61   C     C_R   0.685835 0.639944 0.002722 -0.048600
C62   C     C_R   0.251811 0.178427 0.011041 -0.020818
C63   C     C_R   0.386208 0.549200 0.459031 -0.128364
C64   C     C_R   0.389672 0.549104 0.368133 -0.159743
C65   C     C_R   0.886207 0.049199 0.459029 -0.128415
C66   C     C_R   0.889668 0.049103 0.368130 -0.159567
C67   C     C_R   0.402404 0.499913 0.330822 0.122769
C68   C     C_R   0.394335 0.500062 0.511990 0.116210
C69   C     C_R   0.902401 0.999912 0.330819 0.122724
C70   C     C_R   0.894338 0.000061 0.511992 0.116211
C71   C     C_R   0.389968 0.450788 0.368902 -0.147169
C72   C     C_R   0.877711 0.180023 0.001417 -0.018647
C73   C     C_R   0.386400 0.450838 0.459703 -0.136278
C74   C     C_R   0.889970 0.950787 0.368903 -0.147176
C75   C     C_R   0.886405 0.950837 0.459706 -0.136285
C76   C     C_R   0.478702 0.454451 0.247094 -0.088687
C77   C     C_R   0.445858 0.455178 0.693129 -0.056641
C78   C     C_R   0.978700 0.954451 0.247092 -0.088698
C79   C     C_R   0.945860 0.955177 0.693130 -0.056681
C80   C     C_R   0.232652 0.545820 0.752666 -0.140153
C81   C     C_R   0.753276 0.545396 0.304740 -0.137014
C82   C     C_R   0.732652 0.045820 0.752666 -0.140134
C83   C     C_R   0.185841 0.139939 0.002723 -0.048617
C84   C     C_R   0.253275 0.045397 0.304741 -0.137027
C85   C     C_R   0.478693 0.545333 0.246971 -0.095346
C86   C     C_R   0.446305 0.544974 0.693216 -0.045214
C87   C     C_R   0.978691 0.045332 0.246969 -0.095268
C88   C     C_R   0.946307 0.044974 0.693216 -0.045222
C89   C     C_R   0.230771 0.454712 0.748269 -0.115798
C90   C     C_R   0.755538 0.455057 0.305032 -0.106514
C91   C     C_R   0.730771 0.954712 0.748269 -0.115793
C92   C     C_R   0.255535 0.955058 0.305034 -0.106540
C93   C     C_R   0.348304 0.650431 0.908551 -0.238566
C94   C     C_R   0.447255 0.499869 0.272358 -0.008752
C95   C     C_R   0.690079 0.622771 0.093715 -0.197519
C96   C     C_R   0.848308 0.150432 0.908545 -0.238598
C97   C     C_R   0.190083 0.122767 0.093715 -0.197541
C98   C     C_R   0.445732 0.348967 0.093157 0.392248
C99   C     C_R   0.595412 0.370983 0.909210 0.458972
C100  C     C_R   0.945734 0.848967 0.093156 0.392257
C101  C     C_R   0.095417 0.870989 0.909209 0.458914
C102  C     C_R   0.381082 0.318676 0.002733 -0.009215
C103  C     C_R   0.684441 0.358850 0.003083 -0.067226
C104  C     C_R   0.881087 0.818675 0.002733 -0.009203
Cl1   Cl    Cl    0.531207 0.678389 0.222385 -0.658795
Cl2   Cl    Cl    0.540717 0.662917 0.781581 -0.655660
Cl3   Cl    Cl    0.031161 0.178391 0.222393 -0.658939
Cl4   Cl    Cl    0.040722 0.162916 0.781584 -0.655668
Cl5   Cl    Cl    0.536904 0.322400 0.223045 -0.696610
Cl6   Cl    Cl    0.541982 0.338601 0.780664 -0.711450
Cl7   Cl    Cl    0.036902 0.822399 0.223046 -0.696604
Cl8   Cl    Cl    0.041981 0.838598 0.780671 -0.711498
H1    H     H_    0.306537 0.335012 0.824472 0.144221
H2    H     H_    0.090374 0.593407 0.555103 0.204344
H3    H     H_    0.400427 0.136392 0.484310 0.212710
H4    H     H_    0.590371 0.093408 0.555107 0.204350
H5    H     H_    0.343582 0.771737 0.885623 0.163608
H6    H     H_    0.769511 0.717229 0.153724 0.164370
H7    H     H_    0.843822 0.271804 0.885878 0.163619
H8    H     H_    0.269550 0.217210 0.153750 0.164357
H9    H     H_    0.759885 0.351861 0.887946 0.150087
H10   H     H_    0.351186 0.293853 0.152112 0.150519
H11   H     H_    0.259664 0.851803 0.887683 0.150196
H12   H     H_    0.745941 0.369104 0.180256 0.142975
H13   H     H_    0.851161 0.793867 0.152093 0.150507
H14   H     H_    0.733358 0.271826 0.128206 0.170322
H15   H     H_    0.329623 0.231393 0.866261 0.166178
H16   H     H_    0.233701 0.771932 0.128538 0.170333
H17   H     H_    0.829642 0.731387 0.866278 0.166185
H18   H     H_    0.386991 0.588029 0.493362 0.143435
H19   H     H_    0.392407 0.587868 0.335770 0.153995
H20   H     H_    0.886988 0.088028 0.493359 0.143437
H21   H     H_    0.892402 0.087868 0.335766 0.154052
H22   H     H_    0.393026 0.411992 0.337194 0.123782
H23   H     H_    0.806538 0.835012 0.824471 0.144227
H24   H     H_    0.387344 0.412034 0.494521 0.139115
H25   H     H_    0.893030 0.911991 0.337197 0.123789
H26   H     H_    0.887354 0.912033 0.494527 0.139117
H27   H     H_    0.466575 0.412553 0.255996 0.143717
H28   H     H_    0.419906 0.414924 0.661956 0.160954
H29   H     H_    0.966573 0.912552 0.255993 0.143720
H30   H     H_    0.919910 0.914923 0.661958 0.160966
H31   H     H_    0.213855 0.587701 0.749077 0.114436
H32   H     H_    0.759242 0.586432 0.333733 0.132020
H33   H     H_    0.713855 0.087701 0.749079 0.114425
H34   H     H_    0.245967 0.869145 0.180255 0.142924
H35   H     H_    0.259240 0.086432 0.333733 0.132009
H36   H     H_    0.466525 0.587128 0.255804 0.171280
H37   H     H_    0.421249 0.585381 0.662156 0.156725
H38   H     H_    0.966519 0.087126 0.255800 0.171271
H39   H     H_    0.921251 0.085381 0.662157 0.156731
H40   H     H_    0.208864 0.412750 0.736394 0.106125
H41   H     H_    0.766174 0.413612 0.334170 0.119610
H42   H     H_    0.708864 0.912750 0.736395 0.106125
H43   H     H_    0.266169 0.913613 0.334174 0.119614
H44   H     H_    0.304246 0.664397 0.823665 0.149296
H45   H     H_    0.930035 0.593233 0.404216 0.198405
H46   H     H_    0.748402 0.627047 0.179825 0.136944
H47   H     H_    0.804250 0.164396 0.823658 0.149305
H48   H     H_    0.248408 0.127039 0.179825 0.136940
H49   H     H_    0.053253 0.415805 0.674263 0.141222
H50   H     H_    0.888520 0.415363 0.516487 0.144354
H51   H     H_    0.553253 0.915805 0.674262 0.141222
H52   H     H_    0.388519 0.915363 0.516488 0.144352
H53   H     H_    0.218447 0.636099 0.997312 0.137322
H54   H     H_    0.169586 0.672373 0.060660 0.161108
H55   H     H_    0.242771 0.613601 0.126366 0.177003
H56   H     H_    0.062173 0.636874 0.636219 0.206797
H57   H     H_    0.805198 0.577810 0.967565 0.122979
H58   H     H_    0.878570 0.609820 0.931037 0.126287
H59   H     H_    0.782466 0.566004 0.835088 0.187146
H60   H     H_    0.717950 0.136229 0.996664 0.137300
H61   H     H_    0.669327 0.172268 0.060487 0.161212
H62   H     H_    0.742461 0.113437 0.125615 0.177044
H63   H     H_    0.305106 0.077790 0.967545 0.122977
H64   H     H_    0.378564 0.109779 0.931099 0.126256
H65   H     H_    0.282431 0.065986 0.835092 0.187139
H66   H     H_    0.430032 0.093235 0.404221 0.198405
H67   H     H_    0.562171 0.136874 0.636225 0.206784
H68   H     H_    0.900429 0.636392 0.484302 0.212717
N1    N     N_R   0.394180 0.396910 0.943210 -0.065460
N2    N     N_R   0.474350 0.471570 0.793850 -0.059304
N3    N     N_R   0.025650 0.971570 0.206150 -0.037110
N4    N     N_R   0.974350 0.971570 0.793850 -0.059306
N5    N     N_R   0.319480 0.528420 0.793810 -0.043477
N6    N     N_R   0.680520 0.528420 0.206190 -0.043655
N7    N     N_R   0.819480 0.028420 0.793810 -0.043475
N8    N     N_R   0.180520 0.028420 0.206190 -0.043656
N9    N     N_R   0.525640 0.528390 0.206120 -0.042079
N10   N     N_R   0.474360 0.528390 0.793880 -0.061353
N11   N     N_R   0.025640 0.028390 0.206120 -0.042089
N12   N     N_R   0.605820 0.396910 0.056790 -0.053353
N13   N     N_R   0.974360 0.028390 0.793880 -0.061355
N14   N     N_R   0.319490 0.471590 0.793840 -0.045242
N15   N     N_R   0.680510 0.471590 0.206160 -0.043817
N16   N     N_R   0.819490 0.971590 0.793840 -0.045240
N17   N     N_R   0.180510 0.971590 0.206160 -0.043818
N18   N     N_R   0.394130 0.603080 0.943110 -0.065688
N19   N     N_R   0.605870 0.603080 0.056890 -0.056975
N20   N     N_R   0.894130 0.103080 0.943110 -0.065677
N21   N     N_R   0.105870 0.103080 0.056890 -0.056989
N22   N     N_R   0.450990 0.396900 0.056840 -0.083617
N23   N     N_R   0.894180 0.896910 0.943210 -0.065461
N24   N     N_R   0.549010 0.396900 0.943160 -0.084093
N25   N     N_R   0.950990 0.896900 0.056840 -0.083621
N26   N     N_R   0.049010 0.896900 0.943160 -0.084074
N27   N     N_R   0.105820 0.896910 0.056790 -0.053341
N28   N     N_R   0.450950 0.603070 0.056740 -0.099028
N29   N     N_R   0.549050 0.603070 0.943260 -0.094859
N30   N     N_R   0.950950 0.103070 0.056740 -0.099004
N31   N     N_R   0.049050 0.103070 0.943260 -0.094859
N32   N     N_R   0.525650 0.471570 0.206150 -0.037108
Ni1   Ni    Ni4+2 0.434860 0.434850 0.869700 0.233278
Ni2   Ni    Ni4+2 0.565140 0.434850 0.130300 0.269340
Ni3   Ni    Ni4+2 0.934860 0.934850 0.869700 0.233291
Ni4   Ni    Ni4+2 0.065140 0.934850 0.130300 0.269343
Ni5   Ni    Ni4+2 0.565130 0.565140 0.130240 0.260925
Ni6   Ni    Ni4+2 0.434870 0.565140 0.869760 0.228520
Ni7   Ni    Ni4+2 0.065130 0.065140 0.130240 0.260908
Ni8   Ni    Ni4+2 0.934870 0.065140 0.869760 0.228521
O1    O     O_3   0.314431 0.682499 0.137221 -0.607379
O2    O     O_3   0.742274 0.641304 0.852662 -0.575534
O3    O     O_3   0.814137 0.182393 0.136880 -0.607526
O4    O     O_3   0.242270 0.141304 0.852649 -0.575512

loop_
_geom_bond_atom_site_label_1
_geom_bond_atom_site_label_2
_ccdc_geom_bond_type
N26   Ni3   S    
C47   N30   A    
N13   Ni8   S    
C99   C103  A    
C29   H2    S    
C16   C21   A    
C91   N16   A    
C55   C59   A    
C99   N24   A    
C27   C29   S    
C28   H23   S    
C81   N6    A    
C12   C91   A    
N1    N22   A    
N19   Ni5   S    
C85   H36   S    
C32   C58   A    
C32   H5    S    
C62   C83   S    
C93   N18   A    
C65   H20   S    
N14   Ni1   S    
N24   Ni1   S    
C52   H16   S    
C57   C62   A    
C6    H60   S    
C11   C81   A    
C101  Cl8   S    
N31   Ni8   S    
N23   N25   A    
C13   C84   A    
C3    C43   S    
C8    C69   S    
N29   Ni6   S    
N8    N17   A    
C29   H56   S    
N23   Ni3   S    
C35   C37   A    
C2    C68   S    
C9    C88   A    
C5    H57   S    
C30   C31   S    
N7    N16   A    
C43   C52   A    
C84   H35   S    
C66   C69   A    
C89   N14   A    
C85   N9    A    
C4    O1    S    
C95   H46   S    
C42   C102  S    
C100  C104  A    
C100  N25   A    
C79   N4    A    
C7    H65   S    
C78   N3    A    
C9    C79   A    
C63   H18   S    
N12   Ni2   S    
C37   C42   A    
C34   H7    S    
N15   Ni2   S    
C76   C94   A    
C44   C53   A    
C89   H40   S    
C90   N15   A    
C20   C24   A    
C10   C89   A    
C45   Cl1   S    
C87   H38   S    
C7    H63   S    
C67   C94   S    
C23   C24   A    
C77   H28   S    
C18   C30   S    
C32   C38   A    
C92   H43   S    
N5    N14   A    
C67   C71   A    
C38   H11   S    
C42   C51   A    
N7    Ni8   S    
C34   C60   A    
C3    C101  A    
C5    O2    S    
C64   H19   S    
C3    C39   A    
C33   H6    S    
C33   C59   A    
C98   Cl5   S    
C8    C78   A    
C35   H8    S    
N18   Ni6   S    
C1    H1    S    
C71   H22   S    
N10   Ni6   S    
C41   C49   A    
C81   H32   S    
C52   C54   A    
C30   H3    S    
C53   C55   A    
C17   N12   A    
C44   C104  S    
C15   C20   A    
C74   H25   S    
C11   C20   S    
C86   N10   A    
C33   C40   A    
C59   C61   S    
N5    Ni6   S    
C46   C61   A    
N18   N28   A    
C50   C58   S    
C97   H48   S    
N6    N15   A    
C27   H68   S    
N25   Ni4   S    
C91   H42   S    
C74   C75   A    
C86   H37   S    
N11   Ni7   S    
C71   C73   A    
N16   Ni3   S    
C10   C80   A    
N26   N27   A    
N4    Ni3   S    
C6    H62   S    
C68   C73   A    
C98   C102  A    
C99   Cl6   S    
C12   C21   S    
C75   H26   S    
N20   N30   A    
N30   Ni7   S    
C56   C60   A    
C39   N27   A    
C16   C31   S    
C72   C96   A    
C19   C23   A    
C64   C67   A    
C4    H55   S    
C49   H14   S    
N2    Ni1   S    
C66   H21   S    
C85   C94   A    
C28   C104  A    
C17   H12   S    
C15   C27   S    
C48   N31   A    
C10   C19   S    
C80   N5    A    
C80   H31   S    
C7    H64   S    
C77   N2    A    
C5    H59   S    
C12   C82   A    
C69   C74   A    
N22   Ni2   S    
C90   H41   S    
N21   Ni7   S    
N17   Ni4   S    
C5    H58   S    
C55   O2    S    
C51   C57   A    
C16   C18   A    
N32   Ni2   S    
C45   N28   A    
C47   Cl3   S    
C13   C92   A    
C22   C26   A    
N20   Ni8   S    
C88   H39   S    
C78   H29   S    
C53   H17   S    
C14   C29   S    
C92   N17   A    
C46   N29   A    
C31   H4    S    
C82   H33   S    
C87   N11   A    
C6    O3    S    
C54   C58   A    
N8    Ni7   S    
N28   Ni5   S    
C96   N20   A    
N4    N13   A    
C21   C25   A    
C63   C68   A    
C1    N1    A    
N12   N24   A    
C18   C22   A    
C28   N23   A    
C14   C19   A    
C98   N22   A    
C93   H44   S    
C24   H50   S    
C97   N21   A    
C63   C64   A    
C54   O1    S    
N9    N32   A    
N3    N11   A    
C56   O3    S    
C30   H66   S    
C61   C95   A    
C50   C93   A    
C6    H61   S    
C37   H10   S    
C27   H45   S    
C49   C56   A    
C48   C83   A    
C31   H67   S    
C82   N7    A    
C8    C87   A    
C51   H15   S    
C36   H9    S    
C25   C26   A    
C38   C43   A    
C2    C77   A    
N6    Ni5   S    
N3    Ni4   S    
N9    Ni5   S    
C7    O4    S    
C11   C90   A    
C76   N32   A    
C48   Cl4   S    
C45   C50   A    
C25   H51   S    
C40   H13   S    
C88   N13   A    
C39   H34   S    
C26   H52   S    
N27   Ni4   S    
C4    H54   S    
C13   C22   S    
C2    C86   A    
C35   C62   A    
C34   C36   A    
C17   C103  A    
C47   C72   A    
C84   N8    A    
C101  N26   A    
C46   Cl2   S    
C9    C70   S    
C79   H30   S    
C41   C103  S    
C40   C44   A    
C96   H47   S    
C76   H27   S    
C100  Cl7   S    
C95   N19   A    
C65   C66   A    
C83   C97   A    
C73   H24   S    
C36   C41   A    
C70   C75   A    
C60   C72   S    
C14   C15   A    
N1    Ni1   S    
N2    N10   A    
N19   N29   A    
C4    H53   S    
C1    C102  A    
N21   N31   A    
C65   C70   A    
C23   H49   S    
C57   O4    S    
