data_mof_unit_44142.cif
_audit_creation_date              2012-12-10T16:42:56-0500
_audit_creation_method            fapswitch 2.2
_symmetry_space_group_name_H-M    P1
_symmetry_Int_Tables_number       1
_space_group_crystal_system       triclinic
_cell_length_a                    7.505853
_cell_length_b                    8.671781
_cell_length_c                    12.969837
_cell_angle_alpha                 87.990632
_cell_angle_beta                  78.991336
_cell_angle_gamma                 102.842264
_cell_volume                      805.278365255

loop_
_atom_site_label
_atom_site_type_symbol
_atom_type_description
_atom_site_fract_x
_atom_site_fract_y
_atom_site_fract_z
_atom_type_partial_charge
C1    C     C_R   0.452820 0.199857 0.503244 0.877869
C2    C     C_R   0.547166 0.800135 0.496792 0.895889
C3    C     C_R   0.467407 0.502054 0.700824 0.847781
C4    C     C_R   0.534943 0.513622 0.298230 0.837344
C5    C     C_R   0.556281 0.536736 0.183367 -0.174494
C6    C     C_R   0.451101 0.509767 0.813826 -0.120934
C7    C     C_R   0.262986 0.438339 0.989613 0.309400
C8    C     C_R   0.756809 0.598487 0.008679 0.270468
C9    C     C_R   0.283665 0.432385 0.881088 -0.298638
C10   C     C_R   0.732859 0.568025 0.117646 -0.236277
C11   C     C_R   0.602825 0.591105 0.854712 0.084438
C12   C     C_R   0.401453 0.531290 0.137979 0.138027
C13   C     C_R   0.595910 0.569092 0.963392 -0.025212
C14   C     C_R   0.418332 0.512527 0.030689 0.021411
C15   C     C_2   0.426470 0.031768 0.504849 -0.348970
C16   C     C_2   0.573462 0.968172 0.495383 -0.343570
Cu1   Cu    Cu3+1 0.686350 0.517570 0.488220 0.995094
Cu2   Cu    Cu3+1 0.313650 0.482430 0.511780 0.987069
H1    H     H_    0.852873 0.570902 0.151139 0.226229
H2    H     H_    0.167876 0.368069 0.849222 0.167268
H3    H     H_    0.935167 0.364889 0.575052 0.227970
H4    H     H_    0.063409 0.640849 0.430922 0.250467
H5    H     H_    0.284911 0.960042 0.513769 0.191378
H6    H     H_    0.715008 0.039872 0.486523 0.184671
N1    N     N_2   0.033570 0.455950 0.529530 -0.206548
N2    N     N_2   0.966430 0.544050 0.470470 -0.190303
O1    O     O_R   0.621060 0.286250 0.492350 -0.585560
O2    O     O_R   0.378940 0.713750 0.507650 -0.583506
O3    O     O_R   0.306310 0.256580 0.512240 -0.582523
O4    O     O_R   0.693690 0.743420 0.487760 -0.573604
O5    O     O_R   0.631800 0.512400 0.642670 -0.566857
O6    O     O_R   0.368200 0.487600 0.357330 -0.558747
O7    O     O_R   0.317060 0.482730 0.662570 -0.586134
O8    O     O_R   0.682940 0.517270 0.337430 -0.570535
I1    I     I_    0.193124 0.645400 0.208980 -0.421572
I2    I     I_    0.797581 0.788336 0.759396 -0.411638
N3    N     N_2   0.092043 0.356198 0.056755 -0.405170
H7    H     H_    0.977302 0.344940 0.022303 0.264691
C17   C     C_3   0.098497 0.206205 0.106752 -0.645592
H8    H     H_    0.961756 0.153416 0.159603 0.235071
H9    H     H_    0.207440 0.222859 0.155081 0.241897
H10   H     H_    0.127688 0.122616 0.046191 0.214502
N4    N     N_2   0.941625 0.628630 0.947275 -0.431821
H11   H     H_    0.957686 0.588540 0.873052 0.275511
C18   C     C_3   0.063317 0.780135 0.957126 -0.592237
H12   H     H_    0.208226 0.782149 0.916502 0.238912
H13   H     H_    0.063007 0.800639 0.040886 0.239089
H14   H     H_    0.017193 0.878684 0.921558 0.237993

loop_
_geom_bond_atom_site_label_1
_geom_bond_atom_site_label_2
_ccdc_geom_bond_type
N4    H11   S    
C8    C13   A    
C1    C15   S    
C2    C16   S    
C7    C14   A    
C11   C13   A    
C9    H2    S    
C8    N4    S    
C10   H1    S    
C2    O4    A    
C3    C6    S    
C6    C9    A    
C1    O3    A    
Cu1   Cu2   S    
C7    N3    S    
C5    C10   A    
N3    C17   S    
Cu2   O3    S    
C13   C14   A    
C12   I1    S    
C3    O5    A    
Cu1   O4    S    
N4    C18   S    
C4    O6    A    
Cu2   N1    S    
Cu1   N2    S    
C15   H5    S    
C11   I2    S    
N3    H7    S    
C12   C14   A    
C17   H10   S    
C18   H13   S    
Cu1   O5    S    
Cu2   O7    S    
C4    O8    A    
Cu2   O6    S    
Cu1   O8    S    
C3    O7    A    
C15   C16   D    
Cu1   O1    S    
C7    C9    A    
C6    C11   A    
Cu2   O2    S    
C17   H9    S    
C5    C12   A    
C16   H6    S    
H4    N2    S    
C18   H14   S    
C17   H8    S    
C1    O1    A    
H3    N1    S    
C2    O2    A    
N1    N2    D    
C18   H12   S    
C8    C10   A    
C4    C5    S    
