data_mof_unit_24478.cif
_audit_creation_date              2012-12-11T14:44:29-0500
_audit_creation_method            fapswitch 2.2
_symmetry_space_group_name_H-M    P1
_symmetry_Int_Tables_number       1
_space_group_crystal_system       triclinic
_cell_length_a                    19.968112
_cell_length_b                    7.226488
_cell_length_c                    19.587793
_cell_angle_alpha                 89.574953
_cell_angle_beta                  98.55729
_cell_angle_gamma                 89.072562
_cell_volume                      2794.53519163

loop_
_atom_site_label
_atom_site_type_symbol
_atom_type_description
_atom_site_fract_x
_atom_site_fract_y
_atom_site_fract_z
_atom_type_partial_charge
O1    O     O_R   0.673210 0.377390 0.686390 -0.530701
O2    O     O_R   0.326790 0.622610 0.313610 -0.530706
O3    O     O_R   0.826790 0.877390 0.813610 -0.537479
O4    O     O_R   0.173210 0.122610 0.186390 -0.537478
O5    O     O_R   0.810750 0.706450 0.681250 -0.544707
O6    O     O_R   0.189250 0.293550 0.318750 -0.544706
O7    O     O_R   0.689250 0.206450 0.818750 -0.540076
O8    O     O_R   0.310750 0.793550 0.181250 -0.540074
C1    C     C_R   0.831315 0.538040 0.665542 0.700603
C2    C     C_R   0.168685 0.461960 0.334458 0.700603
C3    C     C_R   0.668869 0.038905 0.834655 0.702567
C4    C     C_R   0.331128 0.961095 0.165342 0.702561
O9    O     O_R   0.672750 0.707060 0.678240 -0.540409
O10   O     O_R   0.327250 0.292940 0.321760 -0.540416
O11   O     O_R   0.827250 0.207060 0.821760 -0.534813
O12   O     O_R   0.172750 0.792940 0.178240 -0.534814
O13   O     O_R   0.687800 0.877990 0.810580 -0.539908
O14   O     O_R   0.312200 0.122010 0.189420 -0.539907
O15   O     O_R   0.812200 0.377990 0.689420 -0.537926
O16   O     O_R   0.187800 0.622010 0.310580 -0.537927
C5    C     C_R   0.647714 0.540621 0.662037 0.684150
C6    C     C_R   0.352287 0.459379 0.337963 0.684178
C7    C     C_R   0.852882 0.036591 0.836994 0.680699
C8    C     C_R   0.147118 0.963409 0.163005 0.680692
O17   O     O_3   0.755100 0.544060 0.793420 -0.373852
O18   O     O_3   0.244900 0.455940 0.206580 -0.373846
O19   O     O_3   0.744900 0.044060 0.706580 -0.374202
O20   O     O_3   0.255100 0.955940 0.293420 -0.374205
V1    V     V_3+5 0.749050 0.818670 0.741950 1.384176
V2    V     V_3+5 0.250950 0.181330 0.258050 1.384177
V3    V     V_3+5 0.750950 0.318670 0.758050 1.395086
V4    V     V_3+5 0.249050 0.681330 0.241950 1.395088
C9    C     C_R   0.083709 0.983288 0.112386 -0.081701
C10   C     C_R   0.916291 0.016714 0.887614 -0.081692
C11   C     C_R   0.415023 0.460896 0.389790 -0.077515
C12   C     C_R   0.584973 0.539106 0.610216 -0.077551
C13   C     C_R   0.024776 0.860577 0.928748 -0.189955
C14   C     C_R   0.975226 0.139438 0.071250 -0.189932
C15   C     C_R   0.469331 0.645196 0.566856 -0.189121
C16   C     C_R   0.530671 0.354855 0.433148 -0.189217
C17   C     C_R   0.971289 0.899968 0.874761 0.084814
C18   C     C_R   0.028713 0.100044 0.125238 0.084806
C19   C     C_R   0.525196 0.638678 0.620275 0.080645
C20   C     C_R   0.474805 0.361349 0.379732 0.080679
C21   C     C_R   0.919177 0.099127 0.952837 -0.250360
C22   C     C_R   0.080822 0.900875 0.047162 -0.250356
C23   C     C_R   0.585623 0.442395 0.548134 -0.249013
C24   C     C_R   0.414372 0.557617 0.451871 -0.249018
C25   C     C_R   0.973604 0.060744 0.005935 0.122524
C26   C     C_R   0.026397 0.939262 0.994064 0.122528
C27   C     C_R   0.529186 0.448455 0.495401 0.122448
C28   C     C_R   0.470811 0.551572 0.504605 0.122426
H1    H     H_    0.122469 0.812286 0.036907 0.121053
H2    H     H_    0.877530 0.187714 0.963093 0.121053
H3    H     H_    0.369061 0.634349 0.459719 0.118775
H4    H     H_    0.630933 0.365661 0.540285 0.118779
H5    H     H_    0.065483 0.767089 0.919715 0.115648
H6    H     H_    0.934522 0.232938 0.080281 0.115639
H7    H     H_    0.424209 0.723519 0.574149 0.115529
H8    H     H_    0.575800 0.276571 0.425847 0.115562
C29   C     C_R   0.575247 0.179323 0.891404 -0.223100
C30   C     C_R   0.424738 0.820669 0.108580 -0.223018
C31   C     C_R   0.921883 0.367052 0.614022 -0.217868
C32   C     C_R   0.078116 0.632945 0.385977 -0.217884
C33   C     C_R   0.619796 0.029657 0.884689 -0.076803
C34   C     C_R   0.380192 0.970338 0.115299 -0.076879
C35   C     C_R   0.880884 0.526934 0.616078 -0.077099
C36   C     C_R   0.119116 0.473065 0.383921 -0.077085
C37   C     C_R   0.616297 0.868789 0.925041 -0.233609
C38   C     C_R   0.383685 0.131201 0.074942 -0.233693
C39   C     C_R   0.887915 0.675807 0.571019 -0.240178
C40   C     C_R   0.112084 0.324191 0.428980 -0.240171
C41   C     C_R   0.569087 0.856472 0.971316 0.087549
C42   C     C_R   0.430892 0.143512 0.028663 0.087484
C43   C     C_R   0.935035 0.665779 0.524521 0.089341
C44   C     C_R   0.064964 0.334218 0.475478 0.089351
C45   C     C_R   0.524084 0.006129 0.977027 0.059368
C46   C     C_R   0.475894 0.993855 0.022951 0.059327
C47   C     C_R   0.976115 0.505398 0.523200 0.059469
C48   C     C_R   0.023884 0.494599 0.476799 0.059475
C49   C     C_R   0.527130 0.167941 0.936842 0.091664
C50   C     C_R   0.472849 0.832044 0.063136 0.091720
C51   C     C_R   0.969515 0.355752 0.568180 0.089056
C52   C     C_R   0.030484 0.644243 0.431818 0.089047
C53   C     C_R   0.565890 0.696725 0.011847 -0.195153
C54   C     C_R   0.434086 0.303254 0.988128 -0.195079
C55   C     C_R   0.941877 0.813391 0.479276 -0.186295
C56   C     C_R   0.058121 0.186604 0.520722 -0.186306
C57   C     C_R   0.518287 0.684790 0.057377 -0.191502
C58   C     C_R   0.481688 0.315188 0.942598 -0.191506
C59   C     C_R   0.989179 0.802620 0.433388 -0.198634
C60   C     C_R   0.010818 0.197374 0.566610 -0.198645
H9    H     H_    0.577098 0.303375 0.860294 0.126349
H10   H     H_    0.422889 0.696619 0.139691 0.126348
H11   H     H_    0.917408 0.251832 0.648741 0.127317
H12   H     H_    0.082590 0.748165 0.351257 0.127319
H13   H     H_    0.650500 0.752925 0.920588 0.133102
H14   H     H_    0.349483 0.247065 0.079397 0.133147
H15   H     H_    0.856570 0.799406 0.571892 0.132950
H16   H     H_    0.143430 0.200593 0.428108 0.132944
H17   H     H_    0.600039 0.580387 0.008114 0.133154
H18   H     H_    0.399936 0.419590 0.991860 0.133155
H19   H     H_    0.910787 0.937623 0.479510 0.134651
H20   H     H_    0.089211 0.062372 0.520488 0.134649
H21   H     H_    0.516790 0.559777 0.087868 0.138136
H22   H     H_    0.483182 0.440197 0.912104 0.138110
H23   H     H_    0.993680 0.918608 0.399287 0.136257
H24   H     H_    0.006316 0.081384 0.600710 0.136270
C61   C     C_3   0.024912 0.187336 0.195010 -0.357336
C62   C     C_3   0.964131 0.117683 0.226956 -0.334646
C63   C     C_3   0.958773 0.215816 0.294726 -0.764806
H25   H     H_    0.005773 0.192141 0.331850 0.232660
H26   H     H_    0.950701 0.367012 0.285671 0.234770
H27   H     H_    0.915382 0.160812 0.317570 0.218120
H28   H     H_    0.916133 0.142903 0.191293 0.200236
H29   H     H_    0.970164 0.966229 0.237028 0.194328
H30   H     H_    0.070635 0.157171 0.232967 0.184085
H31   H     H_    0.020967 0.340204 0.188039 0.174909
C64   C     C_3   0.975096 0.812694 0.804988 -0.357359
C65   C     C_3   0.035857 0.882457 0.773034 -0.334605
C66   C     C_3   0.041252 0.784271 0.705281 -0.764821
H32   H     H_    0.049386 0.633101 0.714365 0.234754
H33   H     H_    0.994242 0.807774 0.668154 0.232680
H34   H     H_    0.084620 0.839381 0.682425 0.218113
H35   H     H_    0.029775 0.033893 0.762935 0.194301
H36   H     H_    0.083862 0.857384 0.808704 0.200241
H37   H     H_    0.979074 0.659830 0.811959 0.174913
H38   H     H_    0.929364 0.842790 0.767036 0.184081
C67   C     C_3   0.482011 0.263971 0.312687 -0.365681
C68   C     C_3   0.533520 0.361014 0.274422 -0.326270
C69   C     C_3   0.537863 0.269843 0.205138 -0.763131
H39   H     H_    0.550959 0.120335 0.212500 0.235773
H40   H     H_    0.488731 0.285756 0.170632 0.232795
H41   H     H_    0.577610 0.337233 0.180099 0.215657
H42   H     H_    0.518234 0.508801 0.265098 0.194629
H43   H     H_    0.584531 0.355171 0.306099 0.198349
H44   H     H_    0.498605 0.118107 0.324499 0.173075
H45   H     H_    0.433464 0.259018 0.277249 0.187396
C70   C     C_3   0.518015 0.736102 0.687320 -0.365580
C71   C     C_3   0.466352 0.639489 0.725513 -0.326300
C72   C     C_3   0.462263 0.730213 0.794936 -0.762820
H46   H     H_    0.511382 0.713183 0.829408 0.232562
H47   H     H_    0.449534 0.880010 0.787790 0.235808
H48   H     H_    0.422356 0.663305 0.819891 0.215652
H49   H     H_    0.415324 0.646278 0.693880 0.198227
H50   H     H_    0.481347 0.491430 0.734636 0.194711
H51   H     H_    0.566542 0.740650 0.722807 0.187421
H52   H     H_    0.501583 0.882090 0.675519 0.172998

loop_
_geom_bond_atom_site_label_1
_geom_bond_atom_site_label_2
_ccdc_geom_bond_type
O17   V3    S    
C24   H3    S    
C39   C43   A    
O1    C5    A    
C16   H8    S    
C55   C59   A    
O19   V1    S    
O13   V1    S    
O3    C7    A    
C63   H25   S    
C48   C52   A    
C69   H41   S    
O15   V3    S    
C61   H30   S    
C5    C12   S    
C45   C46   A    
O7    C3    A    
C6    C11   S    
C70   H51   S    
C50   C57   A    
C9    C18   A    
C32   C36   A    
O9    V1    S    
C18   C61   S    
C14   C18   A    
C72   H47   S    
O16   V4    S    
O4    C8    A    
C29   H9    S    
C31   H11   S    
O1    V3    S    
C12   C23   A    
O2    V4    S    
O3    V1    S    
C62   C63   S    
C32   C52   A    
C66   H34   S    
C14   H6    S    
C72   H46   S    
C60   H24   S    
C67   H45   S    
C56   C60   A    
C2    O16   A    
C38   C42   A    
C37   C41   A    
O14   V2    S    
C52   C59   A    
C45   C49   A    
C63   H27   S    
C44   C56   A    
C16   C20   A    
C36   C40   A    
C64   H38   S    
O11   C7    A    
C15   C28   A    
C30   C50   A    
O12   C8    A    
C9    C22   A    
C10   C17   A    
C38   H14   S    
O10   V2    S    
C11   C24   A    
C56   H20   S    
C1    O15   A    
C61   H31   S    
O5    V1    S    
C31   C35   A    
C70   H52   S    
O7    V3    S    
C30   C34   A    
C27   C28   A    
O8    V4    S    
C59   H23   S    
C71   C72   S    
C58   H22   S    
C54   C58   A    
C72   H48   S    
C71   H50   S    
C14   C25   A    
C53   C57   A    
O18   V4    S    
C23   C27   A    
C20   C67   S    
C4    C34   S    
C42   C54   A    
C31   C51   A    
C1    C35   S    
O5    C1    A    
C51   C60   A    
C46   C50   A    
C21   C25   A    
O8    C4    A    
C7    C10   S    
C15   H7    S    
O9    C5    A    
C40   C44   A    
C63   H26   S    
C10   C21   A    
C17   C64   S    
C64   C65   S    
C19   C70   S    
C11   C20   A    
C41   C53   A    
C66   H32   S    
C65   H36   S    
C55   H19   S    
C49   C58   A    
C43   C55   A    
O6    V2    S    
C68   H42   S    
C21   H2    S    
C30   H10   S    
C57   H21   S    
C69   H39   S    
C54   H18   S    
C62   H29   S    
C53   H17   S    
C65   C66   S    
C67   C68   S    
C40   H16   S    
C3    O13   A    
C65   H35   S    
C68   H43   S    
C44   C48   A    
C69   H40   S    
C71   H49   S    
O6    C2    A    
C15   C19   A    
C70   C71   S    
O11   V3    S    
C2    C36   S    
O12   V4    S    
C16   C27   A    
C22   C26   A    
C8    C9    S    
O10   C6    A    
O20   V2    S    
C68   C69   S    
C29   C49   A    
O2    C6    A    
C47   C51   A    
C13   C26   A    
C34   C38   A    
C39   H15   S    
C33   C37   A    
C22   H1    S    
C32   H12   S    
C35   C39   A    
C13   C17   A    
O4    V2    S    
C66   H33   S    
C47   C48   A    
C29   C33   A    
C24   C28   A    
C67   H44   S    
C25   C26   A    
C42   C46   A    
C4    O14   A    
C41   C45   A    
C12   C19   A    
C61   C62   S    
C43   C47   A    
C62   H28   S    
C13   H5    S    
C3    C33   S    
C37   H13   S    
C23   H4    S    
C64   H37   S    
