data_mof_unit_23167.cif
_audit_creation_date              2013-03-05T16:12:26-0500
_audit_creation_method            fapswitch 2.2
_symmetry_space_group_name_H-M    P1
_symmetry_Int_Tables_number       1
_space_group_crystal_system       triclinic
_cell_length_a                    10.898436
_cell_length_b                    9.984622
_cell_length_c                    23.49796
_cell_angle_alpha                 90.524362
_cell_angle_beta                  91.502381
_cell_angle_gamma                 90.10101
_cell_volume                      2555.98079576

loop_
_atom_site_label
_atom_site_type_symbol
_atom_site_description
_atom_site_fract_x
_atom_site_fract_y
_atom_site_fract_z
_atom_type_partial_charge
O1    O     O_R   0.316770 0.614620 0.500000 -0.574106
O2    O     O_R   0.683230 0.385380 0.500000 -0.531941
O3    O     O_R   0.683230 0.614620 0.500000 -0.565046
O4    O     O_R   0.316770 0.385380 0.500000 -0.528020
C1    C     C_R   0.260320 0.500454 0.498894 0.982541
C2    C     C_R   0.740076 0.500350 0.501140 0.997782
O5    O     O_R   0.499970 0.614690 0.416160 -0.662307
O6    O     O_R   0.500030 0.385310 0.583840 -0.589917
O7    O     O_R   0.500030 0.614690 0.583840 -0.672792
O8    O     O_R   0.499970 0.385310 0.416160 -0.595930
C3    C     C_R   0.504585 0.499228 0.389902 0.925798
C4    C     C_R   0.493202 0.500093 0.610050 0.907009
Zn1   Zn    Zn3+2 0.500000 0.653120 0.500000 0.969348
Zn2   Zn    Zn3+2 0.500000 0.346880 0.500000 1.070379
C5    C     C_R   0.597319 0.464786 0.884907 0.617915
C6    C     C_R   0.365453 0.447808 0.116556 0.627081
N1    N     N_R   0.492310 0.476762 0.852326 -0.337823
N2    N     N_R   0.470827 0.471005 0.148179 -0.339555
C7    C     C_R   0.380329 0.487877 0.877651 0.572886
C8    C     C_R   0.579318 0.495439 0.121741 0.590737
C9    C     C_R   0.370948 0.473793 0.937185 -0.178412
C10   C     C_R   0.587987 0.476766 0.062770 -0.166334
C11   C     C_R   0.480515 0.472591 0.970345 -0.110807
C12   C     C_R   0.477627 0.470871 0.030118 -0.114889
C13   C     C_R   0.593704 0.480315 0.943811 -0.209535
C14   C     C_R   0.364708 0.464768 0.057277 -0.197979
C15   C     C_R   0.257137 0.472272 0.964911 0.228581
C16   C     C_R   0.701773 0.477490 0.034975 0.213262
C17   C     C_R   0.254867 0.476755 0.024724 0.429582
C18   C     C_R   0.701063 0.505369 0.976675 0.482027
O9    O     O_2   0.704395 0.432426 0.860984 -0.505443
O10   O     O_2   0.263350 0.404317 0.141759 -0.492964
O11   O     O_2   0.279578 0.516656 0.845541 -0.507933
O12   O     O_2   0.676495 0.544743 0.152027 -0.520317
C19   C     C_R   0.565239 0.399500 0.238745 -0.247583
C20   C     C_R   0.416206 0.397495 0.758702 -0.246633
H1    H     H_    0.627503 0.337703 0.214789 0.230790
H2    H     H_    0.356679 0.328598 0.780266 0.225534
C21   C     C_R   0.584177 0.413584 0.297512 0.293733
C22   C     C_R   0.406422 0.407954 0.699508 0.283140
C23   C     C_R   0.503964 0.496059 0.327980 -0.180465
C24   C     C_R   0.484218 0.498356 0.671893 -0.188341
C25   C     C_R   0.408735 0.562184 0.299641 -0.449712
C26   C     C_R   0.566572 0.576960 0.703676 -0.432513
H3    H     H_    0.347464 0.621975 0.323933 0.136798
H4    H     H_    0.624939 0.644941 0.682185 0.147048
C27   C     C_R   0.386596 0.545754 0.241032 0.565072
C28   C     C_R   0.579694 0.564237 0.762680 0.554817
C29   C     C_R   0.471170 0.469635 0.209612 0.124301
C30   C     C_R   0.498077 0.478518 0.791007 0.122335
C31   C     C_R   0.061751 0.384717 0.488257 0.368020
C32   C     C_R   0.937844 0.624630 0.501740 0.315621
C33   C     C_R   0.938982 0.380884 0.502057 0.357002
C34   C     C_R   0.064625 0.623315 0.509289 0.291192
C35   C     C_R   0.873316 0.501888 0.502281 -0.389775
C36   C     C_R   0.127816 0.502955 0.498635 -0.411396
C37   C     C_R   0.575153 0.072647 0.536691 0.360532
C38   C     C_R   0.413347 0.928346 0.469259 0.307984
C39   C     C_R   0.425732 0.070158 0.463190 0.381994
C40   C     C_R   0.585657 0.930033 0.531515 0.293504
N3    N     N_R   0.500000 0.857200 0.500000 -0.226956
N4    N     N_R   0.500000 0.142800 0.500000 -0.201638
N5    N     N_R   0.143226 0.463725 0.933269 0.288731
O13   O     O_R   0.116095 0.355954 0.904013 -0.312089
O14   O     O_R   0.064086 0.560587 0.935669 -0.343367
N6    N     N_R   0.813925 0.430279 0.062105 0.227109
O15   O     O_R   0.809861 0.359793 0.108334 -0.343193
O16   O     O_R   0.912121 0.419822 0.032139 -0.258295
O17   O     O_3   0.146059 0.507813 0.050649 -0.499980
C41   C     C_3   0.145920 0.647257 0.062828 0.131786
H5    H     H_    0.189004 0.707823 0.028884 0.120512
H6    H     H_    0.196273 0.667636 0.103697 0.179346
C42   C     C_3   0.014699 0.696238 0.067450 -0.702803
H7    H     H_    0.965401 0.642126 0.100775 0.273120
H8    H     H_    0.013849 0.805222 0.077245 0.192945
H9    H     H_    0.965535 0.677242 0.026607 0.316134
O18   O     O_3   0.795308 0.583056 0.955621 -0.534776
C43   C     C_3   0.747862 0.712849 0.943077 0.071192
H10   H     H_    0.679244 0.747476 0.974504 0.123551
H11   H     H_    0.702302 0.711446 0.900291 0.206303
C44   C     C_3   0.849463 0.818093 0.942827 -0.780112
H12   H     H_    0.934193 0.777436 0.924260 0.295806
H13   H     H_    0.818484 0.905276 0.917225 0.228608
H14   H     H_    0.869950 0.855116 0.986686 0.241464
N7    N     N_R   0.686827 0.347809 0.324959 0.199664
O19   O     O_R   0.731293 0.238384 0.303234 -0.427422
O20   O     O_R   0.745289 0.404899 0.367669 -0.449718
N8    N     N_R   0.314566 0.330404 0.668741 0.202426
O21   O     O_R   0.277683 0.216358 0.688648 -0.422588
O22   O     O_R   0.255986 0.380894 0.625044 -0.450196
O23   O     O_3   0.285995 0.606382 0.214088 -0.602721
C45   C     C_3   0.177841 0.585158 0.245474 0.092355
H15   H     H_    0.171822 0.660121 0.280360 0.131530
H16   H     H_    0.173906 0.482151 0.263477 0.148711
C46   C     C_3   0.064507 0.603303 0.207725 -0.707767
H17   H     H_    0.062440 0.525941 0.173566 0.314706
H18   H     H_    0.980919 0.591648 0.233287 0.224844
H19   H     H_    0.064588 0.705287 0.189329 0.236913
O24   O     O_3   0.668472 0.638448 0.792747 -0.614857
C47   C     C_3   0.786065 0.614361 0.769790 0.098067
H20   H     H_    0.797020 0.668347 0.729322 0.120270
H21   H     H_    0.802187 0.505423 0.762135 0.179861
C48   C     C_3   0.886495 0.665780 0.810315 -0.675232
H22   H     H_    0.887758 0.606705 0.849975 0.331523
H23   H     H_    0.977169 0.654840 0.790294 0.222136
H24   H     H_    0.871169 0.773319 0.820122 0.234701
O25   O     O_3   0.115412 0.272726 0.464692 -0.553460
C49   C     C_3   0.087199 0.270215 0.405370 0.128041
H25   H     H_    0.169660 0.236974 0.383244 0.203254
H26   H     H_    0.063418 0.369868 0.386758 0.099590
C50   C     C_3   0.985041 0.170068 0.391253 -0.732401
H27   H     H_    0.895490 0.208573 0.405375 0.313235
H28   H     H_    0.978821 0.152441 0.344543 0.232271
H29   H     H_    0.004597 0.073884 0.412628 0.242384
O26   O     O_3   0.877757 0.745377 0.494625 -0.526246
C51   C     C_3   0.896899 0.791338 0.438727 0.168604
H30   H     H_    0.902855 0.708202 0.406717 0.119034
H31   H     H_    0.983130 0.850337 0.438645 0.173289
C52   C     C_3   0.790946 0.880882 0.419527 -0.785017
H32   H     H_    0.784616 0.970178 0.447688 0.266291
H33   H     H_    0.805868 0.915366 0.375447 0.212313
H34   H     H_    0.703200 0.824305 0.420079 0.270566
O27   O     O_3   0.883669 0.258966 0.512371 -0.559939
C53   C     C_3   0.937190 0.202000 0.562318 0.147226
H35   H     H_    0.868145 0.202029 0.595898 0.186520
H36   H     H_    0.018539 0.256450 0.581076 0.153682
C54   C     C_3   0.975587 0.058781 0.550224 -0.693645
H37   H     H_    0.048936 0.056008 0.518415 0.287077
H38   H     H_    0.010488 0.012982 0.590251 0.200479
H39   H     H_    0.895928 0.000266 0.533853 0.310151
O28   O     O_3   0.125418 0.741650 0.522736 -0.531430
C55   C     C_3   0.145296 0.747953 0.582438 0.174138
H40   H     H_    0.177542 0.650819 0.600555 0.146571
H41   H     H_    0.058890 0.776658 0.603148 0.126076
C56   C     C_3   0.243156 0.852676 0.597149 -0.748828
H42   H     H_    0.222083 0.948785 0.575740 0.264819
H43   H     H_    0.247972 0.869870 0.643905 0.210553
H44   H     H_    0.333996 0.817102 0.583341 0.258803
O29   O     O_3   0.648383 0.141666 0.575788 -0.562288
C57   C     C_3   0.592560 0.137613 0.629605 0.134941
H45   H     H_    0.586565 0.035178 0.646271 0.125667
H46   H     H_    0.496801 0.174922 0.627479 0.190217
C58   C     C_3   0.667685 0.220635 0.672803 -0.829317
H47   H     H_    0.686378 0.321772 0.655892 0.247877
H48   H     H_    0.617102 0.230338 0.712996 0.228855
H49   H     H_    0.756682 0.171405 0.682724 0.237466
O30   O     O_3   0.301528 0.869905 0.454711 -0.528500
C59   C     C_3   0.301597 0.812566 0.399716 0.258862
H50   H     H_    0.274760 0.706066 0.403498 0.150199
H51   H     H_    0.392196 0.814490 0.379068 0.106935
C60   C     C_3   0.204951 0.879055 0.361422 -0.935770
H52   H     H_    0.190926 0.984438 0.374496 0.307441
H53   H     H_    0.234400 0.876518 0.316561 0.229147
H54   H     H_    0.116111 0.825352 0.363728 0.215859
O31   O     O_3   0.364423 0.134218 0.419200 -0.568392
C61   C     C_3   0.434934 0.119070 0.369553 0.126534
H55   H     H_    0.452882 0.012931 0.358945 0.113498
H56   H     H_    0.526259 0.167550 0.375134 0.193930
C62   C     C_3   0.367744 0.179879 0.318354 -0.830388
H57   H     H_    0.343271 0.285446 0.327288 0.239830
H58   H     H_    0.427214 0.175576 0.280775 0.237310
H59   H     H_    0.282494 0.123425 0.307728 0.242916
O32   O     O_3   0.694699 0.870930 0.548968 -0.536087
C63   C     C_3   0.686852 0.814677 0.603473 0.259274
H60   H     H_    0.707348 0.706451 0.599558 0.166787
H61   H     H_    0.594897 0.824830 0.622718 0.095273
C64   C     C_3   0.785477 0.873977 0.643535 -0.943928
H62   H     H_    0.806707 0.978252 0.632014 0.294956
H63   H     H_    0.753489 0.873915 0.687972 0.227989
H64   H     H_    0.870895 0.814397 0.641424 0.232430

loop_
_geom_bond_atom_site_label_1
_geom_bond_atom_site_label_2
_geom_bond_distance
_ccdc_geom_bond_type
C56   H44   1.107947 S    
N6    O16   1.300217 A    
N5    O14   1.298818 A    
C15   C17   1.406661 A    
O27   C53   1.420805 S    
C42   H7    1.105681 S    
C1    C36   1.444203 S    
C16   N6    1.445417 S    
O30   C59   1.408640 S    
C61   C62   1.523487 S    
C57   C58   1.525266 S    
C2    C35   1.451707 S    
O3    C2    1.299409 A    
C44   H12   1.107721 S    
C46   H19   1.109861 S    
C56   H42   1.109159 S    
C64   H63   1.109485 S    
O18   C43   1.426558 S    
C49   H25   1.100237 S    
O5    C3    1.304255 A    
C34   O28   1.383564 S    
O1    C1    1.294096 A    
C63   H60   1.107317 S    
C19   H1    1.083155 S    
C59   H51   1.111727 S    
C62   H57   1.107290 S    
C43   H11   1.109545 S    
C58   H47   1.109051 S    
C32   O26   1.382389 S    
O26   C51   1.415793 S    
Zn2   N4    2.037662 S    
C40   O32   1.382043 S    
C51   H30   1.118165 S    
C37   O29   1.379819 S    
C58   H48   1.109544 S    
C31   C36   1.397904 A    
C60   H54   1.108758 S    
O7    Zn1   2.010524 S    
C45   H15   1.108278 S    
C4    C24   1.459286 S    
C18   O18   1.390060 S    
C61   H56   1.110151 S    
C46   H17   1.108638 S    
C26   H4    1.068643 S    
C55   H40   1.116366 S    
C19   C29   1.408746 A    
C60   H52   1.105440 S    
C59   C60   1.524324 S    
C41   H5    1.117945 S    
C50   H29   1.106315 S    
O3    Zn1   2.034248 S    
C32   C35   1.412227 A    
C45   C46   1.513791 S    
C8    O12   1.350063 S    
C38   N3    1.376320 A    
C28   C30   1.416184 A    
N6    O15   1.301436 A    
C9    C15   1.416217 A    
C10   C16   1.416666 A    
C23   C25   1.389486 A    
O2    C2    1.303206 A    
C24   C26   1.389590 A    
C45   H16   1.116843 S    
C44   H13   1.110687 S    
C32   C34   1.388530 A    
C64   H64   1.107610 S    
C17   O17   1.381743 S    
C52   H33   1.110409 S    
C6    C14   1.404533 A    
C34   C36   1.409828 A    
N7    O20   1.301080 A    
C20   C22   1.397104 A    
C59   H50   1.107325 S    
C48   H23   1.110677 S    
C7    O11   1.348778 S    
C58   H49   1.108444 S    
C64   H62   1.103801 S    
C39   O31   1.378919 S    
C43   H10   1.117726 S    
C37   C40   1.433056 A    
C37   N4    1.371436 A    
C38   C39   1.430893 A    
N7    O19   1.301453 A    
C47   C48   1.517494 S    
C40   N3    1.378479 A    
C31   C33   1.385512 A    
C19   C21   1.396654 A    
C54   H38   1.108222 S    
O24   C47   1.423459 S    
O6    C4    1.299269 A    
C41   C42   1.518491 S    
C47   H21   1.115834 S    
C62   H59   1.107561 S    
C50   H28   1.110294 S    
C49   C50   1.523193 S    
C57   H45   1.100968 S    
C52   H32   1.108787 S    
C5    O9    1.347068 S    
C25   H3    1.069258 S    
C15   N5    1.432254 S    
C53   C54   1.517116 S    
C6    N2    1.369615 A    
N8    O22   1.300866 A    
C9    C11   1.408764 A    
C33   O27   1.383634 S    
C42   H9    1.101589 S    
C10   C12   1.410417 A    
O1    Zn1   2.032918 S    
C42   H8    1.110277 S    
O25   C49   1.419545 S    
O28   C55   1.414688 S    
C48   H22   1.107258 S    
C44   H14   1.108745 S    
C20   C30   1.406243 A    
C53   H36   1.117708 S    
C52   H34   1.110243 S    
C13   C18   1.405698 A    
C56   H43   1.110302 S    
C28   O24   1.391527 S    
C61   H55   1.105406 S    
C39   N4    1.370798 A    
O6    Zn2   2.003630 S    
C50   H27   1.107433 S    
C7    C9    1.413593 A    
C38   O30   1.383637 S    
C33   C35   1.405353 A    
C27   O23   1.393688 S    
C63   C64   1.525315 S    
C12   C14   1.402537 A    
C8    C10   1.402171 A    
O4    C1    1.304416 A    
N1    C30   1.444138 S    
O29   C57   1.418508 S    
C46   H18   1.110783 S    
C5    N1    1.366161 A    
C57   H46   1.108776 S    
C6    O10   1.347252 S    
C51   C52   1.523151 S    
C22   N8    1.439955 S    
C63   H61   1.114638 S    
C62   H58   1.109539 S    
C54   H39   1.104369 S    
C16   C18   1.400262 A    
C27   C29   1.414284 A    
C20   H2    1.083000 S    
C43   C44   1.525353 S    
C49   H26   1.118656 S    
C55   C56   1.523290 S    
C55   H41   1.108238 S    
C22   C24   1.411221 A    
C47   H20   1.106418 S    
N1    C7    1.375948 A    
C51   H31   1.108326 S    
C3    C23   1.454940 S    
C48   H24   1.109972 S    
N2    C8    1.372488 A    
C60   H53   1.110007 S    
O4    Zn2   2.034249 S    
O17   C41   1.418850 S    
O2    Zn2   2.032917 S    
O7    C4    1.307312 A    
O32   C63   1.407784 S    
C5    C13   1.392951 A    
O8    C3    1.300482 A    
C11   C12   1.405992 A    
N5    O13   1.301004 A    
C26   C28   1.397053 A    
O5    Zn1   2.003633 S    
C11   C13   1.399025 A    
Zn1   N3    2.037662 S    
N8    O21   1.301939 A    
C21   C23   1.406934 A    
C14   C17   1.409481 A    
C31   O25   1.380915 S    
O31   C61   1.420765 S    
C21   N7    1.439203 S    
C41   H6    1.110501 S    
C25   C27   1.400017 A    
O23   C45   1.423292 S    
C54   H37   1.108825 S    
N2    C29   1.443647 S    
O8    Zn2   2.010526 S    
C53   H35   1.104532 S    
