data_mof_unit_61431.cif
_audit_creation_date              2012-12-10T18:11:28-0500
_audit_creation_method            fapswitch 2.2
_symmetry_space_group_name_H-M    P1
_symmetry_Int_Tables_number       1
_space_group_crystal_system       triclinic
_cell_length_a                    18.351696
_cell_length_b                    18.351692
_cell_length_c                    34.443336
_cell_angle_alpha                 89.999949
_cell_angle_beta                  89.999949
_cell_angle_gamma                 90.000075
_cell_volume                      11599.9876404

loop_
_atom_site_label
_atom_site_type_symbol
_atom_type_description
_atom_site_fract_x
_atom_site_fract_y
_atom_site_fract_z
_atom_type_partial_charge
C1    C     C_R   0.446866 0.960095 0.041756 0.028533
C2    C     C_R   0.053159 0.460132 0.458245 0.028530
C3    C     C_R   0.696274 0.803699 0.750012 0.039726
C4    C     C_R   0.803699 0.303726 0.249988 0.039731
C5    C     C_R   0.196274 0.696301 0.749988 0.039731
C6    C     C_R   0.696301 0.803726 0.250013 0.039722
C7    C     C_R   0.303726 0.196301 0.750012 0.039725
C8    C     C_R   0.196301 0.303726 0.750013 0.039724
C9    C     C_R   0.803726 0.696301 0.250013 0.039723
C10   C     C_R   0.303699 0.803726 0.749988 0.039732
C11   C     C_R   0.696274 0.196301 0.249987 0.039731
C12   C     C_R   0.803699 0.696274 0.750013 0.039725
C13   C     C_R   0.460127 0.946845 0.541755 0.028529
C14   C     C_R   0.196274 0.303699 0.250013 0.039725
C15   C     C_R   0.696301 0.196274 0.749988 0.039732
C16   C     C_R   0.303726 0.803699 0.249988 0.039731
C17   C     C_R   0.500000 1.000000 0.102472 0.006961
C18   C     C_R   0.500000 1.000000 0.897527 0.006985
C19   C     C_R   1.000000 0.500000 0.102472 0.006958
C20   C     C_R   1.000000 0.500000 0.897527 0.006986
C21   C     C_R   1.000000 0.500000 0.602474 0.007002
C22   C     C_R   1.000000 0.500000 0.397529 0.006947
C23   C     C_R   0.500000 1.000000 0.602471 0.006943
C24   C     C_R   0.459983 0.053050 0.458241 0.028543
C25   C     C_R   0.500000 1.000000 0.397526 0.007007
C26   C     C_R   0.053049 0.540018 0.541759 0.028543
C27   C     C_R   0.946841 0.539868 0.458245 0.028530
C28   C     C_R   0.539873 0.053155 0.541755 0.028529
C29   C     C_R   0.540017 0.946950 0.458241 0.028543
C30   C     C_R   0.446468 0.961255 0.082188 -0.119048
C31   C     C_R   0.553485 0.961195 0.917811 -0.119041
C32   C     C_R   0.961261 0.446465 0.082188 -0.119049
C33   C     C_R   0.553086 0.960035 0.958242 0.028539
C34   C     C_R   0.961191 0.553482 0.917810 -0.119040
C35   C     C_R   0.553532 0.038745 0.082188 -0.119048
C36   C     C_R   0.446514 0.038805 0.917811 -0.119041
C37   C     C_R   0.038739 0.553535 0.082188 -0.119049
C38   C     C_R   0.038809 0.446517 0.917810 -0.119040
C39   C     C_R   0.946551 0.461141 0.582190 -0.119038
C40   C     C_R   0.053555 0.461292 0.417813 -0.119050
C41   C     C_R   0.461288 0.946449 0.582187 -0.119053
C42   C     C_R   0.461142 0.053449 0.417810 -0.119034
C43   C     C_R   0.053449 0.538859 0.582190 -0.119038
C44   C     C_R   0.960100 0.446862 0.041756 0.028532
C45   C     C_R   0.946445 0.538708 0.417813 -0.119050
C46   C     C_R   0.538712 0.053551 0.582187 -0.119053
C47   C     C_R   0.538858 0.946551 0.417810 -0.119035
C48   C     C_R   0.500000 0.000000 0.021305 0.038821
C49   C     C_R   0.500000 1.000000 0.978693 0.038821
C50   C     C_R   0.000000 0.500000 0.021305 0.038822
C51   C     C_R   0.000000 0.500000 0.978693 0.038821
C52   C     C_R   0.000000 0.500000 0.521308 0.038818
C53   C     C_R   0.000000 0.500000 0.478696 0.038826
C54   C     C_R   0.500000 1.000000 0.521304 0.038825
C55   C     C_R   0.960031 0.553083 0.958242 0.028540
C56   C     C_R   0.500000 1.000000 0.478692 0.038820
C57   C     C_R   0.500000 1.000000 0.355181 0.505153
C58   C     C_R   0.500000 0.000000 0.644818 0.505174
C59   C     C_R   1.000000 0.500000 0.355181 0.505176
C60   C     C_R   0.000000 0.500000 0.644819 0.505152
C61   C     C_R   1.000000 0.500000 0.855181 0.505161
C62   C     C_R   0.000000 0.500000 0.144819 0.505171
C63   C     C_R   0.500000 1.000000 0.855181 0.505161
C64   C     C_R   0.500000 1.000000 0.144819 0.505171
C65   C     C_R   0.359829 0.140163 0.250003 0.507487
C66   C     C_R   0.553134 0.039905 0.041756 0.028533
C67   C     C_R   0.640163 0.859829 0.750003 0.507488
C68   C     C_R   0.859829 0.359837 0.249997 0.507495
C69   C     C_R   0.140163 0.640171 0.749997 0.507490
C70   C     C_R   0.640171 0.859836 0.250003 0.507487
C71   C     C_R   0.359837 0.140171 0.750003 0.507489
C72   C     C_R   0.140171 0.640163 0.249997 0.507495
C73   C     C_R   0.859837 0.359829 0.749997 0.507490
C74   C     C_R   0.359829 0.859836 0.749997 0.507494
C75   C     C_R   0.640163 0.140171 0.249997 0.507493
C76   C     C_R   0.859829 0.640163 0.750003 0.507486
C77   C     C_R   0.446914 0.039965 0.958242 0.028539
C78   C     C_R   0.140163 0.359829 0.250003 0.507490
C79   C     C_R   0.640171 0.140163 0.749997 0.507494
C80   C     C_R   0.359837 0.859829 0.249997 0.507493
C81   C     C_R   0.140171 0.359837 0.750003 0.507486
C82   C     C_R   0.859837 0.640171 0.250003 0.507490
C83   C     C_R   0.243496 0.809934 0.225173 -0.133816
C84   C     C_R   0.756543 0.190027 0.774792 -0.132484
C85   C     C_R   0.190101 0.243530 0.225154 -0.132493
C86   C     C_R   0.809865 0.756434 0.774879 -0.133823
C87   C     C_R   0.756504 0.190065 0.225173 -0.133816
C88   C     C_R   0.039900 0.553137 0.041756 0.028532
C89   C     C_R   0.243456 0.809973 0.774792 -0.132483
C90   C     C_R   0.809897 0.756468 0.225153 -0.132493
C91   C     C_R   0.190136 0.243566 0.774879 -0.133824
C92   C     C_R   0.243566 0.190136 0.774879 -0.133824
C93   C     C_R   0.756468 0.809897 0.225153 -0.132493
C94   C     C_R   0.190027 0.756543 0.774792 -0.132484
C95   C     C_R   0.809935 0.243495 0.225173 -0.133816
C96   C     C_R   0.756434 0.809865 0.774879 -0.133823
C97   C     C_R   0.243530 0.190101 0.225154 -0.132493
C98   C     C_R   0.809972 0.243457 0.774792 -0.132484
C99   C     C_R   0.039969 0.446916 0.958242 0.028540
C100  C     C_R   0.190066 0.756504 0.225173 -0.133816
C101  C     C_R   0.743494 0.309936 0.725175 -0.133817
C102  C     C_R   0.256541 0.690030 0.274794 -0.132484
C103  C     C_R   0.690099 0.743528 0.725155 -0.132492
C104  C     C_R   0.309862 0.256432 0.274879 -0.133824
C105  C     C_R   0.256507 0.690063 0.725175 -0.133817
C106  C     C_R   0.743459 0.309971 0.274793 -0.132484
C107  C     C_R   0.309900 0.256470 0.725154 -0.132492
C108  C     C_R   0.690139 0.743569 0.274880 -0.133825
C109  C     C_R   0.743570 0.690139 0.274880 -0.133824
C110  C     C_R   0.946951 0.459982 0.541759 0.028543
C111  C     C_R   0.256470 0.309900 0.725154 -0.132492
C112  C     C_R   0.690029 0.256541 0.274793 -0.132483
C113  C     C_R   0.309937 0.743493 0.725175 -0.133816
C114  C     C_R   0.256432 0.309862 0.274879 -0.133823
C115  C     C_R   0.743528 0.690099 0.725155 -0.132491
C116  C     C_R   0.309970 0.743459 0.274794 -0.132484
C117  C     C_R   0.690064 0.256506 0.725175 -0.133816
C118  C     C_R   0.196301 0.696274 0.249988 0.039731
C119  C     C_R   0.803726 0.303699 0.749988 0.039731
C120  C     C_R   0.303699 0.196274 0.250013 0.039723
Cl1   Cl    Cl    0.380932 0.907023 0.017600 -0.075465
Cl2   Cl    Cl    0.119126 0.407104 0.482402 -0.075474
Cl3   Cl    Cl    0.407093 0.880882 0.517598 -0.075465
Cl4   Cl    Cl    0.406776 0.118873 0.482398 -0.075472
Cl5   Cl    Cl    0.118871 0.593227 0.517602 -0.075463
Cl6   Cl    Cl    0.880873 0.592896 0.482402 -0.075474
Cl7   Cl    Cl    0.592907 0.119118 0.517598 -0.075465
Cl8   Cl    Cl    0.593224 0.881127 0.482398 -0.075472
Cl9   Cl    Cl    0.618957 0.906887 0.982398 -0.075472
Cl10  Cl    Cl    0.907034 0.380924 0.017600 -0.075465
Cl11  Cl    Cl    0.906879 0.618950 0.982398 -0.075472
Cl12  Cl    Cl    0.619068 0.092976 0.017600 -0.075465
Cl13  Cl    Cl    0.381043 0.093113 0.982398 -0.075472
Cl14  Cl    Cl    0.092966 0.619076 0.017600 -0.075465
Cl15  Cl    Cl    0.093121 0.381050 0.982398 -0.075472
Cl16  Cl    Cl    0.881129 0.406773 0.517602 -0.075463
H1    H     H_    0.237574 0.856010 0.205773 0.140415
H2    H     H_    0.762332 0.855915 0.205711 0.141751
H3    H     H_    0.143947 0.762471 0.794189 0.141743
H4    H     H_    0.856011 0.237573 0.205774 0.140414
H5    H     H_    0.762299 0.855883 0.794321 0.140416
H6    H     H_    0.237664 0.144082 0.205713 0.141750
H7    H     H_    0.856052 0.237530 0.794190 0.141744
H8    H     H_    0.143990 0.762426 0.205773 0.140414
H9    H     H_    0.737570 0.356014 0.705776 0.140418
H10   H     H_    0.262465 0.643952 0.294192 0.141742
H11   H     H_    0.644078 0.737661 0.705714 0.141747
H12   H     H_    0.762470 0.143948 0.794189 0.141743
H13   H     H_    0.355880 0.262295 0.294322 0.140419
H14   H     H_    0.262431 0.643985 0.705777 0.140417
H15   H     H_    0.737533 0.356049 0.294191 0.141742
H16   H     H_    0.355920 0.262337 0.705713 0.141748
H17   H     H_    0.644124 0.737708 0.294324 0.140420
H18   H     H_    0.737708 0.644124 0.294324 0.140416
H19   H     H_    0.262337 0.355920 0.705713 0.141751
H20   H     H_    0.643951 0.262467 0.294191 0.141745
H21   H     H_    0.356015 0.737569 0.705777 0.140414
H22   H     H_    0.262295 0.355880 0.294322 0.140415
H23   H     H_    0.144082 0.237664 0.205713 0.141749
H24   H     H_    0.737661 0.644078 0.705714 0.141750
H25   H     H_    0.356048 0.737534 0.294192 0.141745
H26   H     H_    0.643986 0.262430 0.705776 0.140414
H27   H     H_    0.405357 0.930610 0.097795 0.136121
H28   H     H_    0.594559 0.930504 0.902203 0.136082
H29   H     H_    0.930620 0.405350 0.097794 0.136124
H30   H     H_    0.930497 0.594554 0.902203 0.136080
H31   H     H_    0.594643 0.069390 0.097794 0.136121
H32   H     H_    0.405440 0.069496 0.902203 0.136082
H33   H     H_    0.069380 0.594650 0.097794 0.136124
H34   H     H_    0.855883 0.762299 0.794321 0.140416
H35   H     H_    0.069503 0.405446 0.902203 0.136079
H36   H     H_    0.905507 0.430408 0.597798 0.136060
H37   H     H_    0.094684 0.430675 0.402207 0.136133
H38   H     H_    0.430666 0.905323 0.597793 0.136140
H39   H     H_    0.430409 0.094494 0.402202 0.136052
H40   H     H_    0.094493 0.569592 0.597798 0.136060
H41   H     H_    0.905316 0.569325 0.402207 0.136133
H42   H     H_    0.569334 0.094677 0.597793 0.136139
H43   H     H_    0.569591 0.905506 0.402202 0.136051
H44   H     H_    0.762427 0.143989 0.205774 0.140415
H45   H     H_    0.237529 0.856053 0.794189 0.141743
H46   H     H_    0.855915 0.762332 0.205711 0.141750
H47   H     H_    0.144118 0.237703 0.794322 0.140417
H48   H     H_    0.237703 0.144118 0.794322 0.140417
O1    O     O_3   0.500000 1.000000 0.250000 -0.438158
O2    O     O_R   0.500000 0.939280 0.663170 -0.541493
O3    O     O_R   0.939280 0.500000 0.336830 -0.541494
O4    O     O_R   0.060720 0.500000 0.663170 -0.541468
O5    O     O_R   1.000000 0.439280 0.836830 -0.541476
O6    O     O_R   0.000000 0.560720 0.163170 -0.541491
O7    O     O_R   0.560720 1.000000 0.836830 -0.541477
O8    O     O_R   0.439280 1.000000 0.163170 -0.541489
O9    O     O_R   1.000000 0.560720 0.836830 -0.541476
O10   O     O_R   1.000000 0.439280 0.163170 -0.541490
O11   O     O_R   0.439280 1.000000 0.836830 -0.541478
O12   O     O_3   0.500000 1.000000 0.750000 -0.438155
O13   O     O_R   0.560720 1.000000 0.163170 -0.541489
O14   O     O_R   0.414510 0.146140 0.272820 -0.549237
O15   O     O_R   0.585490 0.853860 0.727180 -0.546760
O16   O     O_R   0.853860 0.414510 0.272820 -0.546752
O17   O     O_R   0.146140 0.585490 0.727180 -0.549233
O18   O     O_R   0.585490 0.853860 0.272820 -0.549237
O19   O     O_R   0.414510 0.146140 0.727180 -0.546760
O20   O     O_R   0.146140 0.585490 0.272820 -0.546752
O21   O     O_R   0.853860 0.414510 0.727180 -0.549233
O22   O     O_R   0.414510 0.853860 0.727180 -0.549234
O23   O     O_3   0.000000 0.500000 0.250000 -0.438151
O24   O     O_R   0.585490 0.146140 0.272820 -0.546750
O25   O     O_R   0.853860 0.585490 0.727180 -0.546758
O26   O     O_R   0.146140 0.414510 0.272820 -0.549238
O27   O     O_R   0.585490 0.146140 0.727180 -0.549234
O28   O     O_R   0.414510 0.853860 0.272820 -0.546750
O29   O     O_R   0.146140 0.414510 0.727180 -0.546758
O30   O     O_R   0.853860 0.585490 0.272820 -0.549238
O31   O     O_R   0.914510 0.646140 0.772820 -0.549238
O32   O     O_R   0.085490 0.353860 0.227180 -0.546760
O33   O     O_R   0.353860 0.914510 0.772820 -0.546751
O34   O     O_3   0.000000 0.500000 0.750000 -0.438161
O35   O     O_R   0.646140 0.085490 0.227180 -0.549234
O36   O     O_R   0.085490 0.353860 0.772820 -0.549238
O37   O     O_R   0.914510 0.646140 0.227180 -0.546759
O38   O     O_R   0.646140 0.085490 0.772820 -0.546751
O39   O     O_R   0.353860 0.914510 0.227180 -0.549234
O40   O     O_R   0.914510 0.353860 0.227180 -0.549233
O41   O     O_R   0.085490 0.646140 0.772820 -0.546751
O42   O     O_R   0.353860 0.085490 0.227180 -0.546760
O43   O     O_R   0.646140 0.914510 0.772820 -0.549237
O44   O     O_R   0.085490 0.646140 0.227180 -0.549233
O45   O     O_R   0.500000 0.939280 0.336830 -0.541468
O46   O     O_R   0.914510 0.353860 0.772820 -0.546751
O47   O     O_R   0.646140 0.914510 0.227180 -0.546760
O48   O     O_R   0.353860 0.085490 0.772820 -0.549237
O49   O     O_R   0.500000 0.060720 0.663170 -0.541493
O50   O     O_R   0.060720 0.500000 0.336830 -0.541494
O51   O     O_R   0.939280 0.500000 0.663170 -0.541468
O52   O     O_R   0.500000 0.060720 0.336830 -0.541468
Zn1   Zn    Zn3+2 0.413200 1.000000 0.217600 0.938332
Zn2   Zn    Zn3+2 0.086800 0.500000 0.282400 0.938337
Zn3   Zn    Zn3+2 0.500000 0.913200 0.717600 0.938333
Zn4   Zn    Zn3+2 0.500000 0.086800 0.282400 0.938342
Zn5   Zn    Zn3+2 0.086800 0.500000 0.717600 0.938338
Zn6   Zn    Zn3+2 0.913200 0.500000 0.282400 0.938337
Zn7   Zn    Zn3+2 0.500000 0.086800 0.717600 0.938333
Zn8   Zn    Zn3+2 0.500000 0.913200 0.282400 0.938342
Zn9   Zn    Zn3+2 0.586800 1.000000 0.782400 0.938340
Zn10  Zn    Zn3+2 1.000000 0.413200 0.217600 0.938336
Zn11  Zn    Zn3+2 0.000000 0.586800 0.782400 0.938336
Zn12  Zn    Zn3+2 0.586800 1.000000 0.217600 0.938332
Zn13  Zn    Zn3+2 0.413200 1.000000 0.782400 0.938340
Zn14  Zn    Zn3+2 0.000000 0.586800 0.217600 0.938336
Zn15  Zn    Zn3+2 0.000000 0.413200 0.782400 0.938337
Zn16  Zn    Zn3+2 0.913200 0.500000 0.717600 0.938337

loop_
_geom_bond_atom_site_label_1
_geom_bond_atom_site_label_2
_ccdc_geom_bond_type
C76   O25   A    
O41   Zn11  S    
C23   C58   S    
C11   C112  A    
C41   H38   S    
C69   O17   A    
C73   C119  S    
O16   Zn6   S    
C98   H7    S    
C58   O2    A    
C24   C42   A    
O34   Zn15  S    
C46   H42   S    
C37   C88   A    
C110  Cl16  S    
O47   Zn12  S    
C36   H32   S    
C58   O49   A    
O24   Zn4   S    
C13   C41   A    
C5    C94   A    
C103  H11   S    
C98   C119  A    
C62   O6    A    
C82   O37   A    
C106  C112  A    
C71   O19   A    
C105  H14   S    
C28   C46   A    
C95   H4    S    
O33   Zn13  S    
C29   C47   A    
O26   Zn2   S    
C105  C113  A    
C75   O35   A    
C67   O15   A    
C36   C77   A    
C17   C64   S    
C37   H33   S    
C40   H37   S    
O12   Zn9   S    
O38   Zn9   S    
C63   O7    A    
C18   C63   S    
C79   O38   A    
O1    Zn4   S    
O19   Zn7   S    
C33   C49   A    
C19   C62   S    
C44   Cl10  S    
O6    Zn14  S    
O17   Zn5   S    
C108  C109  A    
C83   H1    S    
C51   C55   A    
O50   Zn2   S    
O34   Zn5   S    
C89   C94   A    
C48   C66   A    
C70   O47   A    
C114  H22   S    
C47   H43   S    
C93   H2    S    
C19   C37   A    
O23   Zn2   S    
C87   H44   S    
C82   O30   A    
C94   H3    S    
O49   Zn7   S    
C39   C110  A    
O1    Zn1   S    
C108  H17   S    
C90   H46   S    
C10   C89   A    
C11   C87   A    
C65   O14   A    
C87   C95   A    
O12   Zn13  S    
C35   H31   S    
C71   O48   A    
C31   C33   A    
C2    C40   A    
C59   O3    A    
O22   Zn3   S    
C52   C110  A    
C5    C69   S    
C78   O26   A    
C66   Cl12  S    
C68   O16   A    
C102  C118  A    
C28   Cl7   S    
C50   C88   A    
C9    C82   S    
C72   O20   A    
C12   C115  A    
C20   C34   A    
C27   C45   A    
C2    Cl2   S    
C96   H5    S    
C111  H19   S    
C22   C40   A    
C34   C55   A    
C12   C86   A    
C23   C46   A    
C21   C43   A    
C64   O13   A    
C61   O5    A    
C17   C30   A    
O4    Zn5   S    
C68   O40   A    
C60   O51   A    
C25   C57   S    
O51   Zn16  S    
O3    Zn6   S    
C19   C32   A    
C16   C116  A    
C80   O28   A    
C73   O46   A    
C64   O8    A    
C26   C43   A    
O1    Zn8   S    
O44   Zn14  S    
C84   H12   S    
C51   C99   A    
C81   O29   A    
C101  H9    S    
C31   H28   S    
O12   Zn7   S    
C8    C81   S    
C101  C119  A    
O27   Zn7   S    
C116  H25   S    
C38   H35   S    
C102  C116  A    
C100  H8    S    
C21   C60   S    
O20   Zn2   S    
C92   H48   S    
O23   Zn6   S    
C78   O32   A    
C22   C59   S    
C33   Cl9   S    
O45   Zn8   S    
C28   C54   A    
C5    C105  A    
C35   C66   A    
C14   C114  A    
C81   O36   A    
C4    C106  A    
C70   O18   A    
C16   C83   A    
C15   C117  A    
O15   Zn3   S    
C16   C80   S    
C9    C109  A    
C89   H45   S    
C104  H13   S    
C9    C90   A    
C103  C115  A    
C39   H36   S    
C26   C52   A    
C79   O27   A    
O43   Zn9   S    
C4    C95   A    
C20   C38   A    
C43   H40   S    
C21   C39   A    
C67   O43   A    
C77   Cl13  S    
C6    C93   A    
O18   Zn8   S    
C50   C51   S    
O9    Zn11  S    
C99   Cl15  S    
C1    C48   A    
C8    C91   A    
C109  H18   S    
C30   H27   S    
C57   O45   A    
C3    C96   A    
C10   C113  A    
C86   C96   A    
O1    Zn12  S    
C104  C114  A    
C107  H16   S    
O40   Zn10  S    
C48   C49   S    
C29   Cl8   S    
O14   Zn4   S    
C55   Cl11  S    
C83   C100  A    
C12   C76   S    
O39   Zn1   S    
O7    Zn9   S    
C63   O11   A    
O34   Zn16  S    
C75   O24   A    
C100  C118  A    
C62   O10   A    
O46   Zn15  S    
O23   Zn10  S    
C61   O9    A    
C91   C92   A    
C57   O52   A    
C32   H29   S    
C52   C53   S    
C90   C93   A    
C4    C68   S    
C13   C54   A    
C74   O22   A    
C3    C103  A    
C6    C70   S    
C73   O21   A    
C25   C47   A    
C106  H15   S    
C91   H47   S    
C86   H34   S    
C107  C111  A    
C3    C67   S    
C14   C85   A    
C38   C99   A    
C2    C53   A    
C69   O41   A    
C25   C42   A    
C27   C53   A    
C54   C56   S    
C15   C84   A    
O48   Zn13  S    
C29   C56   A    
C15   C79   S    
C117  H26   S    
C24   C56   A    
C17   C35   A    
C20   C61   S    
O13   Zn12  S    
C8    C111  A    
C23   C41   A    
O5    Zn15  S    
C115  H24   S    
O30   Zn6   S    
C101  C117  A    
O34   Zn11  S    
C97   C120  A    
O29   Zn5   S    
C84   C98   A    
O28   Zn8   S    
O21   Zn16  S    
C11   C75   S    
C102  H10   S    
C80   O39   A    
C7    C71   S    
C45   H41   S    
C10   C74   S    
C76   O31   A    
C18   C36   A    
O8    Zn1   S    
C42   H39   S    
O10   Zn10  S    
C13   Cl3   S    
C7    C92   A    
O11   Zn13  S    
C74   O33   A    
C1    C30   A    
C27   Cl6   S    
C65   C120  S    
C49   C77   A    
C65   O42   A    
O12   Zn3   S    
C7    C107  A    
C14   C78   S    
C24   Cl4   S    
O23   Zn14  S    
C1    Cl1   S    
C97   H6    S    
C85   C97   A    
O25   Zn16  S    
C88   Cl14  S    
O2    Zn3   S    
C59   O50   A    
O52   Zn4   S    
C22   C45   A    
O37   Zn14  S    
C32   C44   A    
C44   C50   A    
C60   O4    A    
C112  H20   S    
O36   Zn15  S    
C72   C118  S    
O42   Zn1   S    
C6    C108  A    
O35   Zn12  S    
C18   C31   A    
C85   H23   S    
C113  H21   S    
C34   H30   S    
O32   Zn10  S    
C26   Cl5   S    
O31   Zn11  S    
C104  C120  A    
C72   O44   A    
