data_mof_unit_11250.cif
_audit_creation_date              2012-12-10T19:44:28-0500
_audit_creation_method            fapswitch 2.2
_symmetry_space_group_name_H-M    P1
_symmetry_Int_Tables_number       1
_space_group_crystal_system       triclinic
_cell_length_a                    10.80751
_cell_length_b                    12.316307
_cell_length_c                    13.181548
_cell_angle_alpha                 116.617455
_cell_angle_beta                  77.282435
_cell_angle_gamma                 101.46524
_cell_volume                      1520.01903525

loop_
_atom_site_label
_atom_site_type_symbol
_atom_type_description
_atom_site_fract_x
_atom_site_fract_y
_atom_site_fract_z
_atom_type_partial_charge
C1    C     C_R   0.512476 0.854998 0.286537 0.840185
C2    C     C_R   0.628125 0.817689 0.783535 -0.123792
C3    C     C_R   0.038420 0.950306 0.563091 -0.209773
C4    C     C_R   0.129215 0.998456 0.495648 -0.040985
C5    C     C_R   0.090772 0.049009 0.431588 0.005197
C6    C     C_R   0.961453 0.050939 0.437827 -0.239282
C7    C     C_R   0.870754 0.002730 0.505186 -0.073930
C8    C     C_R   0.909176 0.953464 0.570161 -0.002703
C9    C     C_R   0.193147 0.224015 0.382591 -0.161443
C10   C     C_R   0.284579 0.272839 0.316270 -0.143268
C11   C     C_R   0.365703 0.197430 0.223949 -0.115825
C12   C     C_R   0.737113 0.001290 0.502412 0.781399
C13   C     C_R   0.353442 0.072506 0.195913 -0.126255
C14   C     C_R   0.261475 0.023129 0.261417 -0.091039
C15   C     C_R   0.182158 0.098991 0.356599 0.116503
C16   C     C_R   0.320994 0.279083 0.017040 -0.187436
C17   C     C_R   0.458103 0.226953 0.834872 -0.049060
C18   C     C_R   0.623654 0.811495 0.092080 -0.212737
C19   C     C_R   0.668651 0.728374 0.983530 -0.162454
C20   C     C_R   0.620162 0.605900 0.945181 -0.162084
C21   C     C_R   0.519509 0.564183 0.013327 0.038557
C22   C     C_R   0.465844 0.651637 0.121038 -0.003720
C23   C     C_R   0.482466 0.144892 0.713425 0.777301
C24   C     C_R   0.470127 0.438643 0.977762 0.074197
C25   C     C_R   0.369507 0.402584 0.049873 0.089724
C26   C     C_R   0.311364 0.490483 0.149712 -0.270361
C27   C     C_R   0.352995 0.613794 0.181666 0.354971
C28   C     C_R   0.514193 0.347810 0.870752 -0.234515
C29   C     C_R   0.365478 0.191361 0.909979 -0.208079
C30   C     C_R   0.527259 0.773486 0.163655 -0.083531
C31   C     C_R   0.702599 0.346298 0.327010 -0.307131
C32   C     C_R   0.327788 0.759767 0.646360 0.099769
C33   C     C_R   0.290560 0.663286 0.678429 -0.266350
C34   C     C_R   0.262806 0.999257 0.498176 0.835875
C35   C     C_R   0.355108 0.559667 0.623103 -0.200605
C36   C     C_R   0.458659 0.551372 0.534609 -0.018937
C37   C     C_R   0.493412 0.652830 0.504739 0.310904
C38   C     C_R   0.529307 0.447066 0.475141 -0.048658
C39   C     C_R   0.632150 0.446555 0.387189 0.165743
C40   C     C_R   0.664623 0.546160 0.359771 -0.291627
C41   C     C_R   0.597321 0.646973 0.417457 -0.173758
C42   C     C_R   0.502864 0.342267 0.498411 0.045891
C43   C     C_R   0.671669 0.246475 0.354007 0.070026
C44   C     C_R   0.643421 0.941816 0.807745 -0.114447
C45   C     C_R   0.738061 0.987239 0.740809 -0.102256
C46   C     C_R   0.817320 0.908136 0.648258 0.114435
C47   C     C_R   0.803774 0.784150 0.626567 -0.136958
C48   C     C_R   0.709279 0.739234 0.694050 -0.150405
Cu1   Cu    Cu3+1 0.529370 0.098270 0.475420 0.937511
Cu2   Cu    Cu3+1 0.470630 0.901730 0.524580 0.963051
H1    H     H_    0.553344 0.782296 0.834130 0.145029
H2    H     H_    0.438030 0.235809 0.174116 0.141888
H3    H     H_    0.415859 0.014066 0.123977 0.125525
H4    H     H_    0.253679 0.926489 0.239367 0.159567
H5    H     H_    0.321301 0.097689 0.883046 0.142129
H6    H     H_    0.227368 0.463565 0.199447 0.174131
H7    H     H_    0.244123 0.251237 0.071876 0.142500
H8    H     H_    0.587509 0.368619 0.810137 0.139007
H9    H     H_    0.670457 0.904415 0.122746 0.146427
H10   H     H_    0.664608 0.547056 0.861802 0.120833
H11   H     H_    0.746011 0.758124 0.930505 0.148575
H12   H     H_    0.580871 0.002551 0.877419 0.122613
H13   H     H_    0.725498 0.168669 0.307734 0.115464
H14   H     H_    0.743736 0.546614 0.293037 0.164147
H15   H     H_    0.781196 0.345211 0.259493 0.140198
H16   H     H_    0.426182 0.334510 0.563408 0.123158
H17   H     H_    0.277248 0.839868 0.689921 0.111323
H18   H     H_    0.322138 0.487784 0.651395 0.138718
H19   H     H_    0.211374 0.668856 0.746475 0.144257
H20   H     H_    0.631259 0.718814 0.390904 0.202611
H21   H     H_    0.747364 0.083169 0.758944 0.098271
H22   H     H_    0.863672 0.721790 0.555429 0.145765
H23   H     H_    0.697498 0.643181 0.675748 0.135552
H24   H     H_    0.068338 0.913879 0.613918 0.145700
H25   H     H_    0.931460 0.087498 0.387137 0.152019
H26   H     H_    0.132900 0.283950 0.455562 0.129367
H27   H     H_    0.293884 0.369493 0.337493 0.146335
N1    N     N_R   0.573890 0.246290 0.438210 -0.175901
N2    N     N_R   0.426890 0.754320 0.561170 -0.192621
O1    O     O_R   0.536940 0.972510 0.318130 -0.591932
O2    O     O_R   0.487330 0.806530 0.359650 -0.565278
O3    O     O_R   0.705160 0.082990 0.479250 -0.591616
O4    O     O_R   0.655550 0.917010 0.520760 -0.590618
O5    O     O_R   0.512670 0.193470 0.640350 -0.588965
O6    O     O_R   0.463060 0.027490 0.681870 -0.593333
O7    O     O_R   0.344450 0.082990 0.479240 -0.585038
O8    O     O_R   0.294840 0.917010 0.520750 -0.552269
Cl1   Cl    Cl    0.244072 0.714197 0.282836 -0.681369

loop_
_geom_bond_atom_site_label_1
_geom_bond_atom_site_label_2
_ccdc_geom_bond_type
C45   H21   S    
C17   C29   A    
C35   C36   A    
Cu2   N2    S    
C43   H13   S    
C7    C8    A    
C45   C46   A    
C43   N1    A    
C37   N2    A    
C26   C27   A    
C17   C23   S    
C31   C43   A    
Cu1   O5    S    
C36   C37   A    
C38   C42   A    
C5    C6    A    
C1    O2    A    
Cu1   N1    S    
C18   C19   A    
C34   O7    A    
C3    H24   S    
C11   H2    S    
Cu2   O6    S    
C19   C20   A    
C2    C44   A    
C18   C30   A    
C9    H26   S    
C20   H10   S    
C9    C10   A    
C33   H19   S    
C16   H7    S    
C21   C22   A    
C48   H23   S    
C25   C26   A    
C10   H27   S    
Cu2   O4    S    
C13   H3    S    
C7    C12   S    
C4    C34   S    
C23   O5    A    
C6    H25   S    
C24   C25   A    
C3    C8    A    
C2    H1    S    
C39   C40   A    
C29   H5    S    
C2    C48   A    
C16   C29   A    
C12   O4    A    
Cu1   O3    S    
C47   C48   A    
C12   O3    A    
Cu2   O8    S    
C32   H17   S    
C40   C41   A    
C14   H4    S    
C42   N1    A    
C22   C27   A    
C3    C4    A    
C44   C45   A    
C16   C25   A    
C31   H15   S    
C46   C47   A    
C22   C30   A    
C17   C28   A    
Cu1   O7    S    
C24   C28   A    
C4    C5    A    
C26   H6    S    
C6    C7    A    
C28   H8    S    
C40   H14   S    
Cu1   O1    S    
C44   H12   S    
C32   C33   A    
C36   C38   A    
C9    C15   A    
C32   N2    A    
C11   C13   A    
C38   C39   A    
C35   H18   S    
C19   H11   S    
C1    C30   S    
C33   C35   A    
C31   C39   A    
C34   O8    A    
C37   C41   A    
C27   Cl1   S    
C8    C46   S    
C47   H22   S    
C5    C15   S    
C10   C11   A    
C18   H9    S    
C20   C21   A    
Cu1   Cu2   S    
C23   O6    A    
C21   C24   A    
C42   H16   S    
C1    O1    A    
C14   C15   A    
C13   C14   A    
Cu2   O2    S    
C41   H20   S    
