data_mof_unit_45651.cif
_audit_creation_date              2012-12-11T15:41:30-0500
_audit_creation_method            fapswitch 2.2
_symmetry_space_group_name_H-M    P1
_symmetry_Int_Tables_number       1
_space_group_crystal_system       triclinic
_cell_length_a                    15.034065
_cell_length_b                    14.923906
_cell_length_c                    14.860245
_cell_angle_alpha                 108.818309
_cell_angle_beta                  109.966018
_cell_angle_gamma                 109.822617
_cell_volume                      2560.25988984

loop_
_atom_site_label
_atom_site_type_symbol
_atom_type_description
_atom_site_fract_x
_atom_site_fract_y
_atom_site_fract_z
_atom_type_partial_charge
C1    C     C_R   0.242889 0.058013 0.963975 -0.156737
C2    C     C_R   0.803927 0.005725 0.097808 -0.186419
C3    C     C_R   0.773961 0.325387 0.325557 0.036518
C4    C     C_R   0.132493 0.697279 0.697215 0.047330
C5    C     C_R   0.501451 0.930214 0.300940 0.035338
C6    C     C_R   0.498468 0.948132 0.673632 0.034016
C7    C     C_R   0.499527 0.295021 0.921763 0.063272
C8    C     C_R   0.504476 0.675230 0.959765 0.052716
C9    C     C_R   0.212056 0.086716 0.574732 -0.121143
C10   C     C_R   0.842796 0.796177 0.254571 -0.133349
C11   C     C_R   0.308521 0.185765 0.657316 -0.142026
C12   C     C_R   0.739494 0.708006 0.168177 -0.146712
C13   C     C_R   0.304937 0.270369 0.730588 0.111001
C14   C     C_R   0.717167 0.667556 0.058829 0.103632
C15   C     C_R   0.202865 0.254409 0.718492 -0.171503
C16   C     C_R   0.800275 0.713861 0.037293 -0.183508
C17   C     C_R   0.106626 0.155263 0.635584 -0.103678
C18   C     C_R   0.903477 0.801950 0.124071 -0.107277
C19   C     C_R   0.111259 0.071457 0.564015 -0.101307
C20   C     C_R   0.924673 0.843310 0.232515 -0.103723
C21   C     C_R   0.413058 0.474691 0.838428 -0.235267
C22   C     C_R   0.603986 0.472597 0.942199 -0.226683
C23   C     C_R   0.748373 0.222369 0.314847 -0.121829
C24   C     C_R   0.195983 0.790899 0.699241 -0.138696
C25   C     C_R   0.510390 0.574267 0.920794 0.065602
C26   C     C_R   0.503062 0.376528 0.885442 0.046300
C27   C     C_R   0.609123 0.572273 0.968087 0.024954
C28   C     C_R   0.407932 0.374393 0.819676 0.032458
C29   C     C_R   0.871673 0.528271 0.428445 -0.168362
C30   C     C_R   0.964881 0.522631 0.622641 -0.173249
C31   C     C_R   0.963986 0.621583 0.521603 -0.172723
C32   C     C_R   0.872690 0.429332 0.529389 -0.167054
C33   C     C_R   0.017317 0.615667 0.615636 0.140220
C34   C     C_R   0.833696 0.428758 0.428920 0.142671
C35   C     C_R   0.597939 0.938962 0.570698 -0.168493
C36   C     C_R   0.400426 0.838859 0.375955 -0.169266
C37   C     C_R   0.598921 0.935807 0.476849 -0.171442
C38   C     C_R   0.399547 0.842468 0.469832 -0.169553
C39   C     C_R   0.500362 0.895672 0.382329 0.139446
C40   C     C_R   0.498483 0.903365 0.570348 0.143083
C41   C     C_R   0.020422 0.955060 0.983858 -0.186508
C42   C     C_R   0.060357 0.160065 0.124464 -0.170450
C43   C     C_R   0.937318 0.963400 0.996512 -0.195330
C44   C     C_R   0.144836 0.151416 0.112477 -0.178945
C45   C     C_R   0.410635 0.900047 0.206947 -0.115742
C46   C     C_R   0.590616 0.025088 0.776848 -0.130279
C47   C     C_R   0.958072 0.065281 0.067433 0.160621
C48   C     C_R   0.123814 0.048463 0.043332 0.163175
C49   C     C_R   0.590373 0.294881 0.988132 -0.135761
C50   C     C_R   0.410358 0.684217 0.941020 -0.125245
C51   C     C_R   0.591911 0.995141 0.300397 -0.136190
C52   C     C_R   0.407228 0.933911 0.684879 -0.124956
C53   C     C_R   0.408798 0.206762 0.900660 -0.138384
C54   C     C_R   0.593354 0.780253 0.028602 -0.135109
C55   C     C_R   0.747951 0.314303 0.221987 -0.123241
C56   C     C_R   0.196778 0.699194 0.790868 -0.140078
C57   C     C_R   0.238671 0.962772 0.053686 0.084479
C58   C     C_R   0.804922 0.098257 0.007715 0.066428
C59   C     C_R   0.208889 0.034953 0.032657 -0.028394
C60   C     C_R   0.867211 0.069941 0.071192 -0.012370
H1    H     H_    0.225340 0.104519 0.924891 0.116789
H2    H     H_    0.831260 0.976930 0.154087 0.128864
H3    H     H_    0.215488 0.021696 0.519184 0.109348
H4    H     H_    0.859335 0.827680 0.338552 0.104569
H5    H     H_    0.386051 0.196261 0.664661 0.118341
H6    H     H_    0.676708 0.671652 0.186073 0.117616
H7    H     H_    0.197837 0.317721 0.774337 0.109019
H8    H     H_    0.784800 0.682299 0.953598 0.119584
H9    H     H_    0.028433 0.143168 0.627203 0.104319
H10   H     H_    0.967040 0.838206 0.107299 0.137627
H11   H     H_    0.339844 0.474773 0.791919 0.125112
H12   H     H_    0.679725 0.474168 0.983071 0.127836
H13   H     H_    0.838471 0.532531 0.353963 0.111478
H14   H     H_    0.999883 0.517182 0.696021 0.108169
H15   H     H_    0.998374 0.694127 0.515280 0.107726
H16   H     H_    0.840345 0.355599 0.534419 0.108811
H17   H     H_    0.675898 0.979529 0.645262 0.110760
H18   H     H_    0.322322 0.801566 0.302698 0.116220
H19   H     H_    0.677366 0.974595 0.482668 0.105588
H20   H     H_    0.321114 0.807592 0.464981 0.109915
H21   H     H_    0.004757 0.875964 0.928705 0.125829
H22   H     H_    0.074054 0.238972 0.177252 0.125884
H23   H     H_    0.758567 0.200127 0.378352 0.093180
H24   H     H_    0.168248 0.823939 0.647783 0.087501
H25   H     H_    0.856506 0.890957 0.950226 0.130120
H26   H     H_    0.225674 0.223283 0.157086 0.125694
H27   H     H_    0.330072 0.831561 0.169839 0.104050
H28   H     H_    0.674857 0.055766 0.798125 0.106609
H29   H     H_    0.673995 0.341552 0.008807 0.094186
H30   H     H_    0.325852 0.618704 0.890462 0.093982
H31   H     H_    0.676115 0.019921 0.352467 0.085992
H32   H     H_    0.321968 0.880993 0.621573 0.093448
H33   H     H_    0.323845 0.175059 0.844468 0.115915
H34   H     H_    0.677579 0.808433 0.053813 0.129779
H35   H     H_    0.757177 0.376909 0.198787 0.097011
H36   H     H_    0.170282 0.647628 0.824092 0.086930
H37   H     H_    0.036745 0.994646 0.500414 0.093060
H38   H     H_    0.004645 0.911587 0.299384 0.109649
N1    N     N_R   0.293810 0.002730 0.945950 -0.047893
N2    N     N_R   0.706190 0.997270 0.054050 -0.047619
N3    N     N_R   0.706160 0.152130 0.208910 -0.039679
N4    N     N_R   0.293840 0.847870 0.791090 -0.037486
N5    N     N_R   0.443140 0.945920 0.152090 -0.043526
N6    N     N_R   0.556860 0.054080 0.847910 -0.040631
N7    N     N_R   0.556830 0.208940 0.002760 -0.040905
N8    N     N_R   0.443170 0.791060 0.997240 -0.041666
N9    N     N_R   0.556790 0.002750 0.208910 -0.039285
N10   N     N_R   0.443210 0.997250 0.791090 -0.039432
N11   N     N_R   0.443180 0.152110 0.945950 -0.040194
N12   N     N_R   0.556820 0.847890 0.054050 -0.041461
N13   N     N_R   0.706170 0.208950 0.152090 -0.041389
N14   N     N_R   0.293830 0.791050 0.847910 -0.038617
N15   N     N_R   0.293800 0.945910 0.002760 -0.062203
N16   N     N_R   0.706200 0.054090 0.997240 -0.059321
Ni1   Ni    Ni4+2 0.369690 0.999990 0.869700 0.211319
Ni2   Ni    Ni4+2 0.630310 0.000010 0.130300 0.210028
Ni3   Ni    Ni4+2 0.369670 0.869670 0.000000 0.211651
Ni4   Ni    Ni4+2 0.630330 0.130330 0.000000 0.221795
C61   C     C_1   0.195516 0.898118 0.098328 -0.010306
N17   N     N_1   0.159270 0.846439 0.133682 -0.110634
C62   C     C_1   0.848200 0.189057 0.990159 -0.008454
N18   N     N_1   0.883000 0.262101 0.976168 -0.096881

loop_
_geom_bond_atom_site_label_1
_geom_bond_atom_site_label_2
_ccdc_geom_bond_type
C18   H10   S    
C38   C40   A    
C17   H9    S    
C8    C50   A    
N4    N14   A    
N2    Ni2   S    
C1    N1    A    
C19   H37   S    
C37   H19   S    
C7    C26   S    
C23   H23   S    
C21   H11   S    
N13   Ni4   S    
N10   Ni1   S    
C45   H27   S    
C1    C59   A    
N1    Ni1   S    
N14   Ni3   S    
C4    C24   A    
C2    C60   A    
C57   C59   A    
C29   H13   S    
C58   C60   A    
C54   N12   A    
C18   C20   A    
C56   H36   S    
C21   C25   A    
N4    Ni1   S    
C45   N5    A    
C51   H31   S    
C47   C60   S    
C3    C23   A    
C50   H30   S    
C10   C20   A    
C38   H20   S    
C42   H22   S    
C31   C33   A    
C13   C28   S    
C16   H8    S    
C14   C27   S    
C46   H28   S    
C57   C61   S    
C41   H21   S    
C4    C56   A    
C8    C25   S    
C41   C43   A    
N5    Ni3   S    
C42   C44   A    
C44   H26   S    
C22   H12   S    
C9    C19   A    
N6    Ni4   S    
C53   H33   S    
C43   H25   S    
N2    N16   A    
C7    C49   A    
C55   H35   S    
C8    C54   A    
C46   N6    A    
C57   N15   A    
C3    C34   S    
C5    C45   A    
C29   C34   A    
C35   H17   S    
C32   C34   A    
C32   H16   S    
C24   N4    A    
C31   H15   S    
C29   C31   A    
C15   H7    S    
C9    C11   A    
C62   N18   T    
N16   Ni4   S    
C10   C12   A    
N15   Ni3   S    
C51   N9    A    
C21   C28   A    
C12   C14   A    
C22   C27   A    
C13   C15   A    
N8    Ni3   S    
C14   C16   A    
N7    Ni4   S    
C52   H32   S    
N3    N13   A    
C7    C53   A    
N12   Ni2   S    
N6    N10   A    
C35   C37   A    
C48   C59   S    
C58   N16   A    
N8    N12   A    
C53   N11   A    
C15   C17   A    
N7    N11   A    
C4    C33   S    
C58   C62   S    
C6    C46   A    
C30   C33   A    
C55   N13   A    
C9    H3    S    
C26   C28   A    
C36   C39   A    
C10   H4    S    
C49   H29   S    
C1    H1    S    
N1    N15   A    
C49   N7    A    
C61   N17   T    
C25   C27   A    
C3    C55   A    
C5    C39   S    
C35   C40   A    
C24   H24   S    
C37   C39   A    
C44   C48   A    
C36   H18   S    
C30   C32   A    
C11   C13   A    
C23   N3    A    
C12   H6    S    
C30   H14   S    
C36   C38   A    
C17   C19   A    
C41   C48   A    
C6    C40   S    
C42   C47   A    
N9    Ni2   S    
C54   H34   S    
N11   Ni1   S    
C2    N2    A    
C2    H2    S    
C20   H38   S    
C52   N10   A    
C16   C18   A    
C22   C26   A    
C50   N8    A    
N3    Ni2   S    
C5    C51   A    
N5    N9    A    
C6    C52   A    
C43   C47   A    
C56   N14   A    
C11   H5    S    
