data_mof_unit_12736.cif
_audit_creation_date              2012-12-11T14:13:08-0500
_audit_creation_method            fapswitch 2.2
_symmetry_space_group_name_H-M    P1
_symmetry_Int_Tables_number       1
_space_group_crystal_system       triclinic
_cell_length_a                    11.759247
_cell_length_b                    18.277555
_cell_length_c                    9.968967
_cell_angle_alpha                 90.043678
_cell_angle_beta                  110.738816
_cell_angle_gamma                 89.812235
_cell_volume                      2003.78867024

loop_
_atom_site_label
_atom_site_type_symbol
_atom_type_description
_atom_site_fract_x
_atom_site_fract_y
_atom_site_fract_z
_atom_type_partial_charge
C1    C     C_R   0.071887 0.646600 0.139451 0.617695
C2    C     C_R   0.863181 0.360839 0.839747 0.566459
C3    C     C_R   0.928140 0.146486 0.860499 0.613239
C4    C     C_R   0.136836 0.860726 0.160346 0.567609
C5    C     C_R   0.391904 0.458657 0.485417 -0.012963
C6    C     C_R   0.601718 0.537538 0.502063 -0.077264
C7    C     C_R   0.608517 0.957310 0.520888 -0.015076
C8    C     C_R   0.397881 0.038186 0.496201 -0.078601
C9    C     C_2   0.360122 0.942326 0.009022 0.214947
C10   C     C_2   0.600164 0.068176 0.063719 0.257626
C11   C     C_2   0.639330 0.442317 0.986969 0.211865
C12   C     C_2   0.402251 0.567704 0.941773 0.272467
C13   C     C_2   0.460734 0.975904 0.097842 -0.179682
C14   C     C_2   0.492277 0.051541 0.075047 -0.149210
C15   C     C_2   0.537563 0.475325 0.898521 -0.181942
C16   C     C_2   0.505815 0.551313 0.918903 -0.151323
C17   C     C_2   0.121190 0.939212 0.148957 0.013111
C18   C     C_2   0.986134 0.075339 0.888143 -0.004126
C19   C     C_2   0.878704 0.439308 0.851311 0.016917
C20   C     C_2   0.013739 0.575709 0.111873 -0.000065
C21   C     C_2   0.029193 0.969527 0.043067 0.282470
C22   C     C_2   0.029085 0.049133 0.021971 0.193467
C23   C     C_2   0.969773 0.469429 0.958314 0.292769
C24   C     C_2   0.970577 0.549214 0.978264 0.208420
C25   C     C_R   0.469268 0.646266 0.442074 0.542396
C26   C     C_R   0.529126 0.352617 0.555507 0.545944
C27   C     C_R   0.531170 0.146065 0.558212 0.541838
C28   C     C_R   0.470400 0.852651 0.444446 0.542462
C29   C     C_R   0.375634 0.643474 0.966300 0.622560
C30   C     C_R   0.648780 0.361800 0.986381 0.578595
C31   C     C_R   0.625087 0.143405 0.033960 0.618009
C32   C     C_R   0.351081 0.861969 0.012882 0.573155
C33   C     C_R   0.495104 0.422809 0.476632 0.028601
C34   C     C_R   0.498823 0.573963 0.513754 -0.059450
C35   C     C_R   0.503554 0.922473 0.524699 0.028461
C36   C     C_R   0.502145 0.073585 0.486836 -0.059017
C37   C     C_R   0.284822 0.419432 0.470081 -0.038585
C38   C     C_R   0.711083 0.575295 0.518292 -0.025723
C39   C     C_R   0.715847 0.916886 0.541025 -0.032120
C40   C     C_R   0.288639 0.077018 0.477910 -0.028997
C41   C     C_R   0.213932 0.440949 0.550820 -0.023433
C42   C     C_R   0.791502 0.545866 0.454912 0.004337
C43   C     C_R   0.787833 0.936907 0.461314 -0.013206
C44   C     C_R   0.206432 0.048528 0.539268 0.020031
C45   C     C_R   0.224371 0.514259 0.601877 0.073458
C46   C     C_R   0.776061 0.472741 0.404069 0.091986
C47   C     C_R   0.779080 0.009301 0.407567 0.092511
C48   C     C_R   0.219661 0.975063 0.588611 0.103279
C49   C     C_R   0.315173 0.560537 0.585540 0.202238
C50   C     C_R   0.672789 0.433252 0.400401 0.221896
C51   C     C_R   0.687723 0.057032 0.419084 0.201721
C52   C     C_R   0.323013 0.934652 0.594704 0.220672
C53   C     C_R   0.401812 0.532169 0.528382 -0.031215
C54   C     C_R   0.589200 0.464184 0.457868 -0.029797
C55   C     C_R   0.599680 0.030543 0.475482 -0.034796
C56   C     C_R   0.408645 0.964739 0.540095 -0.032279
Cr1   Cr    Cr6+3 0.187610 0.750000 0.979860 1.114988
Cr2   Cr    Cr6+3 0.812390 0.250000 0.020140 1.115145
Cr3   Cr    Cr6+3 0.245810 0.750000 0.341640 1.091840
Cr4   Cr    Cr6+3 0.754190 0.250000 0.658360 1.098881
Cr5   Cr    Cr6+3 0.485760 0.750000 0.219910 1.081692
Cr6   Cr    Cr6+3 0.514240 0.250000 0.780090 1.047549
H1    H     H_    0.427057 0.095059 0.067202 0.104545
H2    H     H_    0.531193 0.943829 0.176322 0.146009
H3    H     H_    0.566667 0.594985 0.913793 0.100204
H4    H     H_    0.465635 0.442702 0.823993 0.139786
H5    H     H_    0.966307 0.038823 0.797555 0.154271
H6    H     H_    0.192882 0.972361 0.222462 -0.001420
H7    H     H_    0.032953 0.539491 0.202892 0.152507
H8    H     H_    0.807709 0.472612 0.776549 -0.005387
O1    O     O_R   0.267710 0.668200 0.902110 -0.470195
O2    O     O_R   0.732290 0.331800 0.097890 -0.460306
O3    O     O_R   0.732290 0.168200 0.097890 -0.474649
O4    O     O_R   0.267710 0.831800 0.902110 -0.456364
O5    O     O_R   0.099480 0.674460 0.038850 -0.431374
O6    O     O_R   0.900520 0.325540 0.961150 -0.442385
O7    O     O_R   0.900520 0.174460 0.961150 -0.434849
O8    O     O_R   0.099480 0.825540 0.038850 -0.442334
O9    O     O_R   0.116720 0.669210 0.267660 -0.490465
O10   O     O_R   0.883280 0.330790 0.732340 -0.442321
O11   O     O_R   0.883280 0.169210 0.732340 -0.486400
O12   O     O_R   0.116720 0.830790 0.267660 -0.457694
O13   O     O_R   0.366710 0.675440 0.427590 -0.455556
O14   O     O_R   0.633290 0.324560 0.572410 -0.496445
O15   O     O_R   0.633290 0.175440 0.572410 -0.455692
O16   O     O_R   0.366710 0.824560 0.427590 -0.499520
O17   O     O_R   0.534870 0.669390 0.371760 -0.475964
O18   O     O_R   0.465130 0.330610 0.628240 -0.531550
O19   O     O_R   0.465130 0.169390 0.628240 -0.480958
O20   O     O_R   0.534870 0.830610 0.371760 -0.516260
O21   O     O_R   0.453080 0.674480 0.075160 -0.499520
O22   O     O_R   0.546920 0.325520 0.924840 -0.519892
O23   O     O_R   0.546920 0.174480 0.924840 -0.503393
O24   O     O_R   0.453080 0.825520 0.075160 -0.508664
O25   O     O_3   0.306390 0.750000 0.180470 -0.359635
O26   O     O_3   0.693610 0.250000 0.819530 -0.356493
C57   C     C_2   0.144583 0.381898 0.591785 0.281780
H9    H     H_    0.174843 0.325556 0.594305 0.121866
O27   O     O_2   0.053796 0.393422 0.620379 -0.435722
C58   C     C_2   0.879171 0.594728 0.424271 0.345625
H10   H     H_    0.947522 0.623520 0.509300 0.126603
O28   O     O_2   0.869829 0.606772 0.300542 -0.476168
C59   C     C_2   0.856095 0.878504 0.417734 0.328897
H11   H     H_    0.916048 0.841426 0.495853 0.089548
O29   O     O_2   0.840443 0.868917 0.291197 -0.403562
C60   C     C_2   0.118388 0.098333 0.568257 0.353397
H12   H     H_    0.050522 0.127412 0.482189 0.138952
O30   O     O_2   0.125762 0.110146 0.691460 -0.484229
C61   C     C_2   0.146822 0.545520 0.677203 0.335779
H13   H     H_    0.129448 0.603824 0.671988 0.149211
O31   O     O_2   0.109644 0.508937 0.754792 -0.440019
C62   C     C_2   0.868676 0.433509 0.360562 0.403740
H14   H     H_    0.862783 0.374816 0.344425 0.182854
O32   O     O_2   0.954746 0.464765 0.346074 -0.525395
C63   C     C_2   0.865730 0.037559 0.341665 0.337334
H15   H     H_    0.860881 0.093970 0.307486 0.176479
O33   O     O_2   0.945084 0.999173 0.326199 -0.516127
C64   C     C_2   0.125194 0.936455 0.628872 0.369190
H16   H     H_    0.130093 0.877660 0.644294 0.162285
O34   O     O_2   0.040429 0.968723 0.644944 -0.539217
C65   C     C_2   0.244394 0.357308 0.366511 0.294818
H17   H     H_    0.158695 0.330282 0.350575 0.163951
O35   O     O_2   0.302053 0.338378 0.291723 -0.485191
C66   C     C_2   0.738132 0.644465 0.604637 0.278639
H18   H     H_    0.691332 0.655557 0.678862 0.136039
O36   O     O_2   0.809911 0.689893 0.593568 -0.527515
C67   C     C_2   0.751410 0.853887 0.643157 0.295736
H19   H     H_    0.836112 0.825113 0.662010 0.157828
O37   O     O_2   0.690432 0.836118 0.714647 -0.486774
C68   C     C_2   0.263503 0.146148 0.391286 0.281878
H20   H     H_    0.312564 0.156854 0.319377 0.135469
O38   O     O_2   0.190480 0.191853 0.399199 -0.529216
O39   O     O_3   0.326705 0.629535 0.645980 -0.698775
H21   H     H_    0.413243 0.644305 0.679812 0.317856
O40   O     O_3   0.651123 0.366717 0.329402 -0.675528
H22   H     H_    0.562947 0.355912 0.295536 0.353983
O41   O     O_3   0.678917 0.125694 0.358210 -0.698298
H23   H     H_    0.592652 0.141445 0.322529 0.319111
O42   O     O_3   0.342834 0.868134 0.665886 -0.671320
H24   H     H_    0.430975 0.856769 0.702273 0.357326
O43   O     O_3   0.686347 0.016412 0.062405 -0.679442
H25   H     H_    0.652411 0.966454 0.051673 0.359242
O44   O     O_3   0.263106 0.979921 0.913004 -0.675597
H26   H     H_    0.268379 0.032644 0.936137 0.349149
O45   O     O_3   0.326232 0.515517 0.965815 -0.659654
H27   H     H_    0.361995 0.465961 0.974412 0.347955
O46   O     O_3   0.737138 0.480748 0.078707 -0.680873
H28   H     H_    0.729177 0.533440 0.054871 0.351723
O47   O     O_3   0.063617 0.096907 0.136793 -0.670043
H29   H     H_    0.071421 0.069208 0.224507 0.340446
O48   O     O_3   0.935125 0.926287 0.956303 -0.619225
H30   H     H_    0.866364 0.958309 0.900997 0.331123
O49   O     O_3   0.936869 0.596653 0.862743 -0.666965
H31   H     H_    0.928069 0.568464 0.775078 0.334826
O50   O     O_3   0.063071 0.425853 0.046564 -0.618312
H32   H     H_    0.132088 0.457515 0.101609 0.336450

loop_
_geom_bond_atom_site_label_1
_geom_bond_atom_site_label_2
_ccdc_geom_bond_type
Cr1   O4    S    
C32   O24   A    
C5    C37   A    
C12   C29   S    
C19   C23   D    
O46   H28   S    
Cr3   O12   S    
C7    C55   A    
Cr2   O2    S    
C8    C56   A    
C62   O32   D    
O45   H27   S    
C9    O44   S    
Cr2   O6    S    
O40   H22   S    
Cr5   O20   S    
C47   C63   S    
C50   C54   A    
C7    C39   A    
C5    C53   A    
Cr3   O13   S    
C38   C42   A    
C46   C62   S    
C50   O40   S    
C61   O31   D    
C32   O4    A    
C45   C61   S    
C31   O3    A    
O47   H29   S    
C60   H12   S    
C15   C16   S    
Cr6   O19   S    
C25   O17   A    
C52   O42   S    
C3    C18   S    
C8    C36   A    
C27   O15   A    
C9    C13   D    
C64   H16   S    
C49   O39   S    
Cr5   O17   S    
Cr2   O7    S    
C11   C15   D    
C10   C31   S    
C47   C51   A    
C12   C16   D    
C11   C30   S    
C63   O33   D    
Cr6   O22   S    
C3    O11   A    
C23   C24   S    
C6    C38   A    
C40   C44   A    
C9    C32   S    
Cr6   O26   S    
C25   C34   S    
C35   C56   A    
C22   O47   S    
C13   C14   S    
Cr3   O25   S    
C6    C54   A    
C62   H14   S    
C57   O27   D    
C57   H9    S    
C43   C59   S    
O50   H32   S    
C39   C67   S    
C52   C56   A    
C1    O5    A    
C20   C24   D    
C44   C48   A    
C28   C35   S    
C30   O22   A    
C10   C14   D    
Cr3   O9    S    
Cr5   O24   S    
C48   C64   S    
C18   H5    S    
C31   O23   A    
C15   H4    S    
Cr6   O18   S    
C17   C21   D    
C6    C34   A    
C5    C33   A    
C10   O43   S    
C12   O45   S    
C68   O38   D    
C67   O37   D    
C4    O8    A    
C42   C58   S    
Cr4   O11   S    
C26   C33   S    
C30   O2    A    
C45   C49   A    
O42   H24   S    
C58   O28   D    
C59   O29   D    
Cr1   O1    S    
C65   H17   S    
C37   C65   S    
C4    C17   S    
C51   O41   S    
C42   C46   A    
O39   H21   S    
C1    O9    A    
C41   C57   S    
C20   H7    S    
C23   O50   S    
C67   H19   S    
C3    O7    A    
Cr4   O26   S    
C29   O21   A    
C2    O6    A    
C24   O49   S    
C66   O36   D    
C33   C54   A    
C40   C68   S    
Cr4   O10   S    
C17   H6    S    
C26   O14   A    
Cr2   O26   S    
C2    C19   S    
C18   C22   D    
C7    C35   A    
Cr1   O8    S    
C1    C20   S    
C39   C43   A    
Cr4   O15   S    
Cr5   O25   S    
C44   C60   S    
C27   C36   S    
O41   H23   S    
C46   C50   A    
Cr1   O5    S    
C68   H20   S    
Cr3   O16   S    
C36   C55   A    
O43   H25   S    
C28   O16   A    
Cr4   O14   S    
C11   O46   S    
C63   H15   S    
C13   H2    S    
C60   O30   D    
C49   C53   A    
C14   H1    S    
C58   H10   S    
C27   O19   A    
C51   C55   A    
C21   O48   S    
C37   C41   A    
C64   O34   D    
C65   O35   D    
C2    O10   A    
Cr5   O21   S    
C48   C52   A    
C4    O12   A    
C34   C53   A    
C26   O18   A    
Cr1   O25   S    
Cr6   O23   S    
C61   H13   S    
C59   H11   S    
C25   O13   A    
C41   C45   A    
C19   H8    S    
C28   O20   A    
C16   H3    S    
C8    C40   A    
O49   H31   S    
C21   C22   S    
C43   C47   A    
O48   H30   S    
C38   C66   S    
O44   H26   S    
Cr2   O3    S    
C66   H18   S    
C29   O1    A    
