data_mof_unit_65041.cif
_audit_creation_date              2013-03-05T15:39:55-0500
_audit_creation_method            fapswitch 2.2
_symmetry_space_group_name_H-M    P1
_symmetry_Int_Tables_number       1
_space_group_crystal_system       triclinic
_cell_length_a                    14.139909
_cell_length_b                    16.420867
_cell_length_c                    15.137906
_cell_angle_alpha                 89.93918
_cell_angle_beta                  91.929722
_cell_angle_gamma                 90.004037
_cell_volume                      3512.86848772

loop_
_atom_site_label
_atom_site_type_symbol
_atom_site_description
_atom_site_fract_x
_atom_site_fract_y
_atom_site_fract_z
_atom_type_partial_charge
Zn1   Zn    Zn3+2 0.493670 0.096680 0.574000 1.046932
Zn2   Zn    Zn3+2 0.493670 0.903320 0.574000 1.037173
Zn3   Zn    Zn3+2 0.993670 0.596680 0.574000 1.047523
Zn4   Zn    Zn3+2 0.993670 0.403320 0.574000 1.037080
Zn5   Zn    Zn3+2 0.617760 0.000000 0.438070 1.049750
Zn6   Zn    Zn3+2 0.117760 0.500000 0.438070 1.049074
Zn7   Zn    Zn3+2 0.394920 0.000000 0.413930 1.011716
Zn8   Zn    Zn3+2 0.894920 0.500000 0.413930 1.011965
O1    O     O_3   0.500000 0.000000 0.500000 -0.530230
O2    O     O_3   0.000000 0.500000 0.500000 -0.530197
O3    O     O_R   0.605310 0.837110 0.563680 -0.626523
O4    O     O_R   0.605310 0.162890 0.563680 -0.611527
O5    O     O_R   0.105310 0.337110 0.563680 -0.626355
O6    O     O_R   0.105310 0.662890 0.563680 -0.611095
O7    O     O_R   0.385830 0.162890 0.539910 -0.638070
O8    O     O_R   0.385830 0.837110 0.539910 -0.626239
O9    O     O_R   0.885830 0.662890 0.539910 -0.637928
O10   O     O_R   0.885830 0.337110 0.539910 -0.625932
O11   O     O_R   0.692160 0.095230 0.468550 -0.607939
O12   O     O_R   0.692160 0.904770 0.468550 -0.629668
O13   O     O_R   0.192160 0.595230 0.468550 -0.608203
O14   O     O_R   0.192160 0.404770 0.468550 -0.630232
O15   O     O_R   0.316720 0.904790 0.427870 -0.635780
O16   O     O_R   0.316720 0.095210 0.427870 -0.634234
O17   O     O_R   0.816720 0.404790 0.427870 -0.636154
O18   O     O_R   0.816720 0.595210 0.427870 -0.634195
O19   O     O_R   0.594900 0.000000 0.310900 -0.600259
O20   O     O_R   0.094900 0.500000 0.310900 -0.600739
O21   O     O_R   0.483090 0.932320 0.697550 -0.605205
O22   O     O_R   0.483090 0.067680 0.697550 -0.608672
O23   O     O_R   0.983090 0.432320 0.697550 -0.605009
O24   O     O_R   0.983090 0.567680 0.697550 -0.608289
O25   O     O_R   0.438930 0.000000 0.294000 -0.642915
O26   O     O_R   0.938930 0.500000 0.294000 -0.642543
C1    C     C_R   0.680115 0.844617 0.519997 0.861843
C2    C     C_R   0.680142 0.155316 0.520020 0.891770
C3    C     C_R   0.180115 0.344617 0.519997 0.861502
C4    C     C_R   0.180142 0.655316 0.520019 0.892347
C5    C     C_R   0.320000 0.156162 0.480416 0.896917
C6    C     C_R   0.320034 0.843791 0.480405 0.897969
C7    C     C_R   0.820000 0.656162 0.480415 0.897181
C8    C     C_R   0.820034 0.343791 0.480405 0.897876
C9    C     C_R   0.520768 0.002279 0.260810 0.881845
C10   C     C_R   0.020751 0.502257 0.260821 0.883208
C11   C     C_R   0.478567 0.999846 0.738717 0.943879
C12   C     C_R   0.978605 0.499842 0.738739 0.942806
C13   C     C_R   0.529297 0.013975 0.165560 -0.193916
C14   C     C_R   0.029170 0.514118 0.165607 -0.193458
C15   C     C_R   0.473131 0.999037 0.834613 -0.224797
C16   C     C_R   0.973114 0.498995 0.834658 -0.225152
C17   C     C_R   0.395106 0.952658 0.964432 -0.152088
C18   C     C_R   0.895940 0.451439 0.964466 -0.152566
C19   C     C_R   0.397542 0.958741 0.873380 0.338288
C20   C     C_R   0.898192 0.457748 0.873421 0.338755
C21   C     C_R   0.546209 0.034745 0.887202 0.343923
C22   C     C_R   0.045587 0.535529 0.887303 0.344224
C23   C     C_R   0.540740 0.033543 0.980803 -0.067574
C24   C     C_R   0.040110 0.534167 0.980898 -0.067736
C25   C     C_R   0.465711 0.988655 0.018057 -0.009909
C26   C     C_R   0.965951 0.488212 0.018113 -0.009549
C27   C     C_R   0.461008 0.979414 0.109100 -0.225904
C28   C     C_R   0.961502 0.478724 0.109138 -0.226461
C29   C     C_R   0.601370 0.062856 0.131189 0.216328
C30   C     C_R   0.100251 0.564114 0.131310 0.216156
C31   C     C_R   0.605984 0.074533 0.039276 0.370639
C32   C     C_R   0.104540 0.576031 0.039388 0.370988
H1    H     H_    0.404265 0.943806 0.136443 0.191226
H2    H     H_    0.905443 0.442312 0.136473 0.190618
H3    H     H_    0.337304 0.919784 0.993494 0.204050
H4    H     H_    0.838729 0.417789 0.993508 0.203972
C33   C     C_2   0.247946 0.219039 0.472859 -0.327138
C34   C     C_2   0.248154 0.780799 0.472710 -0.304014
C35   C     C_2   0.747946 0.719040 0.472858 -0.327301
C36   C     C_2   0.748155 0.280799 0.472711 -0.304623
H5    H     H_    0.691453 0.713450 0.422661 0.158929
H6    H     H_    0.691885 0.286282 0.422261 0.177653
H7    H     H_    0.191452 0.213449 0.422663 0.158961
H8    H     H_    0.191884 0.786283 0.422260 0.178313
C37   C     C_2   0.751657 0.782728 0.527350 -0.268859
C38   C     C_2   0.751716 0.217152 0.527383 -0.255300
C39   C     C_2   0.251656 0.282728 0.527350 -0.269100
C40   C     C_2   0.251716 0.717152 0.527382 -0.256052
H9    H     H_    0.307291 0.289800 0.578014 0.177761
H10   H     H_    0.307037 0.710235 0.578388 0.185726
H11   H     H_    0.807291 0.789800 0.578015 0.177995
H12   H     H_    0.807038 0.210235 0.578389 0.186017
N1    N     N_R   0.666415 0.105329 0.189702 0.248346
O27   O     O_R   0.757068 0.093184 0.184982 -0.304528
O28   O     O_R   0.635334 0.158275 0.245711 -0.387323
N2    N     N_R   0.164364 0.607516 0.189913 0.247870
O29   O     O_R   0.255291 0.597893 0.184248 -0.304755
O30   O     O_R   0.132074 0.658958 0.246871 -0.388454
Cl1   Cl    Cl    0.683572 0.151982 0.004225 -0.395466
Cl2   Cl    Cl    0.180110 0.654930 0.004305 -0.395333
Cl3   Cl    Cl    0.304644 0.914129 0.809545 -0.525672
Cl4   Cl    Cl    0.805914 0.412191 0.809613 -0.525756
Cl5   Cl    Cl    0.649078 0.066720 0.832643 -0.492149
Cl6   Cl    Cl    0.148095 0.568600 0.832915 -0.492032

loop_
_geom_bond_atom_site_label_1
_geom_bond_atom_site_label_2
_geom_bond_distance
_ccdc_geom_bond_type
C10   C14   1.463044 S    
N1    O27   1.301611 A    
C29   C31   1.407995 A    
C18   H4    1.084617 S    
C19   Cl3   1.764031 S    
Zn8   O18   1.930846 S    
O22   C11   1.278447 A    
C22   Cl6   1.775673 S    
Zn5   O12   1.931571 S    
C16   C20   1.402251 A    
C36   H6    1.087820 S    
Zn2   O21   1.941100 S    
O11   C2    1.272804 A    
O10   C8    1.277635 A    
C13   C29   1.410067 A    
Zn7   O15   1.930358 S    
C23   C25   1.423424 A    
C24   C26   1.423072 A    
Zn7   O16   1.930846 S    
Zn6   O14   1.931571 S    
O16   C5    1.278997 A    
C26   C28   1.390078 A    
Zn4   O5    1.927585 S    
C38   H12   1.086340 S    
C18   C26   1.396765 A    
Zn5   O19   1.941274 S    
O12   C1    1.272208 A    
N2    O30   1.301379 A    
C24   C32   1.425988 A    
Zn6   O20   1.941274 S    
O13   C4    1.272804 A    
O23   C12   1.275261 A    
C34   H8    1.087822 S    
Zn1   O7    1.928621 S    
C30   N2    1.436606 S    
O4    C2    1.272479 A    
Zn2   O8    1.929117 S    
C20   Cl4   1.763991 S    
C32   Cl2   1.771706 S    
Zn4   O10   1.929117 S    
C31   Cl1   1.772041 S    
C36   C38   1.332359 D    
C4    C40   1.435338 S    
Zn8   O17   1.930358 S    
C35   H5    1.087744 S    
C3    C39   1.435557 S    
Zn1   O4    1.927273 S    
Zn2   O3    1.927585 S    
C39   H9    1.086320 S    
C18   C20   1.383445 A    
C8    C36   1.452113 S    
C25   C27   1.390182 A    
Zn7   O25   1.938902 S    
O25   C9    1.277504 A    
O26   C10   1.277208 A    
C2    C38   1.435340 S    
C15   C21   1.410964 A    
O14   C3    1.272208 A    
O20   C10   1.273480 A    
C16   C22   1.411054 A    
O21   C11   1.275195 A    
C17   C19   1.383425 A    
C30   C32   1.408310 A    
Zn5   O1    1.938203 S    
O6    C4    1.272477 A    
C27   H1    1.085709 S    
C14   C28   1.389208 A    
C11   C15   1.456316 S    
C21   Cl5   1.775794 S    
C35   C37   1.332608 D    
Zn1   O1    1.947767 S    
Zn8   O26   1.938902 S    
O7    C5    1.278091 A    
Zn3   O6    1.927273 S    
O8    C6    1.277638 A    
C40   H10   1.086339 S    
C21   C23   1.421748 A    
C17   C25   1.396935 A    
Zn4   O2    1.945818 S    
C33   H7    1.087745 S    
Zn7   O1    1.942908 S    
C6    C34   1.452115 S    
C29   N1    1.436412 S    
O24   C12   1.278625 A    
C23   C31   1.426132 A    
O17   C8    1.278195 A    
C13   C27   1.389365 A    
Zn5   O11   1.932243 S    
C12   C16   1.456747 S    
C28   H2    1.085610 S    
O3    C1    1.272081 A    
Zn3   O2    1.947767 S    
Zn6   O13   1.932243 S    
N2    O29   1.301084 A    
O5    C3    1.272080 A    
C15   C19   1.402126 A    
C1    C37   1.435557 S    
Zn1   O22   1.940120 S    
C37   H11   1.086321 S    
C22   C24   1.421696 A    
Zn3   O9    1.928621 S    
Zn3   O24   1.940120 S    
O9    C7    1.278091 A    
Zn4   O23   1.941100 S    
C14   C30   1.409925 A    
Zn6   O2    1.938203 S    
C7    C35   1.452310 S    
O19   C9    1.273396 A    
Zn8   O2    1.942908 S    
N1    O28   1.301777 A    
C5    C33   1.452309 S    
C17   H3    1.084725 S    
Zn2   O1    1.945818 S    
C9    C13   1.463414 S    
C34   C40   1.332357 D    
O15   C6    1.278192 A    
O18   C7    1.278997 A    
C33   C39   1.332608 D    
