data_mof_unit_14961.cif
_audit_creation_date              2012-12-10T17:36:50-0500
_audit_creation_method            fapswitch 2.2
_symmetry_space_group_name_H-M    P1
_symmetry_Int_Tables_number       1
_space_group_crystal_system       triclinic
_cell_length_a                    10.622468
_cell_length_b                    12.331256
_cell_length_c                    13.147909
_cell_angle_alpha                 116.817769
_cell_angle_beta                  77.475094
_cell_angle_gamma                 101.094944
_cell_volume                      1491.54255903

loop_
_atom_site_label
_atom_site_type_symbol
_atom_type_description
_atom_site_fract_x
_atom_site_fract_y
_atom_site_fract_z
_atom_type_partial_charge
C1    C     C_R   0.511210 0.854869 0.286329 0.811677
C2    C     C_3   0.016976 0.016357 0.600417 0.453704
C3    C     C_3   0.932544 0.906695 0.523099 -0.221569
C4    C     C_3   0.877058 0.996944 0.497341 -0.101513
C5    C     C_R   0.312980 0.275897 0.018070 0.415921
C6    C     C_R   0.455629 0.227255 0.835981 -0.245134
C7    C     C_R   0.590909 0.814116 0.082209 -0.154598
C8    C     C_R   0.611762 0.734337 0.966171 -0.175880
C9    C     C_R   0.566808 0.610944 0.930082 -0.099080
C10   C     C_R   0.496963 0.565279 0.009946 0.127807
C11   C     C_R   0.457819 0.650513 0.123845 0.063880
C12   C     C_R   0.740309 0.998634 0.498728 0.851245
C13   C     C_R   0.458134 0.438554 0.978566 -0.001141
C14   C     C_R   0.359332 0.401533 0.052877 -0.026773
C15   C     C_R   0.306282 0.491034 0.157687 -0.194981
C16   C     C_R   0.356688 0.612664 0.193691 -0.185240
C17   C     C_R   0.517147 0.347441 0.877130 0.338873
C18   C     C_R   0.355998 0.191877 0.907316 -0.199140
C19   C     C_R   0.516750 0.772825 0.162669 -0.097128
C20   C     C_R   0.717591 0.348664 0.334510 0.302603
C21   C     C_R   0.323565 0.759368 0.645087 0.084817
C22   C     C_R   0.286124 0.663165 0.676981 -0.242851
C23   C     C_R   0.481787 0.145025 0.713638 0.818591
C24   C     C_R   0.353637 0.560327 0.622728 -0.198434
C25   C     C_R   0.460303 0.552333 0.535220 0.022177
C26   C     C_R   0.495090 0.653568 0.505826 0.283356
C27   C     C_R   0.533745 0.448479 0.476345 -0.071441
C28   C     C_R   0.642535 0.449249 0.391434 0.052814
C29   C     C_R   0.671874 0.548379 0.362801 -0.270849
C30   C     C_R   0.600863 0.647781 0.419101 -0.179288
C31   C     C_R   0.503305 0.342741 0.497496 0.003623
C32   C     C_R   0.678736 0.247083 0.357971 0.065647
C33   C     C_R   0.259867 0.000645 0.500211 0.832034
C34   C     C_3   0.983800 0.980559 0.393905 0.036331
C35   C     C_3   0.041268 0.890529 0.418545 -0.276214
C36   C     C_3   0.123745 0.000367 0.498425 -0.005197
C37   C     C_3   0.068312 0.090271 0.472652 -0.225424
C38   C     C_3   0.959835 0.106982 0.577411 -0.253521
Cu1   Cu    Cu3+1 0.529830 0.098270 0.475420 0.969013
Cu2   Cu    Cu3+1 0.470170 0.901730 0.524580 0.939085
H1    H     H_    0.077482 0.802895 0.353130 0.150785
H2    H     H_    0.633371 0.908211 0.108978 0.166635
H3    H     H_    0.582174 0.554013 0.838503 0.191132
H4    H     H_    0.665563 0.767709 0.904098 0.153508
H5    H     H_    0.310169 0.677481 0.274433 0.163431
H6    H     H_    0.733992 0.169146 0.314259 0.177170
H7    H     H_    0.749243 0.550243 0.294712 0.169487
H8    H     H_    0.422780 0.334372 0.560177 0.138986
H9    H     H_    0.270886 0.838986 0.687856 0.153779
H10   H     H_    0.320610 0.489164 0.651576 0.141151
H11   H     H_    0.204648 0.668415 0.744172 0.163491
H12   H     H_    0.633014 0.718432 0.391107 0.212821
H13   H     H_    0.125762 0.164480 0.451168 0.168981
H14   H     H_    0.924106 0.194467 0.643638 0.154432
H15   H     H_    0.875452 0.832848 0.545309 0.160073
H16   H     H_    0.310690 0.098361 0.876837 0.200518
H17   H     H_    0.225053 0.468930 0.213293 0.157952
N1    N     N_R   0.575030 0.246270 0.438190 -0.222680
N2    N     N_R   0.425760 0.754330 0.561190 -0.216334
O1    O     O_R   0.537510 0.972500 0.318130 -0.561565
O2    O     O_R   0.487140 0.806530 0.359650 -0.611685
O3    O     O_R   0.708330 0.082950 0.479220 -0.559873
O4    O     O_R   0.657960 0.916980 0.520740 -0.612196
O5    O     O_R   0.512860 0.193470 0.640350 -0.566029
O6    O     O_R   0.462490 0.027500 0.681870 -0.583996
O7    O     O_R   0.342040 0.083020 0.479260 -0.592925
O8    O     O_R   0.291670 0.917050 0.520780 -0.581522
O9    O     O_3   0.637885 0.375522 0.823716 -0.739656
H18   H     H_    0.680351 0.299759 0.775312 0.324371
O10   O     O_3   0.828424 0.345445 0.256218 -0.717706
H19   H     H_    0.876126 0.428330 0.282149 0.322230
C39   C     C_2   0.969516 0.958895 0.275131 0.843434
O11   O     O_2   0.066226 0.951856 0.203355 -0.571729
O12   O     O_R   0.846715 0.946003 0.246476 -0.784065
H20   H     H_    0.850700 0.932095 0.163816 0.331649
O13   O     O_3   0.039556 0.035341 0.708395 -0.733381
H21   H     H_    0.953083 0.042342 0.756677 0.325961
O14   O     O_3   0.221572 0.232110 0.086555 -0.688382
H22   H     H_    0.236705 0.280499 0.167499 0.323942

loop_
_geom_bond_atom_site_label_1
_geom_bond_atom_site_label_2
_ccdc_geom_bond_type
C34   C37   S    
C35   C36   S    
C32   N1    A    
C21   H9    S    
C7    C8    A    
Cu1   O5    S    
C11   C19   A    
C29   C30   A    
Cu2   O4    S    
C29   H7    S    
C31   N1    A    
C36   C37   S    
C21   N2    A    
Cu1   O1    S    
C15   C16   A    
C33   C36   S    
C34   C35   S    
C7    H2    S    
C6    C17   A    
C3    H15   S    
O9    H18   S    
Cu2   O8    S    
O10   H19   S    
C4    C12   S    
C26   N2    A    
C18   H16   S    
C37   H13   S    
Cu2   N2    S    
C21   C22   A    
C15   H17   S    
C20   O10   S    
C9    C10   A    
C33   O7    A    
C24   H10   S    
C6    C18   A    
C4    C34   S    
C9    H3    S    
C1    C19   S    
O12   H20   S    
C27   C31   A    
O13   H21   S    
C39   O12   S    
C1    O1    A    
Cu1   Cu2   S    
C12   O4    A    
O14   H22   S    
C8    C9    A    
C5    C18   A    
C20   C28   A    
C25   C26   A    
Cu1   N1    S    
Cu2   O2    S    
C37   C38   S    
C12   O3    A    
C11   C16   A    
C2    C38   S    
C38   H14   S    
C3    C35   S    
C24   C25   A    
C5    C14   A    
C23   O5    A    
C4    C38   S    
C26   C30   A    
C7    C19   A    
C31   H8    S    
Cu1   O7    S    
C22   C24   A    
C3    C4    S    
C34   C39   S    
C2    O13   S    
C33   O8    A    
C20   C32   A    
C2    C36   S    
Cu1   O3    S    
C30   H12   S    
C28   C29   A    
C17   O9    S    
C32   H6    S    
C8    H4    S    
C39   O11   D    
C10   C13   A    
C1    O2    A    
C16   H5    S    
C25   C27   A    
C13   C17   A    
Cu2   O6    S    
C23   O6    A    
C2    C3    S    
C6    C23   S    
C35   H1    S    
C10   C11   A    
C27   C28   A    
C14   C15   A    
C5    O14   S    
C13   C14   A    
C22   H11   S    
