data_mof_unit_56219.cif
_audit_creation_date              2012-12-10T17:48:17-0500
_audit_creation_method            fapswitch 2.2
_symmetry_space_group_name_H-M    P1
_symmetry_Int_Tables_number       1
_space_group_crystal_system       triclinic
_cell_length_a                    13.849861
_cell_length_b                    14.671344
_cell_length_c                    14.635205
_cell_angle_alpha                 114.589755
_cell_angle_beta                  105.778056
_cell_angle_gamma                 72.674927
_cell_volume                      2543.6441585

loop_
_atom_site_label
_atom_site_type_symbol
_atom_type_description
_atom_site_fract_x
_atom_site_fract_y
_atom_site_fract_z
_atom_type_partial_charge
C1    C     C_R   0.517883 0.118500 0.688366 0.792956
C2    C     C_R   0.483417 0.881646 0.311724 0.794297
C3    C     C_R   0.527778 0.360155 0.922617 0.078552
C4    C     C_R   0.493972 0.641871 0.075037 0.077743
C5    C     C_R   0.570254 0.318887 0.001084 0.130095
C6    C     C_R   0.455209 0.684052 0.997222 0.112758
C7    C     C_R   0.501791 0.468345 0.947113 0.023113
C8    C     C_R   0.524120 0.533836 0.049427 0.029150
C9    C     C_R   0.578329 0.490153 0.123551 -0.220875
C10   C     C_R   0.452330 0.512858 0.872463 -0.239728
C11   C     C_R   0.599130 0.384409 0.102317 0.082913
C12   C     C_R   0.433401 0.618696 0.894526 0.070496
C13   C     C_R   0.326010 0.299862 0.330313 -0.023361
C14   C     C_R   0.648379 0.716066 0.689396 -0.025697
C15   C     C_R   0.353842 0.216070 0.361946 0.043167
C16   C     C_R   0.627850 0.795507 0.652703 0.049019
C17   C     C_R   0.488784 0.284292 0.487170 -0.007560
C18   C     C_R   0.522270 0.708272 0.503846 -0.015479
C19   C     C_R   0.470905 0.367551 0.454461 -0.057200
C20   C     C_R   0.547784 0.619945 0.530434 -0.059761
C21   C     C_R   0.393329 0.369730 0.368110 0.062223
C22   C     C_R   0.618781 0.621771 0.621836 0.070387
C23   C     C_R   0.686959 0.987034 0.503883 0.824532
C24   C     C_R   0.313045 0.013048 0.496213 0.823473
C25   C     C_R   0.526805 0.448469 0.505114 0.071429
C26   C     C_R   0.502490 0.531936 0.471267 0.077676
C27   C     C_R   0.438104 0.522033 0.376455 -0.278390
C28   C     C_R   0.609116 0.446572 0.585983 -0.287610
C29   C     C_R   0.388433 0.439676 0.321954 0.002023
C30   C     C_R   0.657847 0.529133 0.641235 0.003152
C31   C     C_1   0.207815 0.020781 0.494467 -0.184018
C32   C     C_1   0.792189 0.979648 0.505973 -0.177993
C33   C     C_2   0.013288 0.035548 0.491326 -0.159240
C34   C     C_2   0.986695 0.965567 0.509706 -0.164029
C35   C     C_1   0.881061 0.972746 0.507853 0.001769
C36   C     C_1   0.118924 0.028075 0.492885 -0.001690
C37   C     C_R   0.532293 0.185708 0.796492 -0.051141
C38   C     C_R   0.475431 0.815386 0.203517 -0.050447
C39   C     C_R   0.585978 0.211866 0.975272 -0.219025
C40   C     C_R   0.435238 0.791648 0.025010 -0.218916
C41   C     C_R   0.565466 0.146585 0.874328 -0.204109
C42   C     C_R   0.446738 0.856258 0.126956 -0.193055
C43   C     C_R   0.515085 0.291195 0.821059 -0.253590
C44   C     C_R   0.497413 0.709370 0.177155 -0.245875
Cu1   Cu    Cu3+1 0.526370 0.916390 0.524860 0.929493
Cu2   Cu    Cu3+1 0.473630 0.083610 0.475140 0.928028
H1    H     H_    0.043912 0.902665 0.526015 0.153691
H2    H     H_    0.956094 0.098450 0.474987 0.156787
H3    H     H_    0.432564 0.573224 0.338809 0.131081
H4    H     H_    0.641699 0.378492 0.604133 0.139763
H5    H     H_    0.512992 0.680959 0.237862 0.145111
H6    H     H_    0.495448 0.317179 0.758493 0.147604
H7    H     H_    0.430378 0.938341 0.145658 0.150081
H8    H     H_    0.578329 0.065268 0.856937 0.139978
H9    H     H_    0.614293 0.177053 0.032282 0.130374
H10   H     H_    0.409629 0.827560 0.968899 0.134062
H11   H     H_    0.607992 0.538289 0.198220 0.135766
H12   H     H_    0.425725 0.466264 0.796223 0.138636
H13   H     H_    0.466197 0.714317 0.438271 0.132642
H14   H     H_    0.546805 0.276018 0.550715 0.130442
H15   H     H_    0.656222 0.864727 0.699589 0.130242
H16   H     H_    0.309516 0.156878 0.327749 0.128041
N1    N     N_R   0.433980 0.209250 0.437830 -0.186929
N2    N     N_R   0.566020 0.790750 0.562170 -0.185974
O1    O     O_R   0.534760 0.019630 0.662610 -0.594233
O2    O     O_R   0.465240 0.980370 0.337390 -0.587205
O3    O     O_R   0.490220 0.160840 0.620610 -0.589655
O4    O     O_R   0.509780 0.839160 0.379390 -0.591694
O5    O     O_R   0.663260 0.919400 0.523940 -0.572313
O6    O     O_R   0.336740 0.080600 0.476060 -0.580251
O7    O     O_R   0.618720 0.060610 0.481950 -0.575189
O8    O     O_R   0.381280 0.939390 0.518050 -0.571763
C45   C     C_3   0.220915 0.315801 0.264677 -0.420612
C46   C     C_3   0.134229 0.323541 0.316410 -0.350670
C47   C     C_3   0.028769 0.347924 0.253904 -0.851564
H17   H     H_    0.016751 0.422949 0.246327 0.253142
H18   H     H_    0.021769 0.287048 0.176791 0.254439
H19   H     H_    0.968064 0.352015 0.292678 0.244034
H20   H     H_    0.141566 0.250180 0.325501 0.214258
H21   H     H_    0.138924 0.385144 0.393338 0.225610
H22   H     H_    0.203122 0.388089 0.250998 0.225234
H23   H     H_    0.219596 0.251078 0.189832 0.197871
C48   C     C_3   0.690300 0.739395 0.802722 -0.412619
C49   C     C_3   0.626090 0.836830 0.870745 -0.376574
C50   C     C_3   0.656667 0.847773 0.982672 -0.835356
H24   H     H_    0.643414 0.781722 0.992754 0.263435
H25   H     H_    0.738945 0.851714 0.009921 0.255049
H26   H     H_    0.609574 0.919263 0.029565 0.238778
H27   H     H_    0.637977 0.905315 0.864685 0.207185
H28   H     H_    0.543227 0.834602 0.845836 0.219155
H29   H     H_    0.688004 0.677415 0.825650 0.230717
H30   H     H_    0.771087 0.747682 0.819098 0.200928
C51   C     C_3   0.654460 0.339787 0.185338 -0.407683
C52   C     C_3   0.693435 0.415302 0.290334 -0.357434
C53   C     C_3   0.744936 0.361217 0.366037 -0.826812
H31   H     H_    0.690179 0.324894 0.375277 0.261954
H32   H     H_    0.813010 0.301515 0.339191 0.244766
H33   H     H_    0.770370 0.417945 0.441442 0.245800
H34   H     H_    0.750190 0.450620 0.282774 0.216100
H35   H     H_    0.628448 0.476613 0.321666 0.230003
H36   H     H_    0.601363 0.302612 0.196014 0.200665
H37   H     H_    0.722314 0.279894 0.157834 0.194847
C54   C     C_3   0.385964 0.663842 0.810872 -0.412694
C55   C     C_3   0.358837 0.587948 0.702074 -0.355567
C56   C     C_3   0.313505 0.643205 0.626761 -0.826927
H38   H     H_    0.240624 0.698110 0.646757 0.244790
H39   H     H_    0.368306 0.685587 0.627580 0.260180
H40   H     H_    0.297264 0.586321 0.548576 0.248684
H41   H     H_    0.429000 0.530682 0.677645 0.231570
H42   H     H_    0.301232 0.547773 0.699924 0.214275
H43   H     H_    0.314131 0.720556 0.831833 0.196309
H44   H     H_    0.440940 0.704727 0.809105 0.200800
C57   C     C_R   0.348967 0.419799 0.211273 0.111662
C58   C     C_R   0.288430 0.499839 0.178123 -0.166985
C59   C     C_R   0.255638 0.481680 0.074048 -0.129979
C60   C     C_R   0.282261 0.383615 0.002048 -0.103282
C61   C     C_R   0.341716 0.303483 0.033967 -0.127339
C62   C     C_R   0.375731 0.321441 0.137868 -0.159888
H45   H     H_    0.266301 0.576232 0.232778 0.123689
H46   H     H_    0.209467 0.543702 0.049204 0.126278
H47   H     H_    0.256944 0.369743 0.921517 0.121422
H48   H     H_    0.362500 0.227579 0.978067 0.136322
H49   H     H_    0.423629 0.258789 0.160950 0.119262
C63   C     C_R   0.758016 0.508952 0.707365 0.102893
C64   C     C_R   0.765823 0.469633 0.782539 -0.175039
C65   C     C_R   0.860241 0.450366 0.844208 -0.122487
C66   C     C_R   0.947614 0.469410 0.831004 -0.108927
C67   C     C_R   0.940756 0.507621 0.755967 -0.143581
C68   C     C_R   0.846498 0.527124 0.694144 -0.151026
H50   H     H_    0.698577 0.455310 0.794241 0.132689
H51   H     H_    0.865633 0.420782 0.902351 0.130214
H52   H     H_    0.020660 0.454446 0.878829 0.119456
H53   H     H_    0.008555 0.522022 0.745614 0.124920
H54   H     H_    0.842439 0.556218 0.635943 0.124911

loop_
_geom_bond_atom_site_label_1
_geom_bond_atom_site_label_2
_ccdc_geom_bond_type
C7    C10   A    
C51   C52   S    
C27   C29   A    
C45   C46   S    
C23   O5    A    
C53   H31   S    
C47   H17   S    
C67   C68   A    
C58   C59   A    
C53   H33   S    
C24   O6    A    
C7    C8    A    
C39   C41   A    
Cu1   Cu2   S    
C25   C28   A    
C48   H30   S    
C56   H39   S    
C3    C43   A    
C26   C27   A    
C65   C66   A    
C52   H34   S    
C10   H12   S    
Cu2   O2    S    
C3    C7    A    
C42   H7    S    
C6    C12   A    
C55   H41   S    
C43   H6    S    
C59   C60   A    
C33   C36   S    
C60   C61   A    
C54   H43   S    
C34   C35   S    
C4    C8    A    
C66   H52   S    
C1    O3    A    
C28   H4    S    
C64   H50   S    
C39   H9    S    
C8    C9    A    
C40   H10   S    
C1    O1    A    
C18   C20   A    
C58   H45   S    
C1    C37   S    
C11   C51   S    
C40   C42   A    
C46   H21   S    
Cu1   O8    S    
C49   H28   S    
C14   C48   S    
C45   H22   S    
C55   C56   S    
C50   H25   S    
C56   H40   S    
C60   H47   S    
Cu1   O5    S    
C32   C35   T    
C23   O7    A    
C6    C40   A    
C49   C50   S    
C12   C54   S    
C4    C6    A    
C46   C47   S    
C51   H36   S    
C4    C44   A    
C3    C5    A    
C25   C26   A    
C50   H24   S    
C21   C29   A    
C57   C62   A    
C54   H44   S    
C37   C43   A    
C61   H48   S    
C38   C44   A    
C9    C11   A    
C2    C38   S    
C48   C49   S    
C52   H35   S    
Cu1   O4    S    
C33   C34   D    
C13   C21   A    
C47   H18   S    
Cu2   O7    S    
C10   C12   A    
C44   H5    S    
C30   C63   S    
C46   H20   S    
C13   C15   A    
Cu1   O1    S    
C64   C65   A    
C14   C16   A    
C49   H27   S    
C20   C22   A    
C66   C67   A    
C45   H23   S    
C24   O8    A    
C57   C58   A    
C50   H26   S    
C29   C57   S    
C22   C30   A    
C19   C21   A    
C13   C45   S    
C2    O2    A    
C51   H37   S    
C53   H32   S    
C5    C11   A    
C48   H29   S    
C56   H38   S    
Cu1   N2    S    
C2    O4    A    
Cu2   N1    S    
C23   C32   S    
C14   C22   A    
C5    C39   A    
C24   C31   S    
Cu2   O3    S    
C61   C62   A    
C17   N1    A    
C55   H42   S    
C18   N2    A    
C20   C26   A    
C65   H51   S    
C28   C30   A    
C17   C19   A    
C15   H16   S    
C63   C68   A    
C9    H11   S    
C62   H49   S    
C37   C41   A    
C52   C53   S    
C19   C25   A    
C47   H19   S    
C41   H8    S    
Cu2   O6    S    
C17   H14   S    
C68   H54   S    
C38   C42   A    
C18   H13   S    
C59   H46   S    
C16   H15   S    
C54   C55   S    
C33   H2    S    
C15   N1    A    
C31   C36   T    
C34   H1    S    
C16   N2    A    
C67   H53   S    
C27   H3    S    
C63   C64   A    
