data_mof_unit_9361.cif
_audit_creation_date              2012-12-10T17:55:28-0500
_audit_creation_method            fapswitch 2.2
_symmetry_space_group_name_H-M    P1
_symmetry_Int_Tables_number       1
_space_group_crystal_system       triclinic
_cell_length_a                    10.821101
_cell_length_b                    9.611421
_cell_length_c                    10.85684
_cell_angle_alpha                 90.692178
_cell_angle_beta                  92.784662
_cell_angle_gamma                 90.375819
_cell_volume                      1127.73368261

loop_
_atom_site_label
_atom_site_type_symbol
_atom_type_description
_atom_site_fract_x
_atom_site_fract_y
_atom_site_fract_z
_atom_type_partial_charge
C1    C     C_R   0.262982 0.500354 0.509238 0.756503
C2    C     C_R   0.737283 0.500945 0.491694 0.754013
C3    C     C_R   0.500008 0.499075 0.265518 0.904878
C4    C     C_R   0.495326 0.501039 0.734512 0.915275
C5    C     C_2   0.430855 0.405518 0.930403 0.366295
C6    C     C_2   0.415804 0.427993 0.063942 0.392040
C7    C     C_2   0.483065 0.507436 0.866669 -0.468573
C8    C     C_2   0.504086 0.495203 0.133189 -0.442637
C9    C     C_R   0.062857 0.377567 0.503533 -0.187926
C10   C     C_R   0.935620 0.378185 0.490628 -0.190999
C11   C     C_R   0.871937 0.504298 0.485090 -0.153774
C12   C     C_R   0.128713 0.502665 0.517825 -0.159318
C13   C     C_R   0.939165 0.631557 0.485514 0.012302
C14   C     C_R   0.063965 0.629598 0.527964 0.012544
C15   C     C_R   0.436123 0.073023 0.408690 0.463656
C16   C     C_R   0.564575 0.076787 0.591073 0.458172
C17   C     C_R   0.438166 0.924601 0.407689 -0.028752
C18   C     C_R   0.562298 0.927788 0.592161 -0.058704
Cu1   Cu    Cu3+1 0.500000 0.640660 0.500000 0.922517
Cu2   Cu    Cu3+1 0.500000 0.359340 0.500000 1.018400
H1    H     H_    0.510424 0.605289 0.911437 0.156609
H2    H     H_    0.584877 0.541092 0.093867 0.111017
H3    H     H_    0.109084 0.278435 0.505299 0.159732
H4    H     H_    0.887678 0.279234 0.481657 0.161637
N1    N     N_R   0.500000 0.852070 0.500000 -0.283285
N2    N     N_R   0.500000 0.147940 0.500000 -0.259759
O1    O     O_R   0.319640 0.618740 0.499990 -0.630904
O2    O     O_R   0.680360 0.618740 0.500010 -0.628320
O3    O     O_R   0.319620 0.381170 0.499990 -0.578101
O4    O     O_R   0.680380 0.381170 0.500010 -0.585451
O5    O     O_R   0.500000 0.618750 0.321940 -0.593642
O6    O     O_R   0.500000 0.618750 0.678060 -0.600195
O7    O     O_R   0.499970 0.381180 0.321940 -0.508982
O8    O     O_R   0.500030 0.381180 0.678060 -0.483090
O9    O     O_3   0.371700 0.294793 0.868043 -0.561431
C19   C     C_3   0.413913 0.167243 0.917183 0.141988
H5    H     H_    0.399535 0.159361 0.017431 0.190736
H6    H     H_    0.514097 0.153987 0.902174 0.200091
C20   C     C_3   0.341935 0.048663 0.852458 -0.669449
H7    H     H_    0.374186 0.947403 0.889708 0.238130
H8    H     H_    0.241717 0.059258 0.868045 0.229434
H9    H     H_    0.355578 0.050450 0.751800 0.244864
O10   O     O_3   0.313836 0.371509 0.118168 -0.566367
C21   C     C_3   0.216026 0.468735 0.114253 0.061824
H10   H     H_    0.247143 0.579668 0.110992 0.137119
H11   H     H_    0.165809 0.458640 0.200533 0.151601
C22   C     C_3   0.125151 0.436284 0.005818 -0.776194
H12   H     H_    0.095037 0.325685 0.008131 0.252051
H13   H     H_    0.042649 0.503757 0.011253 0.201571
H14   H     H_    0.168905 0.456258 0.917334 0.258628
C23   C     C_2   0.888282 0.757348 0.421068 0.367972
H15   H     H_    0.796346 0.757104 0.377327 0.100421
O11   O     O_2   0.952544 0.859989 0.405640 -0.541296
C24   C     C_2   0.118277 0.749786 0.601804 0.387321
H16   H     H_    0.211968 0.747089 0.641295 0.092194
O12   O     O_2   0.055422 0.849421 0.629446 -0.536144
O13   O     O_3   0.375947 0.141776 0.311637 -0.523670
C25   C     C_3   0.246338 0.145302 0.326466 0.133347
H17   H     H_    0.219419 0.255785 0.330580 0.186522
H18   H     H_    0.215255 0.093441 0.411262 0.100886
C26   C     C_3   0.174042 0.084012 0.214003 -0.719955
H19   H     H_    0.078015 0.124465 0.210869 0.200186
H20   H     H_    0.217538 0.113310 0.127606 0.279173
H21   H     H_    0.167689 0.969238 0.219293 0.233973
O14   O     O_3   0.618190 0.150352 0.690827 -0.544814
C27   C     C_3   0.749058 0.144854 0.693077 0.097516
H22   H     H_    0.784326 0.239759 0.651095 0.175743
H23   H     H_    0.787069 0.053489 0.643701 0.124644
C28   C     C_3   0.800598 0.146892 0.826181 -0.772734
H24   H     H_    0.773140 0.051452 0.874437 0.277076
H25   H     H_    0.903237 0.152636 0.828064 0.212302
H26   H     H_    0.765535 0.239176 0.875879 0.233831
C29   C     C_2   0.373308 0.850151 0.304239 0.476255
H27   H     H_    0.306310 0.769369 0.320954 0.071986
O15   O     O_2   0.395551 0.877724 0.197996 -0.555600
C30   C     C_2   0.626782 0.855646 0.695184 0.467207
H28   H     H_    0.694850 0.776825 0.677738 0.094065
O16   O     O_2   0.602958 0.882702 0.801500 -0.576178

loop_
_geom_bond_atom_site_label_1
_geom_bond_atom_site_label_2
_ccdc_geom_bond_type
C27   H23   S    
C28   H26   S    
C29   O15   D    
C29   H27   S    
Cu1   Cu2   S    
Cu1   O5    S    
C22   H13   S    
Cu2   O4    S    
C18   N1    A    
C19   H5    S    
C30   O16   D    
C5    C6    S    
C27   C28   S    
C3    O7    A    
C25   H18   S    
C28   H25   S    
C26   H20   S    
C13   C23   S    
O9    C19   S    
C8    H2    S    
C20   H9    S    
Cu1   O1    S    
C9    C10   A    
C21   C22   S    
Cu2   O8    S    
C25   C26   S    
C27   H22   S    
C13   C14   A    
C17   C29   S    
C15   O13   S    
C26   H19   S    
C1    C12   S    
C4    C7    S    
C2    C11   S    
C21   H11   S    
C22   H14   S    
C24   O12   D    
Cu2   O3    S    
C16   N2    A    
C4    O8    A    
C23   H15   S    
C30   H28   S    
C20   H8    S    
C3    C8    S    
C20   H7    S    
C5    C7    D    
C9    H3    S    
C15   N2    A    
C6    C8    D    
C10   H4    S    
C25   H17   S    
C7    H1    S    
C23   O11   D    
C26   H21   S    
O10   C21   S    
C22   H12   S    
Cu1   O6    S    
C1    O3    A    
C3    O5    A    
Cu1   O2    S    
C4    O6    A    
Cu2   O7    S    
C14   C24   S    
C12   C14   A    
C6    O10   S    
C21   H10   S    
C15   C17   A    
C24   H16   S    
C18   C30   S    
C19   C20   S    
C2    O4    A    
C17   N1    A    
C19   H6    S    
C11   C13   A    
O13   C25   S    
Cu2   N2    S    
C5    O9    S    
C28   H24   S    
Cu1   N1    S    
C9    C12   A    
C10   C11   A    
C16   C18   A    
O14   C27   S    
C1    O1    A    
C2    O2    A    
C16   O14   S    
