data_mof_unit_24510.cif
_audit_creation_date              2013-03-05T15:53:04-0500
_audit_creation_method            fapswitch 2.2
_symmetry_space_group_name_H-M    P1
_symmetry_Int_Tables_number       1
_space_group_crystal_system       triclinic
_cell_length_a                    6.949667
_cell_length_b                    20.461623
_cell_length_c                    24.375626
_cell_angle_alpha                 89.683051
_cell_angle_beta                  90.332319
_cell_angle_gamma                 89.267639
_cell_volume                      3465.85382687

loop_
_atom_site_label
_atom_site_type_symbol
_atom_site_description
_atom_site_fract_x
_atom_site_fract_y
_atom_site_fract_z
_atom_type_partial_charge
O1    O     O_R   0.507320 0.423560 0.460500 -0.589116
O2    O     O_R   0.170760 0.556250 0.437010 -0.584992
O3    O     O_R   0.004030 0.576440 0.539500 -0.588096
C1    C     C_R   0.338743 0.576397 0.421037 0.978226
O4    O     O_R   0.177370 0.422820 0.454110 -0.590028
O5    O     O_R   0.010680 0.442050 0.556720 -0.589127
C2    C     C_R   0.347100 0.398878 0.443541 0.930796
O6    O     O_R   0.500680 0.557950 0.443280 -0.588346
O7    O     O_3   0.340380 0.506470 0.533650 -0.270981
V1    V     V_3+5 0.064130 0.498800 0.493760 1.186887
O8    O     O_R   0.681160 0.443750 0.562990 -0.591332
C3    C     C_R   0.850934 0.423780 0.578917 0.980242
O9    O     O_R   0.674560 0.577180 0.545890 -0.590211
C4    C     C_R   0.842397 0.601001 0.556842 0.957269
V2    V     V_3+5 0.564560 0.501200 0.506240 1.184827
O10   O     O_3   0.838180 0.493530 0.466350 -0.270128
C5    C     C_R   0.977412 0.836806 0.912489 -0.250953
C6    C     C_R   0.846130 0.661744 0.589292 -0.163595
C7    C     C_R   0.024455 0.718902 0.909773 0.302857
C8    C     C_R   0.013022 0.777468 0.939607 0.206839
C9    C     C_R   0.942827 0.837325 0.855841 -0.246182
C10   C     C_R   0.950181 0.779041 0.824234 0.080345
C11   C     C_R   0.005449 0.719642 0.851400 -0.170462
C12   C     C_R   0.907539 0.778447 0.766344 0.094817
C13   C     C_R   0.933090 0.719802 0.735375 0.038761
C14   C     C_R   0.008393 0.664465 0.762763 -0.276707
C15   C     C_R   0.044597 0.663660 0.818989 0.380836
C16   C     C_R   0.836341 0.834465 0.738592 -0.181404
C17   C     C_R   0.794738 0.833829 0.682870 -0.126891
C18   C     C_R   0.816987 0.776973 0.651825 0.028974
C19   C     C_R   0.885667 0.718606 0.677723 0.111741
C20   C     C_R   0.767527 0.777127 0.595394 0.346862
C21   C     C_R   0.781271 0.719783 0.565034 -0.213288
C22   C     C_R   0.898862 0.661039 0.645032 -0.222931
H1    H     H_    0.942123 0.614283 0.661801 0.118348
H2    H     H_    0.738829 0.720300 0.522173 0.155508
H3    H     H_    0.740752 0.878781 0.664634 0.196697
H4    H     H_    0.917301 0.884662 0.837485 0.126217
H5    H     H_    0.045585 0.620463 0.741100 0.165235
H6    H     H_    0.806596 0.879978 0.758969 0.147151
C23   C     C_3   0.843510 0.307582 0.769109 -0.113714
C24   C     C_3   0.033353 0.273426 0.787640 0.351726
H7    H     H_    0.787198 0.354872 0.784817 0.185381
H8    H     H_    0.230892 0.267030 0.708335 0.171916
C25   C     C_1   0.960706 0.121912 0.875576 -0.203625
C26   C     C_1   0.863700 0.378495 0.624790 -0.291377
C27   C     C_3   0.739287 0.240839 0.772746 -0.195715
C28   C     C_3   0.929887 0.207470 0.791403 -0.065578
C29   C     C_3   0.790565 0.226916 0.711758 -0.222602
C30   C     C_3   0.895855 0.292889 0.708878 0.092253
C31   C     C_3   0.980311 0.194694 0.731330 0.362667
C32   C     C_3   0.087362 0.259912 0.727074 -0.339790
C33   C     C_1   0.947588 0.160378 0.837614 0.190141
C34   C     C_1   0.877163 0.340141 0.662851 0.081811
H9    H     H_    0.691801 0.207124 0.680169 0.172121
H10   H     H_    0.596201 0.233059 0.791532 0.199312
C35   C     C_3   0.478932 0.717961 0.205509 -0.172879
C36   C     C_3   0.286396 0.704663 0.234849 0.387836
H11   H     H_    0.533345 0.691540 0.168980 0.208556
H12   H     H_    0.101891 0.802336 0.226687 0.203977
C37   C     C_1   0.348496 0.621977 0.375043 -0.275363
C38   C     C_1   0.475591 0.877913 0.124811 -0.198636
C39   C     C_3   0.581512 0.720823 0.262319 -0.242891
C40   C     C_3   0.387932 0.707630 0.290934 0.016780
C41   C     C_3   0.537263 0.795020 0.264772 0.390478
C42   C     C_3   0.435733 0.792049 0.208699 0.012191
C43   C     C_3   0.344738 0.781730 0.294110 -0.205429
C44   C     C_3   0.242162 0.778864 0.237301 -0.215670
C45   C     C_1   0.363690 0.660430 0.337014 0.119145
C46   C     C_1   0.460174 0.839338 0.162723 0.156764
H13   H     H_    0.290318 0.808177 0.330622 0.194099
H14   H     H_    0.721815 0.697360 0.272911 0.198403
C47   C     C_R   0.469102 0.162330 0.088457 -0.354946
C48   C     C_R   0.360584 0.338268 0.411457 -0.109017
C49   C     C_R   0.497558 0.280535 0.091025 0.279550
C50   C     C_R   0.512057 0.221566 0.062232 0.196518
C51   C     C_R   0.419538 0.161667 0.144618 0.201781
C52   C     C_R   0.436519 0.219887 0.176524 0.014030
C53   C     C_R   0.458662 0.280038 0.147932 -0.096220
C54   C     C_R   0.432287 0.221156 0.235473 0.110314
C55   C     C_R   0.408091 0.281834 0.263867 0.049132
C56   C     C_R   0.410441 0.339987 0.232781 -0.191204
C57   C     C_R   0.443325 0.339038 0.176688 -0.051204
C58   C     C_R   0.473045 0.164748 0.266986 -0.112191
C59   C     C_R   0.463269 0.165188 0.323833 -0.206451
C60   C     C_R   0.421529 0.222764 0.351922 0.144932
C61   C     C_R   0.395038 0.282413 0.322657 0.109500
C62   C     C_R   0.415202 0.221443 0.409461 -0.129010
C63   C     C_R   0.386535 0.278775 0.438921 -0.156123
C64   C     C_R   0.361977 0.340146 0.353788 -0.225338
H15   H     H_    0.456320 0.385656 0.155953 0.186194
H16   H     H_    0.338782 0.387270 0.334734 0.109826
H17   H     H_    0.387190 0.276904 0.483358 0.123647
H18   H     H_    0.493828 0.120207 0.346125 0.167664
H19   H     H_    0.399498 0.387642 0.251109 0.142631
H20   H     H_    0.525588 0.120331 0.248443 0.190902
H21   H     H_    0.436751 0.175998 0.431834 0.144237
O11   O     O_R   0.323550 0.942140 0.056770 -0.571697
O12   O     O_R   0.647080 0.077200 0.045890 -0.585605
O13   O     O_R   0.813610 0.057920 0.943260 -0.585808
C65   C     C_R   0.477652 0.101155 0.056551 1.105759
O14   O     O_R   0.653470 0.943760 0.063000 -0.582751
O15   O     O_R   0.820050 0.923540 0.960490 -0.590884
C66   C     C_R   0.485468 0.923613 0.078943 1.010395
O16   O     O_R   0.317110 0.076520 0.039540 -0.568743
O17   O     O_3   0.483830 0.993580 0.966380 -0.285791
V3    V     V_3+5 0.760140 0.001190 0.006240 1.252875
O18   O     O_R   0.149510 0.922740 0.954070 -0.590224
C67   C     C_R   0.981624 0.898842 0.943298 1.015517
O19   O     O_R   0.143120 0.056170 0.936970 -0.589011
C68   C     C_R   0.973391 0.076358 0.921212 0.980832
V4    V     V_3+5 0.259690 0.998700 0.993700 1.252606
O20   O     O_3   0.986130 0.006420 0.033620 -0.250598
Br1   Br    Br    0.174334 0.585379 0.844924 -0.333927
Br2   Br    Br    0.674796 0.853750 0.556991 -0.465985
Br3   Br    Br    0.208722 0.307567 0.842099 -0.386798
N1    N     N_R   0.055342 0.133564 0.709154 0.248516
O21   O     O_R   0.092656 0.129271 0.657081 -0.359594
O22   O     O_R   0.086111 0.083254 0.740976 -0.395831
Br4   Br    Br    0.102695 0.639513 0.212535 -0.471058
Br5   Br    Br    0.720916 0.860265 0.286931 -0.497060
N2    N     N_R   0.524960 0.340974 0.062258 0.258468
O23   O     O_R   0.694082 0.355824 0.043673 -0.269163
O24   O     O_R   0.378887 0.379729 0.052313 -0.282395
Br6   Br    Br    0.570908 0.223128 0.984870 -0.382503
Br7   Br    Br    0.286338 0.085105 0.171260 -0.534433
N3    N     N_R   0.036977 0.658730 0.939910 0.277694
O25   O     O_R   0.187559 0.645355 0.970115 -0.247843
O26   O     O_R   0.889332 0.620315 0.941535 -0.261084
Br8   Br    Br    0.037943 0.776130 0.018607 -0.419980

loop_
_geom_bond_atom_site_label_1
_geom_bond_atom_site_label_2
_geom_bond_distance
_ccdc_geom_bond_type
C13   C19   1.441977 A    
C42   C44   1.544882 S    
C39   C41   1.546719 S    
C49   N2    1.433650 S    
C23   C24   1.548926 S    
C4    C6    1.477361 S    
O2    C1    1.303920 A    
C7    C8    1.406805 A    
C35   C42   1.544111 S    
C1    O6    1.297223 A    
C21   H2    1.083916 S    
C55   C56   1.407452 A    
C27   C29   1.557702 S    
O17   V4    1.699858 S    
C51   C52   1.432046 A    
C14   C15   1.391987 A    
C30   C34   1.481067 S    
C48   C63   1.395186 A    
C16   C17   1.387222 A    
N1    O22   1.300289 A    
O5    C3    1.296275 A    
C18   C19   1.423451 A    
C60   C62   1.403620 A    
C14   H5    1.075730 S    
C35   H11   1.109989 S    
O17   V3    2.154847 S    
C16   H6    1.076149 S    
V2    O10   2.145121 S    
C5    C8    1.397824 A    
O18   C67   1.296852 A    
C38   C46   1.218079 T    
C22   H1    1.076856 S    
C58   H20   1.077779 S    
O19   C68   1.300025 A    
V3    O20   1.707762 S    
O8    V2    1.974010 S    
C28   C31   1.530743 S    
C9    H4    1.076901 S    
C41   C43   1.547200 S    
C30   C32   1.546033 S    
O1    V2    1.988902 S    
C11   C15   1.419447 A    
O7    V1    2.154906 S    
C43   H13   1.109964 S    
C62   H21   1.083687 S    
C54   C58   1.407747 A    
H8    C32   1.110457 S    
C47   C65   1.478066 S    
C25   C33   1.213754 T    
O1    C2    1.295032 A    
O9    C4    1.296814 A    
C65   O16   1.296983 A    
C50   Br6   1.932075 S    
C23   H7    1.110056 S    
V4    O20   2.145153 S    
C35   C39   1.555573 S    
C2    C48   1.472096 S    
C38   C66   1.456074 S    
C36   C40   1.536708 S    
C28   C33   1.481825 S    
O11   V4    1.964459 S    
C31   C32   1.539426 S    
C40   C43   1.544317 S    
C12   C13   1.430902 A    
C3    C26   1.449865 S    
O4    C2    1.299190 A    
C52   C53   1.421567 A    
C29   C31   1.538898 S    
C13   C14   1.405012 A    
C29   H9    1.110160 S    
C1    C37   1.456815 S    
C5    C9    1.400164 A    
C43   C44   1.555532 S    
C7    C11   1.428217 A    
C49   C50   1.402028 A    
N3    O26   1.301155 A    
C17   C18   1.398742 A    
C59   H18   1.084252 S    
C64   H16   1.077793 S    
C27   C28   1.547271 S    
C36   C44   1.546786 S    
C26   C34   1.214267 T    
C36   Br4   1.935529 S    
C23   C27   1.556369 S    
C19   C22   1.428058 A    
O14   V3    1.964907 S    
C24   C28   1.539793 S    
C40   C45   1.488995 S    
C58   C59   1.387808 A    
O14   C66   1.303824 A    
C6    C22   1.405146 A    
C59   C60   1.394052 A    
C55   C61   1.436551 A    
O3    C4    1.298646 A    
C24   Br3   1.936194 S    
O12   C65   1.297850 A    
O16   V4    1.993496 S    
C56   C57   1.387768 A    
O6    V2    1.964672 S    
C41   Br5   1.935603 S    
O9    V2    1.993479 S    
C47   C50   1.403470 A    
C10   C12   1.440366 A    
N2    O24   1.300989 A    
N3    O25   1.301390 A    
O2    V1    1.964875 S    
C23   C30   1.544834 S    
C57   H15   1.082087 S    
C37   C45   1.218468 T    
O13   V3    1.959646 S    
C56   H19   1.076813 S    
C60   C61   1.419706 A    
C12   C16   1.410428 A    
C8    Br8   1.932443 S    
C54   C55   1.433301 A    
C5    C67   1.478961 S    
O5    V1    1.959477 S    
O8    C3    1.300150 A    
C25   C68   1.448918 S    
O12   V3    1.991131 S    
O15   C67   1.298143 A    
C20   C21   1.393240 A    
C48   C64   1.406124 A    
O7    V2    1.701148 S    
O4    V1    1.991139 S    
O3    V1    1.987301 S    
V1    O10   1.707852 S    
N1    O21   1.300217 A    
C18   C20   1.415872 A    
C35   C36   1.547312 S    
C42   C46   1.488438 S    
O11   C66   1.296869 A    
C7    N3    1.431660 S    
C39   H14   1.109785 S    
C31   N1    1.456961 S    
C52   C54   1.437747 A    
C41   C42   1.536421 S    
C20   Br2   1.923707 S    
C63   H17   1.083628 S    
C6    C21   1.392336 A    
O19   V4    1.973828 S    
C39   C40   1.545117 S    
C53   C57   1.402521 A    
C15   Br1   1.929629 S    
O18   V4    1.993410 S    
C62   C63   1.391593 A    
H12   C44   1.109800 S    
O13   C68   1.295991 A    
C29   C30   1.545131 S    
C61   C64   1.424469 A    
C17   H3    1.081244 S    
C47   C51   1.413607 A    
C10   C11   1.428088 A    
O15   V3    1.987333 S    
N2    O23   1.301058 A    
C9    C10   1.423908 A    
C49   C53   1.414779 A    
C51   Br7   1.940506 S    
C24   C32   1.550851 S    
C27   H10   1.110123 S    
