data_mof_unit_54563.cif
_audit_creation_date              2013-03-05T15:49:57-0500
_audit_creation_method            fapswitch 2.2
_symmetry_space_group_name_H-M    P1
_symmetry_Int_Tables_number       1
_space_group_crystal_system       triclinic
_cell_length_a                    6.939274
_cell_length_b                    19.868233
_cell_length_c                    23.771398
_cell_angle_alpha                 93.400244
_cell_angle_beta                  91.334504
_cell_angle_gamma                 88.248102
_cell_volume                      3269.33268859

loop_
_atom_site_label
_atom_site_type_symbol
_atom_site_description
_atom_site_fract_x
_atom_site_fract_y
_atom_site_fract_z
_atom_type_partial_charge
O1    O     O_R   0.620100 0.812200 0.810870 -0.606201
O2    O     O_R   0.379900 0.187800 0.189130 -0.606288
O3    O     O_R   0.296960 0.671650 0.794750 -0.594888
O4    O     O_R   0.703040 0.328350 0.205250 -0.594412
O5    O     O_R   0.120160 0.687800 0.689130 -0.571409
O6    O     O_R   0.879840 0.312200 0.310870 -0.571600
C1    C     C_R   0.469117 0.647050 0.804866 0.977278
C2    C     C_R   0.530880 0.352940 0.195122 0.977732
O7    O     O_R   0.290810 0.810670 0.817290 -0.582827
O8    O     O_R   0.709190 0.189330 0.182710 -0.582899
O9    O     O_R   0.113980 0.827820 0.711840 -0.587121
O10   O     O_R   0.886020 0.172180 0.288160 -0.587925
C3    C     C_R   0.459302 0.831719 0.834317 0.943437
C4    C     C_R   0.540698 0.168281 0.165683 0.943092
O11   O     O_R   0.626290 0.672180 0.788160 -0.588997
O12   O     O_R   0.373710 0.327820 0.211840 -0.588792
O13   O     O_3   0.451520 0.755460 0.715370 -0.235757
O14   O     O_3   0.548480 0.244540 0.284630 -0.236149
V1    V     V_3+5 0.179200 0.748980 0.756420 1.238321
V2    V     V_3+5 0.820800 0.251020 0.243580 1.238519
O15   O     O_R   0.783880 0.828350 0.705250 -0.593801
O16   O     O_R   0.216120 0.171650 0.294750 -0.593128
C5    C     C_R   0.948886 0.853144 0.695155 0.945677
C6    C     C_R   0.051138 0.146779 0.304739 0.944948
O17   O     O_R   0.790030 0.689320 0.682700 -0.572141
O18   O     O_R   0.209970 0.310680 0.317300 -0.573544
C7    C     C_R   0.959626 0.669383 0.665007 1.012675
C8    C     C_R   0.040388 0.330511 0.335064 1.014403
V3    V     V_3+5 0.678400 0.751010 0.743570 1.235574
V4    V     V_3+5 0.321600 0.248990 0.256430 1.235257
O19   O     O_3   0.955950 0.744540 0.784620 -0.271402
O20   O     O_3   0.044050 0.255460 0.215380 -0.271137
C9    C     C_R   0.161209 0.429526 0.392231 -0.148878
C10   C     C_R   0.838988 0.570105 0.608098 -0.137524
C11   C     C_R   0.028583 0.377991 0.385623 -0.334109
C12   C     C_R   0.971475 0.621733 0.614569 -0.324837
C13   C     C_R   0.881585 0.374039 0.425628 0.337770
C14   C     C_R   0.118763 0.625425 0.574645 0.334978
C15   C     C_R   0.869988 0.421952 0.472710 -0.173562
C16   C     C_R   0.129297 0.577574 0.527594 -0.186717
C17   C     C_R   0.002754 0.475345 0.477140 -0.042790
C18   C     C_R   0.994094 0.524965 0.522542 -0.021906
C19   C     C_R   0.147516 0.478481 0.436763 0.115964
C20   C     C_R   0.851337 0.521357 0.563293 0.162994
C21   C     C_R   0.731738 0.417646 0.515630 0.621559
C22   C     C_R   0.268844 0.580742 0.485036 0.597140
C23   C     C_R   0.725204 0.467792 0.560204 -0.383120
C24   C     C_R   0.278913 0.530468 0.441297 -0.363450
H1    H     H_    0.272554 0.432771 0.361288 0.156041
H2    H     H_    0.728985 0.566595 0.639410 0.149067
H3    H     H_    0.624762 0.464107 0.593992 0.154024
H4    H     H_    0.391157 0.532428 0.410500 0.170090
C25   C     C_R   0.941952 0.915078 0.663553 -0.121117
C26   C     C_R   0.058365 0.084795 0.336257 -0.121905
C27   C     C_R   0.806258 0.027601 0.654655 -0.096977
C28   C     C_R   0.199424 0.973127 0.345653 -0.101509
C29   C     C_R   0.842188 0.971874 0.686431 -0.183074
C30   C     C_R   0.160278 0.028366 0.313570 -0.182131
C31   C     C_R   0.008004 0.914853 0.608072 -0.185184
C32   C     C_R   0.991868 0.084867 0.391676 -0.179786
C33   C     C_R   0.970350 0.970872 0.573999 0.082343
C34   C     C_R   0.032260 0.029257 0.426005 0.078164
C35   C     C_R   0.865652 0.027495 0.598444 -0.012578
C36   C     C_R   0.141042 0.973395 0.401960 -0.021014
C37   C     C_R   0.028316 0.971907 0.516361 0.001030
C38   C     C_R   0.975079 0.028292 0.483725 -0.000572
C39   C     C_R   0.866004 0.081940 0.509768 -0.335428
C40   C     C_R   0.138143 0.918373 0.490391 -0.349825
C41   C     C_R   0.817872 0.083080 0.566501 0.556484
C42   C     C_R   0.196683 0.919296 0.434737 0.574901
H5    H     H_    0.919039 0.130431 0.407414 0.158448
H6    H     H_    0.078850 0.868997 0.592138 0.158873
H7    H     H_    0.214850 0.027900 0.271192 0.119419
H8    H     H_    0.787801 0.972446 0.728835 0.119092
H9    H     H_    0.726908 0.070333 0.674040 0.170190
H10   H     H_    0.281597 0.930885 0.326560 0.172939
H11   H     H_    0.812898 0.124219 0.487125 0.186051
H12   H     H_    0.184827 0.874718 0.512310 0.183810
C43   C     C_R   0.490059 0.585157 0.836051 -0.189012
C44   C     C_R   0.509927 0.414822 0.163921 -0.189486
C45   C     C_R   0.583687 0.466428 0.836752 0.417543
C46   C     C_R   0.416201 0.533539 0.163192 0.415482
C47   C     C_R   0.559902 0.525946 0.808327 -0.293776
C48   C     C_R   0.439997 0.474030 0.191628 -0.290800
C49   C     C_R   0.460007 0.586528 0.894204 -0.074863
C50   C     C_R   0.540026 0.413438 0.105768 -0.075086
C51   C     C_R   0.503126 0.529042 0.925603 0.096997
C52   C     C_R   0.496910 0.470917 0.074358 0.097399
C53   C     C_R   0.538701 0.466682 0.894895 -0.243103
C54   C     C_R   0.461279 0.533278 0.105057 -0.243068
C55   C     C_R   0.503791 0.530947 0.986099 -0.141079
C56   C     C_R   0.496282 0.469006 0.013861 -0.141203
C57   C     C_R   0.479699 0.407637 0.980061 0.205504
C58   C     C_R   0.520392 0.592316 0.019897 0.205741
C59   C     C_R   0.509608 0.406330 0.921652 0.480901
C60   C     C_R   0.490418 0.593628 0.078302 0.479809
H13   H     H_    0.599012 0.367284 0.085954 0.153148
H14   H     H_    0.401057 0.632682 0.914029 0.153107
H15   H     H_    0.404782 0.473946 0.235819 0.154492
H16   H     H_    0.595055 0.526034 0.764132 0.153604
C61   C     C_R   0.671403 0.067684 0.108656 -0.096771
C62   C     C_R   0.328597 0.932317 0.891343 -0.096921
C63   C     C_R   0.530243 0.119228 0.116177 -0.175030
C64   C     C_R   0.469756 0.880773 0.883823 -0.175053
C65   C     C_R   0.376296 0.123095 0.076935 -0.103560
C66   C     C_R   0.623703 0.876906 0.923064 -0.103602
C67   C     C_R   0.359485 0.075418 0.030623 -0.018055
C68   C     C_R   0.640515 0.924583 0.969376 -0.018079
C69   C     C_R   0.504591 0.023863 0.023328 0.020204
C70   C     C_R   0.495409 0.976138 0.976671 0.020189
C71   C     C_R   0.659784 0.020162 0.062599 0.155019
C72   C     C_R   0.340216 0.979839 0.937400 0.155134
C73   C     C_R   0.204679 0.078562 0.990623 0.335303
C74   C     C_R   0.795323 0.921440 0.009375 0.335127
C75   C     C_R   0.197911 0.030933 0.944595 -0.316822
C76   C     C_R   0.802091 0.969069 0.055403 -0.315950
H17   H     H_    0.790081 0.064378 0.138965 0.117014
H18   H     H_    0.209920 0.935623 0.861034 0.116925
H19   H     H_    0.273266 0.164672 0.082525 0.191195
H20   H     H_    0.726732 0.835328 0.917475 0.191203
H21   H     H_    0.078381 0.033332 0.914513 0.173355
H22   H     H_    0.921622 0.966671 0.085485 0.173670
O21   O     O_3   0.491300 0.345804 0.890184 -0.556541
C77   C     C_3   0.299831 0.341450 0.869083 0.075670
H23   H     H_    0.263802 0.381728 0.839681 0.095000
H24   H     H_    0.194302 0.343472 0.903725 0.147492
H25   H     H_    0.284931 0.292243 0.845046 0.173474
O22   O     O_3   0.508716 0.654153 0.109771 -0.556771
C78   C     C_3   0.700165 0.658499 0.130889 0.081126
H26   H     H_    0.805735 0.656463 0.096257 0.146272
H27   H     H_    0.736134 0.618225 0.160300 0.095281
H28   H     H_    0.715066 0.707710 0.154920 0.175134
N1    N     N_R   0.664322 0.407559 0.806841 0.253286
O23   O     O_R   0.803045 0.372512 0.829987 -0.363418
O24   O     O_R   0.622821 0.395480 0.753595 -0.414694
N2    N     N_R   0.335447 0.592403 0.193082 0.254307
O25   O     O_R   0.196800 0.627447 0.169894 -0.360165
O26   O     O_R   0.376739 0.604479 0.246341 -0.408381
N3    N     N_R   0.407800 0.347967 0.002704 0.229387
O27   O     O_R   0.492832 0.289475 0.991905 -0.317133
O28   O     O_R   0.246276 0.351102 0.029626 -0.391524
N4    N     N_R   0.592373 0.651975 0.997259 0.229344
O29   O     O_R   0.753888 0.648817 0.970332 -0.391510
O30   O     O_R   0.507408 0.710480 0.008057 -0.316912
N5    N     N_R   0.053316 0.129520 0.995478 0.247804
O31   O     O_R   0.962877 0.140625 0.042575 -0.408297
O32   O     O_R   0.983516 0.156459 0.950475 -0.333820
N6    N     N_R   0.946689 0.870483 0.004520 0.247806
O33   O     O_R   0.037122 0.859378 0.957421 -0.408325
O34   O     O_R   0.016497 0.843546 0.049522 -0.332526
N7    N     N_R   0.744281 0.321697 0.417686 0.267850
O35   O     O_R   0.568753 0.336194 0.401058 -0.377776
O36   O     O_R   0.799082 0.258999 0.421972 -0.436020
N8    N     N_R   0.255683 0.677929 0.582191 0.259248
O37   O     O_R   0.200108 0.740490 0.577511 -0.454493
O38   O     O_R   0.429276 0.664054 0.600818 -0.358314
O39   O     O_3   0.622120 0.360111 0.516683 -0.590449
C79   C     C_3   0.431792 0.374643 0.534554 -0.096283
H29   H     H_    0.373750 0.423983 0.520950 0.110639
H30   H     H_    0.424842 0.372813 0.581055 0.130460
H31   H     H_    0.336818 0.335152 0.515512 0.180125
O40   O     O_3   0.403743 0.630658 0.487146 -0.595101
C80   C     C_3   0.348732 0.678529 0.447835 -0.045510
H32   H     H_    0.200438 0.699616 0.455525 0.136184
H33   H     H_    0.359620 0.656652 0.403821 0.128412
H34   H     H_    0.448879 0.721026 0.452756 0.176056
O41   O     O_3   0.706427 0.136409 0.589454 -0.625388
C81   C     C_3   0.822656 0.193217 0.598650 -0.138072
H35   H     H_    0.867099 0.212775 0.558182 0.162325
H36   H     H_    0.951633 0.181825 0.625610 0.123680
H37   H     H_    0.736920 0.233957 0.621214 0.191821
O42   O     O_3   0.304630 0.865196 0.411701 -0.623048
C82   C     C_3   0.499098 0.872979 0.428918 -0.244152
H38   H     H_    0.518353 0.868794 0.475191 0.155221
H39   H     H_    0.555088 0.921714 0.416293 0.141630
H40   H     H_    0.587399 0.831863 0.407777 0.182964

loop_
_geom_bond_atom_site_label_1
_geom_bond_atom_site_label_2
_geom_bond_distance
_ccdc_geom_bond_type
V4    O20   2.142521 S    
O39   C79   1.412957 S    
C28   H10   1.083108 S    
C51   C55   1.436230 A    
O13   V3    1.698596 S    
C17   C18   1.418988 A    
C62   C72   1.405187 A    
C80   H32   1.114096 S    
C39   H11   1.075458 S    
C43   C49   1.401358 A    
O4    C2    1.299522 A    
V1    O19   1.709062 S    
O22   C78   1.412532 S    
C64   C66   1.405124 A    
N5    O31   1.300366 A    
C25   C31   1.405993 A    
O21   C77   1.412535 S    
C15   C17   1.423793 A    
C26   C32   1.405868 A    
C82   H38   1.112690 S    
C16   C22   1.421976 A    
C65   C67   1.414199 A    
O9    V1    1.978061 S    
C76   H22   1.084249 S    
C75   H21   1.084248 S    
C1    C43   1.474802 S    
C11   C13   1.417734 A    
N6    O34   1.301316 A    
C78   H26   1.112829 S    
O3    C1    1.299514 A    
C69   C71   1.411783 A    
V2    O20   1.709062 S    
C50   C52   1.421635 A    
C6    C26   1.477972 S    
C60   O22   1.385638 S    
O17   V3    1.994948 S    
C32   C34   1.429197 A    
C68   C74   1.420345 A    
O9    C5    1.300078 A    
C33   C35   1.422425 A    
C50   H13   1.079394 S    
O7    C3    1.301369 A    
C67   C73   1.420346 A    
C44   C50   1.401395 A    
C49   H14   1.079396 S    
C79   H31   1.109261 S    
N5    O32   1.301313 A    
O5    C7    1.293826 A    
O7    V1    1.997818 S    
C81   H37   1.109386 S    
O6    C8    1.293991 A    
C52   C56   1.436255 A    
C8    C11   1.485414 S    
O8    V2    1.997819 S    
C43   C47   1.393275 A    
C27   C35   1.407336 A    
C34   C36   1.421973 A    
N7    O35   1.300937 A    
C28   C36   1.407133 A    
O3    V1    1.978168 S    
C71   C76   1.400320 A    
O14   V4    1.698596 S    
C36   C42   1.404074 A    
C28   C30   1.389735 A    
C19   C24   1.396308 A    
N8    O38   1.300945 A    
C62   H18   1.084583 S    
C20   C23   1.395979 A    
C44   C48   1.393265 A    
C31   H6    1.074981 S    
C15   C21   1.424642 A    
C78   H28   1.109122 S    
C27   H9    1.083129 S    
C40   C42   1.394260 A    
C81   H36   1.114035 S    
C38   C39   1.409433 A    
C2    O12   1.293652 A    
C79   H30   1.110379 S    
C17   C19   1.410709 A    
C18   C20   1.407885 A    
C13   N7    1.433125 S    
C45   C47   1.399933 A    
O11   V3    1.989152 S    
C21   C23   1.411261 A    
C40   H12   1.075777 S    
C22   C24   1.399846 A    
C10   H2    1.085112 S    
C31   C33   1.429127 A    
C34   C38   1.438536 A    
C49   C51   1.421617 A    
C58   N4    1.438229 S    
C35   C41   1.404099 A    
C80   H34   1.109013 S    
C10   C20   1.398804 A    
N6    O33   1.300365 A    
N2    O26   1.301465 A    
O8    C4    1.301370 A    
O41   C81   1.410814 S    
C25   C29   1.394778 A    
O13   V1    2.157647 S    
C23   H3    1.082788 S    
C32   H5    1.074962 S    
O15   V3    1.998140 S    
C39   C41   1.395626 A    
C9    C19   1.397354 A    
C29   H8    1.083843 S    
C53   C59   1.412223 A    
C58   C60   1.407251 A    
C41   O41   1.385437 S    
C57   N3    1.438219 S    
N1    O23   1.301574 A    
C16   C18   1.423737 A    
V3    O19   2.142523 S    
C37   C40   1.409853 A    
C2    C44   1.474810 S    
O10   V2    1.978063 S    
O1    V3    1.992602 S    
C21   O39   1.394058 S    
C63   C65   1.405126 A    
C3    C64   1.484691 S    
C62   C64   1.401907 A    
N8    O37   1.300447 A    
C82   H39   1.114222 S    
C77   H25   1.109126 S    
C42   O42   1.384330 S    
C81   H35   1.112216 S    
C52   C54   1.418187 A    
O18   V4    1.994948 S    
C46   C48   1.399919 A    
C47   H16   1.084162 S    
C27   C29   1.390020 A    
C79   H29   1.111388 S    
O16   C6    1.293222 A    
O1    C3    1.297301 A    
C14   N8    1.433029 S    
O12   V4    1.989152 S    
C12   C14   1.417305 A    
C55   C56   1.433401 A    
N4    O30   1.301683 A    
O42   C82   1.411379 S    
C77   H24   1.112827 S    
O40   C80   1.410751 S    
C26   C30   1.394821 A    
C82   H40   1.109220 S    
C59   O21   1.385642 S    
O16   V4    1.998139 S    
C66   H20   1.080046 S    
C48   H15   1.084158 S    
C45   N1    1.437552 S    
C73   N5    1.438178 S    
N2    O25   1.301574 A    
C74   C76   1.404412 A    
N3    O27   1.301683 A    
C54   C60   1.412206 A    
O5    V1    1.993320 S    
C7    C12   1.485175 S    
C61   C71   1.405187 A    
O6    V2    1.993319 S    
O10   C6    1.300026 A    
O18   C8    1.301310 A    
C46   C54   1.423696 A    
C61   C63   1.401904 A    
O2    V4    1.992601 S    
C61   H17   1.084584 S    
O15   C5    1.293309 A    
C45   C53   1.423723 A    
C13   C15   1.427754 A    
C69   C70   1.417368 A    
C55   C58   1.426010 A    
C14   C16   1.426052 A    
N3    O28   1.301607 A    
C4    C63   1.484688 S    
C67   C69   1.420271 A    
C66   C68   1.414197 A    
C5    C25   1.478226 S    
C1    O11   1.293653 A    
C56   C57   1.426019 A    
C9    C11   1.397096 A    
C10   C12   1.397644 A    
C68   C70   1.420271 A    
O14   V2    2.157647 S    
N7    O36   1.300409 A    
C46   N2    1.437557 S    
O2    C4    1.297301 A    
C70   C72   1.411783 A    
C74   N6    1.438178 S    
O4    V2    1.978167 S    
C33   C37   1.438418 A    
C24   H4    1.084414 S    
C57   C59   1.407282 A    
C37   C38   1.434490 A    
C22   O40   1.382395 S    
N1    O24   1.301466 A    
C51   C53   1.418189 A    
N4    O29   1.301607 A    
C65   H19   1.080045 S    
C80   H33   1.112237 S    
C78   H27   1.112378 S    
C9    H1    1.085046 S    
C72   C75   1.400320 A    
C30   H7    1.083855 S    
C77   H23   1.112377 S    
C73   C75   1.404415 A    
O17   C7    1.301391 A    
