data_mof_unit_35123.cif
_audit_creation_date              2013-03-05T16:07:30-0500
_audit_creation_method            fapswitch 2.2
_symmetry_space_group_name_H-M    P1
_symmetry_Int_Tables_number       1
_space_group_crystal_system       triclinic
_cell_length_a                    10.90676
_cell_length_b                    10.775306
_cell_length_c                    9.616274
_cell_angle_alpha                 89.834428
_cell_angle_beta                  91.617443
_cell_angle_gamma                 90.210172
_cell_volume                      1129.67760205

loop_
_atom_site_label
_atom_site_type_symbol
_atom_site_description
_atom_site_fract_x
_atom_site_fract_y
_atom_site_fract_z
_atom_type_partial_charge
O1    O     O_R   0.499990 0.319660 0.618740 -0.588445
O2    O     O_R   0.500010 0.680340 0.381260 -0.602491
O3    O     O_R   0.499990 0.319630 0.381170 -0.576941
O4    O     O_R   0.500010 0.680370 0.618830 -0.580469
C1    C     C_R   0.498794 0.262882 0.500137 0.883261
C2    C     C_R   0.501229 0.737048 0.499881 0.766679
O5    O     O_R   0.319650 0.500020 0.618780 -0.536901
O6    O     O_R   0.680350 0.499980 0.381220 -0.559045
O7    O     O_R   0.319640 0.500000 0.381210 -0.582880
O8    O     O_R   0.680360 0.500000 0.618790 -0.586012
C3    C     C_R   0.262370 0.505467 0.497662 0.926595
C4    C     C_R   0.737675 0.495342 0.502293 0.828693
Cu1   Cu    Cu3+1 0.500000 0.500020 0.640660 0.971324
Cu2   Cu    Cu3+1 0.500000 0.499980 0.359340 0.967255
H1    H     H_    0.249058 0.486031 0.874021 0.206084
H2    H     H_    0.750559 0.513018 0.125478 0.201849
C5    C     C_R   0.182961 0.589311 0.047651 0.004330
C6    C     C_R   0.817416 0.410243 0.951908 -0.009980
C7    C     C_R   0.129131 0.580239 0.177401 -0.088592
C8    C     C_R   0.871359 0.419707 0.822245 -0.071448
H3    H     H_    0.107649 0.663613 0.234552 0.181934
H4    H     H_    0.893188 0.336502 0.764968 0.180032
C9    C     C_R   0.108233 0.464049 0.238212 0.010984
C10   C     C_R   0.891900 0.536085 0.761680 0.035145
C11   C     C_R   0.138154 0.355530 0.166977 -0.092479
C12   C     C_R   0.861562 0.644371 0.833063 -0.126072
H5    H     H_    0.124882 0.265541 0.214870 0.177616
H6    H     H_    0.874606 0.734480 0.785368 0.157487
C13   C     C_R   0.185074 0.362783 0.033449 0.445947
C14   C     C_R   0.814389 0.636723 0.966417 0.452790
C15   C     C_R   0.208308 0.480221 0.974695 -0.288066
C16   C     C_R   0.791505 0.519124 0.024934 -0.296486
C17   C     C_R   0.932238 0.443033 0.391723 0.375185
C18   C     C_R   0.067790 0.557637 0.608178 0.361704
C19   C     C_R   0.872386 0.491004 0.506593 -0.170176
C20   C     C_R   0.127645 0.509826 0.493250 -0.148298
C21   C     C_R   0.941415 0.539417 0.620467 -0.144543
C22   C     C_R   0.058637 0.461191 0.379428 -0.110871
C23   C     C_R   0.602283 0.065918 0.448884 0.400239
C24   C     C_R   0.398820 0.933982 0.552502 0.351459
C25   C     C_R   0.602331 0.935852 0.446452 -0.083510
C26   C     C_R   0.398119 0.063411 0.553253 -0.057497
C27   C     C_R   0.500805 0.871023 0.499286 -0.257679
C28   C     C_R   0.499425 0.128845 0.500634 -0.257781
C29   C     C_R   0.493596 0.391598 0.073929 -0.024341
C30   C     C_R   0.506430 0.608396 0.926073 -0.027064
H7    H     H_    0.487841 0.303728 0.127537 0.161302
H8    H     H_    0.512214 0.696265 0.872466 0.159602
C31   C     C_R   0.494216 0.391580 0.926273 -0.048457
C32   C     C_R   0.505763 0.608417 0.073727 -0.053008
H9    H     H_    0.489078 0.303734 0.872734 0.152788
H10   H     H_    0.510855 0.696265 0.127264 0.156491
N1    N     N_R   0.500030 0.500030 0.852070 -0.176199
N2    N     N_R   0.499970 0.499970 0.147930 -0.176792
C33   C     C_2   0.217519 0.711926 0.990970 0.382390
H11   H     H_    0.270532 0.718001 0.897517 0.127056
O9    O     O_2   0.188347 0.807863 0.048477 -0.499131
C34   C     C_2   0.783289 0.287452 0.008450 0.392938
H12   H     H_    0.730218 0.281106 0.101850 0.132794
O10   O     O_2   0.812895 0.191680 0.950901 -0.496181
O11   O     O_3   0.209972 0.254108 0.964526 -0.707517
H13   H     H_    0.241008 0.275002 0.871363 0.325931
O12   O     O_3   0.788799 0.745176 0.035370 -0.679125
H14   H     H_    0.757263 0.723932 0.128191 0.328784
O13   O     O_3   0.864921 0.376012 0.294568 -0.747885
H15   H     H_    0.919150 0.314641 0.251681 0.339865
O14   O     O_3   0.135096 0.624473 0.705486 -0.757786
H16   H     H_    0.080800 0.685607 0.748690 0.335293
O15   O     O_3   0.705225 0.128273 0.403625 -0.649999
H17   H     H_    0.708539 0.213422 0.441602 0.323401
O16   O     O_3   0.296319 0.872478 0.600513 -0.728914
H18   H     H_    0.292827 0.786608 0.564698 0.342333
C35   C     C_2   0.711276 0.866877 0.395906 0.473039
H19   H     H_    0.724194 0.769645 0.421384 0.011630
O17   O     O_2   0.787855 0.917030 0.324306 -0.437206
C36   C     C_2   0.287078 0.126778 0.605201 0.424178
H20   H     H_    0.231567 0.081840 0.682727 0.154627
O18   O     O_2   0.253154 0.226631 0.558421 -0.584761

loop_
_geom_bond_atom_site_label_1
_geom_bond_atom_site_label_2
_geom_bond_distance
_ccdc_geom_bond_type
C33   H11   1.083945 S    
C24   O16   1.387125 S    
C18   C21   1.399793 A    
C35   O17   1.220951 D    
C35   H19   1.084074 S    
C17   O13   1.376500 S    
C23   C25   1.401757 A    
O5    C3    1.307315 A    
C32   N2    1.369618 A    
O1    C1    1.295521 A    
C3    C20   1.469747 S    
C19   C21   1.411371 A    
C10   C12   1.400872 A    
C34   O10   1.221196 D    
O4    Cu1   1.954028 S    
C5    C7    1.396875 A    
C6    C34   1.479343 S    
C24   C27   1.413879 A    
C8    C10   1.401074 A    
C31   H9    1.079347 S    
C32   H10   1.079347 S    
C5    C33   1.479369 S    
C18   C20   1.399822 A    
O11   H13   0.991590 S    
C24   C26   1.394727 A    
C14   O12   1.378596 S    
C25   C27   1.412911 A    
O2    C2    1.295322 A    
C26   C28   1.413429 A    
Cu1   N1    2.032968 S    
C29   H7    1.079232 S    
C11   C13   1.397493 A    
C13   O11   1.378864 S    
O14   H16   0.987709 S    
C36   H20   1.085382 S    
O4    C2    1.295492 A    
C34   H12   1.084032 S    
C7    C9    1.400923 A    
O7    Cu2   1.984249 S    
C29   C31   1.420109 A    
O6    C4    1.306807 A    
C10   C21   1.475775 S    
C23   O15   1.386297 S    
C4    C19   1.469592 S    
O7    C3    1.299152 A    
O3    Cu2   1.954027 S    
O8    C4    1.299372 A    
Cu2   N2    2.032968 S    
C1    C28   1.444327 S    
C8    H4    1.084290 S    
C29   N2    1.369766 A    
C12   C14   1.397240 A    
C2    C27   1.443634 S    
C33   O9    1.221200 D    
C11   H5    1.083254 S    
C5    C15   1.403021 A    
O1    Cu1   1.955437 S    
O6    Cu2   1.972340 S    
C7    H3    1.084296 S    
C26   C36   1.491551 S    
C36   O18   1.219688 D    
O3    C1    1.295996 A    
O8    Cu1   1.984248 S    
C18   O14   1.376375 S    
H1    C15   1.078163 S    
C23   C28   1.415983 A    
H2    C16   1.078134 S    
C9    C22   1.476057 S    
C30   C32   1.420105 A    
C12   H6    1.083258 S    
C17   C22   1.399957 A    
C20   C22   1.411760 A    
O16   H18   0.988455 S    
C13   C15   1.409368 A    
C14   C16   1.409309 A    
C31   N1    1.369652 A    
C30   N1    1.369732 A    
C17   C19   1.399997 A    
C6    C8    1.396951 A    
C9    C11   1.401113 A    
O15   H17   0.988663 S    
O2    Cu2   1.955437 S    
C25   C35   1.497238 S    
O12   H14   0.991462 S    
C30   H8    1.079234 S    
O5    Cu1   1.972341 S    
C6    C16   1.402814 A    
O13   H15   0.987638 S    
Cu1   Cu2   2.705252 S    
