data_mof_unit_43663.cif
_audit_creation_date              2012-12-11T15:36:30-0500
_audit_creation_method            fapswitch 2.2
_symmetry_space_group_name_H-M    P1
_symmetry_Int_Tables_number       1
_space_group_crystal_system       triclinic
_cell_length_a                    15.057237
_cell_length_b                    15.05361
_cell_length_c                    34.869819
_cell_angle_alpha                 91.456252
_cell_angle_beta                  91.881303
_cell_angle_gamma                 60.111529
_cell_volume                      6848.49884093

loop_
_atom_site_label
_atom_site_type_symbol
_atom_type_description
_atom_site_fract_x
_atom_site_fract_y
_atom_site_fract_z
_atom_type_partial_charge
C1    C     C_R   0.610331 0.303374 0.443789 0.545925
C2    C     C_R   0.622005 0.070621 0.760135 0.068411
C3    C     C_R   0.085827 0.769424 0.885022 -0.121293
C4    C     C_R   0.114323 0.756069 0.846912 -0.116683
C5    C     C_R   0.124959 0.670708 0.826022 0.028616
C6    C     C_R   0.114397 0.594860 0.844398 -0.119908
C7    C     C_R   0.085795 0.608166 0.882592 -0.123675
C8    C     C_R   0.212305 0.573930 0.767122 -0.132950
C9    C     C_R   0.226355 0.570358 0.727784 -0.112414
C10   C     C_R   0.166512 0.657650 0.705579 0.057700
C11   C     C_R   0.090608 0.747684 0.722584 -0.062533
C12   C     C_R   0.077310 0.751650 0.761965 -0.090246
C13   C     C_R   0.603244 0.150919 0.786825 -0.002280
C14   C     C_R   0.651451 0.755626 0.162637 -0.118586
C15   C     C_R   0.139012 0.665200 0.784503 0.026045
C16   C     C_R   0.226169 0.713116 0.649004 0.059028
C17   C     C_R   0.252154 0.698284 0.610311 -0.127862
C18   C     C_R   0.199221 0.570618 0.603359 -0.130379
C19   C     C_R   0.170141 0.586464 0.641391 -0.149089
C20   C     C_R   0.186204 0.654606 0.664698 -0.003332
C21   C     C_R   0.243916 0.623637 0.588002 -0.005915
C22   C     C_R   0.674607 0.076019 0.905433 0.022887
C23   C     C_R   0.594373 0.067074 0.887439 -0.112534
C24   C     C_R   0.553433 0.184786 0.638559 -0.117171
C25   C     C_R   0.566310 0.096601 0.849209 -0.075265
C26   C     C_2   0.236940 0.830708 0.335526 0.576972
C27   C     C_2   0.421414 0.561381 0.271990 0.563942
C28   C     C_3   0.812198 0.284634 0.177661 -0.294407
C29   C     C_3   0.425952 0.595294 0.787970 -0.305806
C30   C     C_2   0.249920 0.783668 0.672138 0.548605
C31   C     C_2   0.653281 0.964476 0.771806 0.552631
C32   C     C_3   0.467963 0.889016 0.334137 -0.292728
C33   C     C_R   0.814174 0.598619 0.156117 -0.124001
C34   C     C_R   0.556264 0.211060 0.600655 -0.122719
C35   C     C_R   0.685098 0.256874 0.619091 -0.121776
C36   C     C_R   0.680795 0.232458 0.657002 -0.117039
C37   C     C_R   0.612920 0.199047 0.667129 0.027840
C38   C     C_R   0.620085 0.250042 0.590832 0.023560
C39   C     C_R   0.045918 0.739088 0.048414 0.539748
C40   C     C_R   0.733422 0.667933 0.179022 0.031268
C41   C     C_R   0.746759 0.745912 0.063715 0.544153
C42   C     C_R   0.751141 0.040649 0.050675 0.541942
C43   C     C_R   0.017266 0.722218 0.939855 0.547801
C44   C     C_R   0.717357 0.730126 0.954773 0.544631
C45   C     C_R   0.816319 0.620923 0.117645 -0.128078
C46   C     C_R   0.721481 0.024148 0.941974 0.546087
C47   C     C_R   0.744463 0.564057 0.235351 -0.105882
C48   C     C_R   0.733006 0.557739 0.274558 -0.103895
C49   C     C_R   0.713855 0.640667 0.298952 0.022265
C50   C     C_R   0.712714 0.727045 0.284471 -0.122885
C51   C     C_R   0.618952 0.134260 0.828619 0.054722
C52   C     C_R   0.723225 0.733749 0.245381 -0.120982
C53   C     C_R   0.736141 0.653618 0.220513 0.030607
C54   C     C_R   0.584490 0.711572 0.350974 0.165173
C55   C     C_R   0.592556 0.609665 0.449106 0.547159
C56   C     C_R   0.558023 0.704916 0.388406 -0.074151
C57   C     C_R   0.728542 0.562419 0.401195 -0.137257
C58   C     C_R   0.756280 0.568680 0.364107 -0.146794
C59   C     C_R   0.684600 0.641431 0.338651 0.032716
C60   C     C_R   0.628582 0.629077 0.413338 -0.010057
C61   C     C_R   0.106747 0.728230 0.083760 0.022049
C62   C     C_R   0.693017 0.150823 0.847560 -0.109505
C63   C     C_R   0.169238 0.631196 0.099928 -0.124041
C64   C     C_R   0.206230 0.622612 0.137700 -0.118644
C65   C     C_R   0.179713 0.710940 0.159940 0.030633
C66   C     C_R   0.123601 0.807588 0.142975 -0.119145
C67   C     C_R   0.305763 0.590613 0.441859 0.547967
C68   C     C_R   0.088289 0.816182 0.105015 -0.130136
C69   C     C_R   0.296906 0.638619 0.217226 -0.119622
C70   C     C_R   0.313839 0.625602 0.257165 0.086674
C71   C     C_R   0.227962 0.676105 0.281471 0.043276
C72   C     C_R   0.130241 0.740669 0.265677 -0.113043
C73   C     C_R   0.720446 0.122235 0.885604 -0.121212
C74   C     C_R   0.115773 0.754585 0.226254 -0.111426
C75   C     C_R   0.198550 0.702644 0.201763 -0.001210
C76   C     C_R   0.240047 0.574947 0.337863 -0.121269
C77   C     C_R   0.253830 0.555004 0.377067 -0.121996
C78   C     C_R   0.252125 0.715179 0.388433 -0.125666
C79   C     C_R   0.605504 0.300764 0.553746 0.541471
C80   C     C_R   0.240185 0.735685 0.348929 0.078675
C81   C     C_R   0.236545 0.662796 0.323392 0.038327
C82   C     C_R   0.263400 0.623294 0.402612 -0.004066
C83   C     C_R   0.721982 0.102263 0.086375 -0.004763
C84   C     C_R   0.579513 0.247480 0.773255 -0.150625
C85   C     C_R   0.791485 0.125206 0.105762 -0.116671
C86   C     C_R   0.774302 0.162406 0.143677 0.148597
C87   C     C_R   0.687326 0.173998 0.162565 0.048659
C88   C     C_R   0.613434 0.160647 0.141854 -0.158350
C89   C     C_R   0.630422 0.125367 0.104084 -0.140354
C90   C     C_R   0.588766 0.260325 0.221396 -0.121033
C91   C     C_R   0.586830 0.606151 0.559373 0.539098
C92   C     C_R   0.579564 0.265505 0.261172 -0.108941
C93   C     C_R   0.660690 0.195237 0.284760 0.020960
C94   C     C_R   0.750968 0.119511 0.267810 -0.128632
C95   C     C_R   0.579547 0.263759 0.734212 -0.125789
C96   C     C_R   0.760121 0.114442 0.228085 -0.090387
C97   C     C_R   0.679373 0.185145 0.204632 0.041464
C98   C     C_R   0.736240 0.194775 0.349582 -0.114718
C99   C     C_R   0.724842 0.218487 0.388623 -0.118914
C100  C     C_R   0.548816 0.255343 0.383748 -0.118278
C101  C     C_R   0.560311 0.231492 0.344652 -0.111092
C102  C     C_R   0.652961 0.204738 0.326960 0.034919
C103  C     C_R   0.298479 0.589161 0.551809 0.546071
C104  C     C_R   0.629789 0.253089 0.405746 0.022453
C105  C     C_R   0.692204 0.689287 0.919674 0.022761
C106  C     C_R   0.601304 0.184348 0.707819 -0.001989
C107  C     C_R   0.765875 0.595018 0.903869 -0.124544
C108  C     C_R   0.753727 0.567865 0.866304 -0.127976
C109  C     C_R   0.667512 0.634108 0.844034 0.024659
C110  C     C_R   0.590432 0.724714 0.860653 -0.105779
C111  C     C_R   0.602316 0.751821 0.898243 -0.123717
C112  C     C_R   0.576832 0.620176 0.783630 0.159958
C113  C     C_R   0.571236 0.622021 0.743129 -0.075773
C114  C     C_R   0.651948 0.614897 0.721668 -0.005072
C115  C     C_R   0.737014 0.712153 0.101768 0.021703
C116  C     C_R   0.740271 0.603389 0.740571 -0.131560
C117  C     C_R   0.618196 0.089682 0.720690 -0.113389
C118  C     C_R   0.745763 0.604960 0.780463 -0.143736
C119  C     C_R   0.663878 0.616155 0.802270 0.028868
C120  C     C_R   0.720024 0.545232 0.656586 -0.121753
C121  C     C_R   0.705657 0.544697 0.616783 -0.129619
C122  C     C_R   0.540855 0.699733 0.622050 -0.119601
C123  C     C_R   0.554652 0.699330 0.661773 -0.103651
C124  C     C_R   0.642926 0.620531 0.679423 0.027728
C125  C     C_R   0.614440 0.620254 0.599230 0.015548
C126  C     C_R   0.067451 0.697552 0.902699 0.025605
C127  C     C_R   0.652862 0.777338 0.124280 -0.125690
Cr1   Cr    Cr6+3 0.426010 0.422500 0.497000 1.016751
Cr2   Cr    Cr6+3 0.651300 0.426310 0.501970 1.019026
Cr3   Cr    Cr6+3 0.422670 0.651170 0.501050 1.027989
Cr4   Cr    Cr6+3 0.905130 0.911420 0.992650 1.012484
Cr5   Cr    Cr6+3 0.911860 0.682710 0.002320 1.011334
Cr6   Cr    Cr6+3 0.682710 0.906840 0.004710 1.011562
H1    H     H_    0.590303 0.847845 0.112856 0.130666
H2    H     H_    0.881893 0.569134 0.100862 0.124783
H3    H     H_    0.039104 0.803502 0.214718 0.110776
H4    H     H_    0.235943 0.519653 0.318460 0.105319
H5    H     H_    0.262812 0.483367 0.387043 0.128000
H6    H     H_    0.102785 0.876544 0.159726 0.112770
H7    H     H_    0.259656 0.768157 0.408050 0.159166
H8    H     H_    0.861668 0.109444 0.092205 0.118306
H9    H     H_    0.574873 0.109567 0.089676 0.130545
H10   H     H_    0.495556 0.237672 0.327969 0.099080
H11   H     H_    0.509720 0.325697 0.273511 0.136744
H12   H     H_    0.479595 0.754408 0.396978 0.152517
H13   H     H_    0.525463 0.315105 0.203692 0.121710
H14   H     H_    0.833041 0.514912 0.354849 0.115521
H15   H     H_    0.814091 0.063573 0.285250 0.104829
H16   H     H_    0.829598 0.054012 0.215570 0.127307
H17   H     H_    0.808427 0.174787 0.336713 0.111928
H18   H     H_    0.788725 0.215801 0.404834 0.134398
H19   H     H_    0.545989 0.170043 0.155811 0.107786
H20   H     H_    0.474624 0.281637 0.396122 0.125531
H21   H     H_    0.835933 0.545096 0.919643 0.122922
H22   H     H_    0.544431 0.825155 0.909460 0.126665
H23   H     H_    0.877678 0.530242 0.168452 0.103390
H24   H     H_    0.494966 0.759018 0.678879 0.142014
H25   H     H_    0.733986 0.490609 0.285582 0.113982
H26   H     H_    0.504678 0.628487 0.727824 0.131721
H27   H     H_    0.813919 0.497545 0.853963 0.104823
H28   H     H_    0.803240 0.597646 0.724446 0.123160
H29   H     H_    0.812604 0.601904 0.794402 0.127658
H30   H     H_    0.788858 0.483870 0.669712 0.106651
H31   H     H_    0.763449 0.482184 0.600042 0.122877
H32   H     H_    0.523902 0.777510 0.843766 0.140003
H33   H     H_    0.469464 0.758888 0.609566 0.152574
H34   H     H_    0.784069 0.502867 0.419859 0.131262
H35   H     H_    0.073490 0.838404 0.900030 0.125790
H36   H     H_    0.754491 0.501687 0.216430 0.103309
H37   H     H_    0.072375 0.551454 0.895599 0.126881
H38   H     H_    0.139029 0.542089 0.653232 0.117590
H39   H     H_    0.285250 0.500387 0.714733 0.111200
H40   H     H_    0.260344 0.506567 0.784100 0.101661
H41   H     H_    0.124431 0.814237 0.833302 0.116628
H42   H     H_    0.043394 0.815012 0.705467 0.117321
H43   H     H_    0.018633 0.822019 0.774844 0.121185
H44   H     H_    0.287625 0.738643 0.598503 0.168540
H45   H     H_    0.184515 0.562301 0.084138 0.121975
H46   H     H_    0.122420 0.528403 0.828641 0.105474
H47   H     H_    0.587712 0.808959 0.179921 0.112234
H48   H     H_    0.191644 0.513084 0.586593 0.135468
H49   H     H_    0.557672 0.031755 0.902056 0.122101
H50   H     H_    0.781707 0.131168 0.898799 0.126673
H51   H     H_    0.728172 0.242670 0.678721 0.113685
H52   H     H_    0.564855 0.337872 0.724586 0.113740
H53   H     H_    0.564891 0.309493 0.793178 0.110071
H54   H     H_    0.507664 0.085005 0.835099 0.113580
H55   H     H_    0.635698 0.028499 0.699990 0.148032
H56   H     H_    0.039745 0.892023 0.093418 0.126225
H57   H     H_    0.501019 0.158586 0.645937 0.115738
H58   H     H_    0.699265 0.790855 0.303189 0.111821
H59   H     H_    0.505159 0.205434 0.579395 0.121718
H60   H     H_    0.733677 0.180859 0.832244 0.109115
H61   H     H_    0.734212 0.287682 0.612483 0.129551
H62   H     H_    0.718224 0.802745 0.234306 0.108911
H63   H     H_    0.253794 0.907724 0.292380 0.332007
H64   H     H_    0.571219 0.474314 0.259521 0.336062
H65   H     H_    0.919725 0.147484 0.151482 0.239527
H66   H     H_    0.846332 0.321829 0.161085 0.125414
H67   H     H_    0.360200 0.599612 0.197853 0.152875
H68   H     H_    0.836298 0.281346 0.208254 0.152428
H69   H     H_    0.727390 0.333093 0.175484 0.164774
H70   H     H_    0.517164 0.597589 0.833540 0.254746
H71   H     H_    0.374901 0.594183 0.810006 0.145765
H72   H     H_    0.468619 0.517710 0.774703 0.129794
H73   H     H_    0.376453 0.652577 0.766237 0.212098
H74   H     H_    0.274613 0.903788 0.672337 0.338586
H75   H     H_    0.651625 0.833696 0.759186 0.345913
H76   H     H_    0.518266 0.764443 0.296410 0.276641
H77   H     H_    0.406732 0.936679 0.312969 0.149046
H78   H     H_    0.249182 0.547386 0.150402 0.104305
H79   H     H_    0.530400 0.907762 0.332779 0.123432
H80   H     H_    0.434532 0.908349 0.363127 0.169051
H81   H     H_    0.064694 0.779836 0.284051 0.107141
N1    N     N_2   0.848024 0.181290 0.163273 -0.530383
N2    N     N_2   0.496408 0.623872 0.805851 -0.527421
N3    N     N_2   0.506735 0.781706 0.325240 -0.485418
O1    O     O_R   0.324990 0.503440 0.453910 -0.517872
O2    O     O_R   0.675430 0.831160 0.051290 -0.520287
O3    O     O_R   0.698870 0.998880 0.039560 -0.500609
O4    O     O_R   0.522030 0.339050 0.458320 -0.503426
O5    O     O_R   0.811290 0.006780 0.950620 -0.516209
O6    O     O_R   0.980960 0.812920 0.953200 -0.499804
O7    O     O_R   0.001480 0.656720 0.955830 -0.521546
O8    O     O_R   0.809240 0.683250 0.968050 -0.501498
O9    O     O_R   0.652500 0.818540 0.967340 -0.519133
O10   O     O_R   0.677620 0.987170 0.961730 -0.502405
O11   O     O_3   0.833240 0.833660 0.999890 -0.234395
O12   O     O_R   0.639980 0.519500 0.542640 -0.502983
O13   O     O_R   0.676180 0.324490 0.458320 -0.514680
O14   O     O_R   0.643570 0.521510 0.464260 -0.496524
O15   O     O_R   0.504630 0.675350 0.460920 -0.518387
O16   O     O_R   0.339850 0.642450 0.459830 -0.500254
O17   O     O_R   0.321120 0.501280 0.538470 -0.514432
O18   O     O_R   0.518440 0.337050 0.536710 -0.499996
O19   O     O_R   0.672300 0.322330 0.542880 -0.517820
O20   O     O_2   0.216783 0.901459 0.358102 -0.549501
O21   O     O_R   0.258645 0.839475 0.297581 -0.687363
O22   O     O_2   0.440825 0.549871 0.306426 -0.511287
O23   O     O_R   0.500750 0.673190 0.545480 -0.517580
O24   O     O_R   0.501789 0.514942 0.246194 -0.735037
O25   O     O_2   0.267055 0.772163 0.706686 -0.548537
O26   O     O_R   0.256186 0.862001 0.653890 -0.723560
O27   O     O_2   0.705750 0.927785 0.800837 -0.515885
O28   O     O_R   0.625629 0.904702 0.748515 -0.713777
O29   O     O_R   0.336260 0.640450 0.538210 -0.504212
O30   O     O_3   0.499990 0.499990 0.500010 -0.239052
O31   O     O_R   0.834210 0.019400 0.034570 -0.523095
O32   O     O_R   0.002210 0.824620 0.031030 -0.503702
O33   O     O_R   0.024400 0.669340 0.039790 -0.516988
O34   O     O_R   0.830490 0.694950 0.045870 -0.501899

loop_
_geom_bond_atom_site_label_1
_geom_bond_atom_site_label_2
_ccdc_geom_bond_type
C100  H20   S    
C66   C68   A    
C87   C88   A    
C93   C94   A    
C122  H33   S    
C6    H46   S    
C44   O8    A    
C18   C21   A    
C33   C45   A    
C84   H53   S    
C35   C36   A    
C61   C68   A    
C127  H1    S    
C29   N2    S    
C24   H57   S    
Cr3   O29   S    
C33   H23   S    
Cr5   O33   S    
C123  C124  A    
H63   O21   S    
C44   C105  S    
C120  C121  A    
C105  C107  A    
C13   C84   A    
H64   O24   S    
Cr6   O2    S    
C63   H45   S    
C91   O12   A    
C51   C62   A    
C28   H68   S    
C77   C82   A    
C36   C37   A    
C14   C40   A    
C19   H38   S    
C79   O19   A    
C113  C114  A    
C42   O3    A    
Cr5   O11   S    
Cr2   O30   S    
C5    C6    A    
C73   H50   S    
C110  H32   S    
C78   C80   A    
C16   C17   A    
C38   C79   S    
C16   C30   S    
C89   H9    S    
C95   H52   S    
Cr2   O12   S    
C100  C104  A    
C29   H72   S    
C108  C109  A    
C1    O4    A    
C18   C19   A    
C56   H12   S    
C61   C63   A    
C2    C13   A    
C26   O21   S    
C118  C119  A    
C92   C93   A    
C25   H54   S    
C120  H30   S    
C47   H36   S    
C13   C51   S    
C120  C124  A    
C1    O13   A    
C67   O16   A    
C66   H6    S    
C19   C20   A    
C10   C20   S    
C8    C9    A    
C74   H3    S    
C91   O23   A    
C69   H67   S    
C50   C52   A    
C46   O10   A    
Cr6   O11   S    
C64   H78   S    
C70   C71   A    
C36   H51   S    
C9    C10   A    
C90   C97   A    
C32   N3    S    
C35   H61   S    
C49   C59   S    
C47   C53   A    
C114  C124  S    
C28   N1    S    
C23   C25   A    
C99   C104  A    
C105  C111  A    
C115  C127  A    
C29   H71   S    
Cr5   O7    S    
C55   C60   S    
H75   O28   S    
C94   H15   S    
C88   H19   S    
C52   H62   S    
C41   C115  S    
C83   C89   A    
H65   N1    S    
C27   O24   S    
C43   C126  S    
C112  C113  A    
C41   O2    A    
C2    C117  A    
C3    H35   S    
C54   C59   A    
Cr1   O17   S    
C39   C61   S    
C54   C56   A    
C45   H2    S    
C28   H66   S    
C74   C75   A    
Cr2   O19   S    
C27   O22   D    
Cr6   O3    S    
C101  C102  A    
C55   O14   A    
C116  H28   S    
C62   H60   S    
C35   C38   A    
Cr6   O9    S    
C23   H49   S    
C72   C74   A    
C10   C11   A    
C85   H8    S    
C8    H40   S    
C80   C81   A    
C57   C60   A    
C123  H24   S    
C18   H48   S    
C58   C59   A    
C76   H4    S    
C121  H31   S    
C99   H18   S    
Cr2   O13   S    
C26   C80   S    
C29   H73   S    
C110  C111  A    
C2    C31   S    
C84   C95   A    
C33   C40   A    
C76   C81   A    
C43   O6    A    
C25   C51   A    
C121  C125  A    
C95   C106  A    
H74   O26   S    
C58   H14   S    
C32   H77   S    
C45   C115  A    
C90   C92   A    
C47   C48   A    
C39   O32   A    
C12   C15   A    
Cr3   O15   S    
C16   C20   A    
Cr3   O23   S    
C96   C97   A    
C41   O34   A    
C24   C37   A    
C62   C73   A    
C113  H26   S    
C94   C96   A    
C50   H58   S    
C1    C104  S    
C85   C86   A    
C27   C70   S    
C86   C87   A    
C57   H34   S    
C32   H80   S    
C48   C49   A    
C83   C85   A    
C49   C50   A    
C8    C15   A    
C30   O26   S    
C106  C117  A    
Cr3   O30   S    
C111  H22   S    
C65   C66   A    
C3    C126  A    
C107  C108  A    
C3    C4    A    
Cr1   O1    S    
C42   O31   A    
C86   N1    S    
C52   C53   A    
C109  C119  S    
C54   N3    S    
C103  O29   A    
C98   H17   S    
C17   H44   S    
C31   O27   D    
C118  H29   S    
C91   C125  S    
C22   C46   S    
C34   C38   A    
Cr1   O30   S    
C55   O15   A    
C67   O1    A    
C42   C83   S    
Cr6   O10   S    
C4    C5    A    
C78   C82   A    
C117  H55   S    
C78   H7    S    
C93   C102  S    
C112  C119  A    
C114  C116  A    
C11   C12   A    
C40   C53   S    
C6    C7    A    
C108  H27   S    
C103  O17   A    
Cr2   O14   S    
Cr3   O16   S    
C11   H42   S    
C46   O5    A    
C12   H43   S    
C77   H5    S    
C64   C65   A    
C122  C125  A    
C34   H59   S    
C43   O7    A    
Cr1   O4    S    
C28   H69   S    
C71   C72   A    
C90   H13   S    
C98   C102  A    
H70   N2    S    
C76   C77   A    
C101  H10   S    
C26   O20   D    
C57   C58   A    
Cr4   O11   S    
C39   O33   A    
C48   H25   S    
C68   H56   S    
Cr1   O18   S    
C32   H79   S    
C96   H16   S    
C100  C101  A    
C4    H41   S    
C116  C118  A    
C69   C75   A    
Cr4   O5    S    
C112  N2    S    
C7    C126  A    
C69   C70   A    
C92   H11   S    
C24   C34   A    
C5    C15   S    
C107  H21   S    
Cr4   O31   S    
C14   C127  A    
C79   O18   A    
C63   C64   A    
C21   C103  S    
C56   C60   A    
C37   C106  S    
C88   C89   A    
C67   C82   S    
C98   C99   A    
C30   O25   D    
C7    H37   S    
C109  C110  A    
C22   C23   A    
C31   O28   S    
C9    H39   S    
Cr4   O6    S    
C22   C73   A    
C87   C97   S    
C122  C123  A    
Cr5   O8    S    
C44   O9    A    
C14   H47   S    
C65   C75   S    
Cr4   O32   S    
Cr5   O34   S    
C72   H81   S    
H76   N3    S    
C71   C81   S    
C17   C21   A    
