data_mof_unit_47207.cif
_audit_creation_date              2012-12-10T18:46:14-0500
_audit_creation_method            fapswitch 2.2
_symmetry_space_group_name_H-M    P1
_symmetry_Int_Tables_number       1
_space_group_crystal_system       triclinic
_cell_length_a                    9.861346
_cell_length_b                    10.660506
_cell_length_c                    13.14247
_cell_angle_alpha                 90.293281
_cell_angle_beta                  69.76464
_cell_angle_gamma                 89.812614
_cell_volume                      1296.31752769

loop_
_atom_site_label
_atom_site_type_symbol
_atom_type_description
_atom_site_fract_x
_atom_site_fract_y
_atom_site_fract_z
_atom_type_partial_charge
C1    C     C_R   0.501570 0.739856 0.496644 0.892182
C2    C     C_R   0.430339 0.472979 0.984655 0.079015
C3    C     C_R   0.460865 0.439199 0.875303 0.085555
C4    C     C_R   0.541443 0.459289 0.028956 0.081922
C5    C     C_R   0.671165 0.394278 0.970444 0.170468
C6    C     C_R   0.689216 0.344229 0.868554 -0.245480
C7    C     C_R   0.585109 0.365804 0.821608 -0.193013
C8    C     C_R   0.528103 0.511020 0.129251 -0.247817
C9    C     C_R   0.757482 0.421473 0.120725 -0.174107
C10   C     C_R   0.367264 0.481804 0.822108 -0.117001
C11   C     C_R   0.627612 0.936528 0.430025 0.147933
C12   C     C_R   0.419794 0.492963 0.704151 0.845480
C13   C     C_R   0.625961 0.065392 0.433989 -0.181588
C14   C     C_R   0.501062 0.127881 0.497972 -0.063787
C15   C     C_R   0.376175 0.064227 0.557961 -0.181284
C16   C     C_R   0.377356 0.935641 0.556075 -0.203333
C17   C     C_R   0.502934 0.872312 0.493346 -0.073407
C18   C     C_R   0.961797 0.425149 0.429552 0.440645
C19   C     C_R   0.105125 0.425382 0.429778 -0.114470
C20   C     C_R   0.039091 0.574706 0.570454 -0.093470
C21   C     C_R   0.895346 0.574729 0.570400 -0.114800
C22   C     C_R   0.500116 0.260130 0.499937 0.880396
C23   C     C_R   0.580275 0.500023 0.295566 0.898263
C24   C     C_R   0.779776 0.378438 0.015806 -0.202248
C25   C     C_R   0.628714 0.484106 0.178571 -0.061306
C26   C     C_R   0.230067 0.529366 0.882618 -0.205340
C27   C     C_R   0.190137 0.543380 0.994256 -0.120639
C28   C     C_R   0.290144 0.519016 0.044945 -0.160035
H1    H     H_    0.837045 0.400763 0.157908 0.211279
H2    H     H_    0.720405 0.116738 0.385204 0.216940
H3    H     H_    0.279472 0.113869 0.607315 0.155688
H4    H     H_    0.281464 0.885612 0.604734 0.156534
H5    H     H_    0.186217 0.365751 0.373696 0.171986
H6    H     H_    0.067247 0.634478 0.626816 0.136565
H7    H     H_    0.814894 0.634604 0.626690 0.158109
H8    H     H_    0.784950 0.290167 0.824287 0.153188
H9    H     H_    0.878992 0.328647 0.971915 0.151015
H10   H     H_    0.436547 0.569191 0.173069 0.156539
H11   H     H_    0.155430 0.559282 0.843299 0.157588
H12   H     H_    0.253736 0.533895 0.131528 0.148411
H13   H     H_    0.083527 0.578654 0.041069 0.164074
H14   H     H_    0.602375 0.323234 0.743205 0.174162
N1    N     N_R   0.142790 0.500030 0.500030 -0.101811
N2    N     N_R   0.857180 0.499940 0.500010 -0.102752
O1    O     O_R   0.385370 0.683250 0.500010 -0.617845
O2    O     O_R   0.614700 0.683220 0.500010 -0.591802
O3    O     O_R   0.328400 0.499990 0.653620 -0.618586
O4    O     O_R   0.557730 0.499960 0.653620 -0.620508
O5    O     O_R   0.385300 0.316780 0.499990 -0.620033
O6    O     O_R   0.614630 0.316750 0.499990 -0.584271
O7    O     O_R   0.442270 0.500040 0.346380 -0.622309
O8    O     O_R   0.671600 0.500010 0.346380 -0.559916
Zn1   Zn    Zn3+2 0.346870 0.500020 0.500000 0.952726
Zn2   Zn    Zn3+2 0.653130 0.499980 0.500000 1.007466
Cl1   Cl    Cl    0.921343 0.326762 0.337076 -0.661026
I1    I     I_    0.817208 0.849066 0.320840 -0.340146

loop_
_geom_bond_atom_site_label_1
_geom_bond_atom_site_label_2
_ccdc_geom_bond_type
C2    C4    A    
C6    H8    S    
C9    C24   A    
C15   H3    S    
C6    C7    A    
C21   H7    S    
C18   N2    A    
C16   H4    S    
C21   N2    A    
C4    C8    A    
C27   H13   S    
C1    C17   S    
O2    Zn2   S    
C9    H1    S    
C12   O4    A    
C20   H6    S    
C10   C26   A    
C12   O3    A    
C24   H9    S    
C23   O8    A    
O1    Zn1   S    
C3    C10   A    
C13   C14   A    
C20   C21   A    
O4    Zn2   S    
C8    C25   A    
C11   C13   A    
C1    O1    A    
C26   C27   A    
O6    Zn2   S    
C5    C24   A    
C10   C12   S    
C8    H10   S    
C22   O5    A    
O5    Zn1   S    
O3    Zn1   S    
C18   Cl1   S    
C19   N1    A    
C2    C3    A    
C3    C7    A    
C23   C25   S    
C5    C6    A    
C26   H11   S    
C1    O2    A    
C28   H12   S    
C9    C25   A    
C15   C16   A    
N2    Zn2   S    
C22   O6    A    
C4    C5    A    
C20   N1    A    
C13   H2    S    
C14   C22   S    
C18   C19   A    
C19   H5    S    
C7    H14   S    
C27   C28   A    
C14   C15   A    
C11   C17   A    
C2    C28   A    
C23   O7    A    
N1    Zn1   S    
C11   I1    S    
O8    Zn2   S    
C16   C17   A    
O7    Zn1   S    
