data_mof_unit_16541.cif
_audit_creation_date              2012-12-10T17:05:18-0500
_audit_creation_method            fapswitch 2.2
_symmetry_space_group_name_H-M    P1
_symmetry_Int_Tables_number       1
_space_group_crystal_system       triclinic
_cell_length_a                    10.031324
_cell_length_b                    10.701901
_cell_length_c                    15.53214
_cell_angle_alpha                 90.117225
_cell_angle_beta                  67.810727
_cell_angle_gamma                 90.232381
_cell_volume                      1543.939591

loop_
_atom_site_label
_atom_site_type_symbol
_atom_type_description
_atom_site_fract_x
_atom_site_fract_y
_atom_site_fract_z
_atom_type_partial_charge
C1    C     C_R   0.499142 0.737563 0.502313 0.925494
C2    C     C_R   0.427568 0.549013 0.907759 0.095790
C3    C     C_R   0.290114 0.600005 0.958824 0.173681
C4    C     C_R   0.534633 0.545781 0.946524 0.070896
C5    C     C_R   0.494967 0.573789 0.041927 0.066831
C6    C     C_R   0.357184 0.625710 0.091389 -0.216088
C7    C     C_R   0.257429 0.640060 0.049789 -0.233980
C8    C     C_R   0.680519 0.517868 0.892593 -0.221407
C9    C     C_R   0.780794 0.503889 0.933634 -0.234683
C10   C     C_R   0.737912 0.513191 0.029640 0.176196
C11   C     C_R   0.594353 0.547633 0.084540 0.093797
C12   C     C_R   0.409994 0.501081 0.675907 0.861902
C13   C     C_R   0.835580 0.484763 0.071873 -0.208122
C14   C     C_R   0.790129 0.484098 0.168423 -0.180188
C15   C     C_R   0.551283 0.544949 0.181035 -0.226859
C16   C     C_2   0.615758 0.066855 0.487496 -0.335513
C17   C     C_2   0.521363 0.134490 0.464906 0.305470
C18   C     C_2   0.620751 0.933183 0.480625 -0.094821
C19   C     C_2   0.497242 0.869890 0.509216 -0.242360
C20   C     C_2   0.106105 0.428782 0.446117 -0.095408
C21   C     C_2   0.958351 0.434295 0.442346 -0.134811
C22   C     C_R   0.504001 0.262877 0.492870 0.835365
C23   C     C_R   0.590075 0.501803 0.324141 0.921229
C24   C     C_R   0.356148 0.519270 0.776336 -0.054358
C25   C     C_R   0.646473 0.510915 0.223010 -0.042870
C26   C     C_R   0.187908 0.611319 0.917537 -0.218231
C27   C     C_R   0.221825 0.573087 0.825755 -0.205690
C28   C     C_R   0.453247 0.500658 0.819605 -0.251804
H1    H     H_    0.153503 0.680917 0.089504 0.157885
H2    H     H_    0.945404 0.458539 0.030424 0.149564
H3    H     H_    0.680878 0.108602 0.522300 0.167432
H4    H     H_    0.724863 0.887317 0.457699 0.180960
H5    H     H_    0.393535 0.916180 0.537250 0.183289
H6    H     H_    0.182218 0.363188 0.400122 0.196096
H7    H     H_    0.079566 0.565524 0.539023 0.159969
H8    H     H_    0.939436 0.378825 0.389501 0.163559
H9    H     H_    0.867437 0.545931 0.552249 0.164855
H10   H     H_    0.440932 0.562438 0.225223 0.159964
H11   H     H_    0.865457 0.458493 0.200180 0.157303
H12   H     H_    0.891013 0.480842 0.890384 0.149158
H13   H     H_    0.083861 0.653211 0.955190 0.148331
H14   H     H_    0.145708 0.589262 0.792754 0.155242
H15   H     H_    0.550527 0.449613 0.782103 0.154763
H16   H     H_    0.325098 0.660318 0.161555 0.160718
H17   H     H_    0.721139 0.509374 0.817872 0.147409
N1    N     N_2   0.148330 0.498670 0.499030 -0.193193
N2    N     N_2   0.852680 0.498640 0.499000 -0.189186
O1    O     O_R   0.386950 0.680940 0.500010 -0.598816
O2    O     O_R   0.613110 0.680900 0.499990 -0.618459
O3    O     O_R   0.322330 0.500030 0.632270 -0.618942
O4    O     O_R   0.548480 0.499990 0.632240 -0.614290
O5    O     O_R   0.386890 0.319100 0.500010 -0.554122
O6    O     O_R   0.613050 0.319060 0.499990 -0.634623
O7    O     O_R   0.451520 0.500010 0.367760 -0.594869
O8    O     O_R   0.677670 0.499970 0.367730 -0.619146
Zn1   Zn    Zn3+2 0.349000 0.500030 0.500020 0.989057
Zn2   Zn    Zn3+2 0.651000 0.499970 0.499980 0.947279
S1    S     S_3+6 0.438433 0.083820 0.387362 0.018486
O9    O     O_2   0.518806 0.976363 0.328183 -0.285044
O10   O     O_2   0.285522 0.045337 0.442439 -0.326685
O11   O     O_3   0.437613 0.203618 0.317599 -0.570228
H18   H     H_    0.380261 0.173501 0.281899 0.376830

loop_
_geom_bond_atom_site_label_1
_geom_bond_atom_site_label_2
_ccdc_geom_bond_type
C9    H12   S    
C2    C4    A    
C15   H10   S    
C23   O8    A    
C6    C7    A    
O4    Zn2   S    
N2    Zn2   S    
O3    Zn1   S    
C9    C10   A    
C12   C24   S    
C28   H15   S    
C12   O3    A    
C17   C22   S    
C24   C27   A    
C17   S1    S    
C4    C8    A    
C20   H6    S    
S1    O11   S    
O8    Zn2   S    
C2    C3    A    
S1    O9    D    
O2    Zn2   S    
C1    O1    A    
C21   H8    S    
C6    H16   S    
C13   C14   A    
C16   H3    S    
H7    N1    S    
C27   H14   S    
C26   C27   A    
C5    C6    A    
C1    O2    A    
C7    H1    S    
C16   C18   S    
C5    C11   A    
C22   O6    A    
C3    C7    A    
C23   C25   S    
C14   C25   A    
O11   H18   S    
O7    Zn1   S    
C15   C25   A    
H9    N2    S    
C10   C11   A    
S1    O10   D    
C16   C17   D    
C24   C28   A    
C13   H2    S    
C12   O4    A    
C18   H4    S    
C20   C21   S    
C23   O7    A    
C22   O5    A    
C18   C19   D    
C19   H5    S    
N1    Zn1   S    
O1    Zn1   S    
O6    Zn2   S    
C8    H17   S    
C8    C9    A    
C2    C28   A    
C14   H11   S    
C1    C19   S    
C11   C15   A    
C3    C26   A    
C20   N1    D    
O5    Zn1   S    
C26   H13   S    
C4    C5    A    
C21   N2    D    
C10   C13   A    
