data_mof_unit_43372.cif
_audit_creation_date              2012-10-26T18:32:23-0400
_audit_creation_method            fapswitch 2.2
_symmetry_space_group_name_H-M    P1
_symmetry_Int_Tables_number       1
_space_group_crystal_system       triclinic
_cell_length_a                    12.38125
_cell_length_b                    13.138672
_cell_length_c                    15.846897
_cell_angle_alpha                 77.182205
_cell_angle_beta                  100.828579
_cell_angle_gamma                 116.277043
_cell_volume                      2241.99664296

loop_
_atom_site_label
_atom_site_type_symbol
_atom_type_description
_atom_site_fract_x
_atom_site_fract_y
_atom_site_fract_z
_atom_type_partial_charge
C1    C     C_R   0.855075 0.286058 0.510404 0.528944
C2    C     C_R   0.226288 0.837324 0.486005 0.025721
C3    C     C_R   0.809437 0.091386 0.595698 0.270655
C4    C     C_R   0.999523 0.499835 0.659459 0.523306
C5    C     C_R   0.723592 0.999911 0.643761 -0.132784
C6    C     C_R   0.601290 0.972130 0.620205 -0.191141
C7    C     C_R   0.559763 0.024392 0.540906 0.013598
C8    C     C_R   0.647478 0.124152 0.496388 -0.058189
C9    C     C_R   0.434961 0.985270 0.506138 -0.001004
C10   C     C_R   0.400068 0.061221 0.439071 -0.020208
C11   C     C_R   0.488041 0.164589 0.399572 0.150683
C12   C     C_3   0.056743 0.407039 0.075125 0.375534
C13   C     C_R   0.609896 0.186509 0.422343 -0.084229
C14   C     C_R   0.344546 0.871726 0.530209 0.085498
C15   C     C_R   0.190798 0.919174 0.431143 0.221265
C16   C     C_R   0.144576 0.713773 0.490790 0.579967
C17   C     C_R   0.771909 0.163122 0.528975 -0.020438
C18   C     C_R   0.350841 0.335066 0.647130 0.107268
C19   C     C_R   0.759722 0.645180 0.382225 0.067410
C20   C     C_R   0.667613 0.684005 0.359980 0.091336
C21   C     C_R   0.569142 0.633283 0.409700 -0.102347
C22   C     C_R   0.555297 0.537821 0.475876 -0.030641
C23   C     C_3   0.012016 0.500893 0.084830 0.156895
C24   C     C_R   0.654744 0.506926 0.497964 0.128607
C25   C     C_R   0.448998 0.474849 0.522698 -0.086846
C26   C     C_R   0.452213 0.393024 0.598103 -0.007417
C27   C     C_R   0.556066 0.369484 0.621419 0.117523
C28   C     C_R   0.000804 0.500553 0.340605 0.528178
C29   C     C_R   0.651224 0.422743 0.569864 -0.083759
C30   C     C_R   0.337168 0.486059 0.495657 0.362140
C31   C     C_R   0.251298 0.364630 0.624251 0.374307
C32   C     C_3   0.049543 0.407993 0.973537 0.085068
C33   C     C_3   0.877709 0.468121 0.940319 -0.244779
C34   C     C_3   0.097885 0.626336 0.040719 0.427397
C35   C     C_3   0.879383 0.468121 0.038400 0.129031
C36   C     C_1   0.003395 0.501444 0.251375 -0.053868
C37   C     C_3   0.006625 0.500369 0.917931 -0.024502
C38   C     C_3   0.973129 0.258063 0.208741 -0.309916
C39   C     C_3   0.266365 0.506039 0.929968 -0.294387
C40   C     C_3   0.221192 0.351893 0.131561 -0.088907
C41   C     C_3   0.119523 0.820670 0.012821 -0.117638
C42   C     C_3   0.012716 0.926275 0.434112 -0.134146
C43   C     C_3   0.538868 0.337741 0.283300 -0.322329
C44   C     C_3   0.322220 0.749484 0.673322 -0.294379
C45   C     C_3   0.087036 0.622508 0.940559 -0.175143
C46   C     C_3   0.970774 0.074215 0.566483 -0.100242
C47   C     C_3   0.177759 0.332527 0.756105 -0.073214
C48   C     C_3   0.561957 0.186691 0.685919 -0.284796
C49   C     C_3   0.265576 0.130531 0.709715 -0.290198
C50   C     C_3   0.288864 0.460078 0.354372 -0.117930
C51   C     C_3   0.760804 0.816505 0.227958 -0.315319
C52   C     C_3   0.728924 0.493147 0.090153 -0.124575
C53   C     C_3   0.267866 0.712723 0.156956 -0.247080
C54   C     C_1   0.007867 0.501548 0.176490 0.037623
C55   C     C_1   0.001939 0.500846 0.824847 -0.057758
C56   C     C_1   0.999665 0.500733 0.748963 -0.054454
C57   C     C_R   0.277633 0.029169 0.407318 -0.129708
Cu1   Cu    Cu3+1 0.098280 0.475420 0.519630 1.047543
Cu2   Cu    Cu3+1 0.901720 0.524580 0.480370 0.917263
H1    H     H_    0.248216 0.085756 0.358044 0.140548
H2    H     H_    0.814250 0.381765 0.923603 0.069738
H3    H     H_    0.821264 0.378486 0.067115 0.077078
H4    H     H_    0.176450 0.658896 0.915759 0.068924
H5    H     H_    0.044588 0.679728 0.902276 0.122101
H6    H     H_    0.894352 0.247665 0.080687 0.205548
H7    H     H_    0.895344 0.264703 0.228495 0.116641
H8    H     H_    0.057921 0.312033 0.244761 0.166343
H9    H     H_    0.960717 0.167271 0.227161 0.137198
H10   H     H_    0.158760 0.327371 0.956110 0.224920
H11   H     H_    0.336712 0.478893 0.922388 0.103467
H12   H     H_    0.542548 0.912631 0.667444 0.138249
H13   H     H_    0.299349 0.553055 0.985846 0.188094
H14   H     H_    0.255253 0.562016 0.868591 0.136312
H15   H     H_    0.309576 0.387529 0.104763 0.118371
H16   H     H_    0.160107 0.273052 0.103095 0.139824
H17   H     H_    0.237780 0.326963 0.202730 0.104612
H18   H     H_    0.058865 0.843319 0.958668 0.124396
H19   H     H_    0.203815 0.836383 0.986653 0.082389
H20   H     H_    0.144454 0.879742 0.060557 0.133404
H21   H     H_    0.916446 0.894722 0.407034 0.139644
H22   H     H_    0.051208 0.021745 0.423914 0.084915
H23   H     H_    0.752154 0.952939 0.701893 0.127089
H24   H     H_    0.014515 0.891021 0.504821 0.113960
H25   H     H_    0.392147 0.265619 0.356741 0.230861
H26   H     H_    0.491619 0.383081 0.234279 0.125124
H27   H     H_    0.583137 0.304941 0.247896 0.136012
H28   H     H_    0.607424 0.400189 0.324557 0.168571
H29   H     H_    0.448186 0.775177 0.585477 0.258019
H30   H     H_    0.348246 0.681154 0.712843 0.129349
H31   H     H_    0.222020 0.714427 0.663780 0.152385
H32   H     H_    0.355902 0.822782 0.709605 0.110002
H33   H     H_    0.948814 0.102657 0.496299 0.094413
H34   H     H_    0.974286 0.325295 0.958496 0.095722
H35   H     H_    0.932172 0.978804 0.581363 0.089741
H36   H     H_    0.070488 0.107561 0.577687 0.136880
H37   H     H_    0.098767 0.337462 0.775043 0.168472
H38   H     H_    0.257827 0.415340 0.764576 0.085195
H39   H     H_    0.188920 0.260246 0.802250 0.092943
H40   H     H_    0.644134 0.335628 0.740679 0.238046
H41   H     H_    0.553999 0.128222 0.749126 0.134892
H42   H     H_    0.644959 0.200113 0.659449 0.138090
H43   H     H_    0.481202 0.145214 0.640585 0.171530
H44   H     H_    0.364909 0.269407 0.779994 0.238803
H45   H     H_    0.676838 0.255418 0.383658 0.134786
H46   H     H_    0.173138 0.114443 0.720655 0.178502
H47   H     H_    0.294525 0.070534 0.759010 0.122467
H48   H     H_    0.265065 0.112853 0.644200 0.133354
H49   H     H_    0.254928 0.494259 0.289773 0.170758
H50   H     H_    0.217373 0.373346 0.375405 0.103219
H51   H     H_    0.371672 0.452228 0.345794 0.104780
H52   H     H_    0.637757 0.829501 0.297117 0.246297
H53   H     H_    0.739093 0.874795 0.172176 0.138567
H54   H     H_    0.761103 0.744601 0.202155 0.160252
H55   H     H_    0.851658 0.865824 0.260058 0.163167
H56   H     H_    0.838714 0.684177 0.346950 0.167447
H57   H     H_    0.747282 0.452153 0.157267 0.108243
H58   H     H_    0.655026 0.428690 0.052799 0.095099
H59   H     H_    0.698000 0.558706 0.095338 0.141782
H60   H     H_    0.289840 0.694027 0.036691 0.212042
H61   H     H_    0.337290 0.685455 0.196567 0.153117
H62   H     H_    0.194843 0.690958 0.197467 0.182976
H63   H     H_    0.310987 0.807624 0.138425 0.114308
H64   H     H_    0.505520 0.671610 0.395658 0.176657
H65   H     H_    0.722946 0.396504 0.590228 0.191085
H66   H     H_    0.841753 0.529587 0.899976 0.170150
N1    N     N_R   0.246300 0.438200 0.549400 -0.229236
N2    N     N_2   0.224541 0.658336 0.079388 -0.470505
N3    N     N_R   0.754300 0.561180 0.451130 -0.267448
N4    N     N_2   0.975904 0.290735 0.115215 -0.546826
N5    N     N_2   0.153834 0.405678 0.944407 -0.514202
N6    N     N_2   0.451658 0.243214 0.335991 -0.530514
N7    N     N_2   0.372151 0.786000 0.590264 -0.500328
N8    N     N_2   0.569326 0.295140 0.699112 -0.489705
N9    N     N_2   0.349454 0.247466 0.718970 -0.473505
N10   N     N_2   0.670133 0.772859 0.288382 -0.545663
O1    O     O_R   0.972520 0.318130 0.524690 -0.421747
O2    O     O_3   0.055671 0.706388 0.054003 -0.506663
O3    O     O_3   0.074074 0.888126 0.390792 -0.558967
O4    O     O_3   0.930288 0.117935 0.621587 -0.515603
O5    O     O_3   0.150124 0.308262 0.669942 -0.488969
O6    O     O_3   0.313817 0.537110 0.412649 -0.550040
O7    O     O_3   0.834887 0.548050 0.046981 -0.512789
O8    O     O_R   0.806530 0.359650 0.491530 -0.544916
O9    O     O_R   0.083030 0.479240 0.637150 -0.468642
O10   O     O_R   0.917040 0.520750 0.603990 -0.528781
O11   O     O_R   0.193470 0.640350 0.508470 -0.450423
O12   O     O_R   0.027480 0.681870 0.475310 -0.470851
O13   O     O_R   0.082960 0.479250 0.396010 -0.465084
O14   O     O_R   0.916970 0.520760 0.362850 -0.513689
O15   O     O_3   0.178238 0.439034 0.115764 -0.541262

loop_
_geom_bond_atom_site_label_1
_geom_bond_atom_site_label_2
_ccdc_geom_bond_type
C55   C56   T    
C30   N1    A    
C42   H21   S    
C51   H53   S    
C42   O3    S    
C19   C20   A    
C18   C26   A    
C49   N9    S    
C32   N5    S    
C53   H61   S    
C7    C8    A    
C49   H48   S    
C14   N7    S    
C12   C23   S    
C26   C27   A    
C8    C13   A    
C47   H39   S    
C16   O12   A    
H44   N9    S    
C53   H63   S    
C41   H18   S    
C5    C6    A    
Cu1   O13   S    
C27   C29   A    
C4    O10   A    
C29   H65   S    
C19   N3    A    
C50   H51   S    
H40   N8    S    
C16   O11   A    
C24   C29   A    
C53   N2    S    
C51   N10   S    
C46   H36   S    
C38   H7    S    
C34   N2    S    
C22   C25   A    
C47   O5    S    
C39   H13   S    
C18   N9    S    
C1    O1    A    
C2    C16   S    
C9    C10   A    
C41   O2    S    
C50   O6    S    
C15   O3    S    
C52   H58   S    
C52   H57   S    
C32   H34   S    
Cu2   O8    S    
C28   O14   A    
C21   C22   A    
C12   C32   S    
C50   H49   S    
C15   C57   A    
C42   H22   S    
Cu2   O14   S    
C6    H12   S    
C48   H41   S    
C28   O13   A    
C51   H55   S    
C12   N4    S    
C43   H26   S    
C38   N4    S    
C12   O15   S    
C48   N8    S    
C10   C57   A    
H25   N6    S    
C41   H19   S    
H10   N5    S    
C57   H1    S    
C49   H46   S    
Cu1   O1    S    
C25   C26   A    
C45   H4    S    
C50   H50   S    
C33   C37   S    
C40   H17   S    
C27   N8    S    
C21   H64   S    
C9    C14   A    
C4    O9    A    
C1    O8    A    
C46   H35   S    
C19   H56   S    
C47   H37   S    
C23   C34   S    
C48   H43   S    
Cu2   N3    S    
C33   H66   S    
C40   O15   S    
C34   C45   S    
C51   H54   S    
C32   C37   S    
C38   H8    S    
C13   H45   S    
C2    C15   A    
C30   O6    S    
C49   H47   S    
C44   H32   S    
Cu2   O10   S    
C38   H9    S    
Cu1   N1    S    
C23   C35   S    
C22   C24   A    
C3    O4    S    
H29   N7    S    
C37   C45   S    
C52   H59   S    
C44   H31   S    
C23   C54   S    
C25   C30   A    
C7    C9    A    
C34   O2    S    
C43   H27   S    
C42   H24   S    
C3    C5    A    
C11   N6    S    
C41   H20   S    
H6    N4    S    
Cu1   O11   S    
C6    C7    A    
C39   N5    S    
C44   N7    S    
C45   H5    S    
C1    C17   S    
C8    C17   A    
C47   H38   S    
C40   H16   S    
C43   H28   S    
C43   N6    S    
Cu1   Cu2   S    
C53   H62   S    
C5    H23   S    
C11   C13   A    
H52   N10   S    
C48   H42   S    
C33   C35   S    
C39   H11   S    
C40   H15   S    
C3    C17   A    
C35   H3    S    
C39   H14   S    
C20   N10   S    
C2    C14   A    
C52   O7    S    
C36   C54   T    
C10   C11   A    
C35   O7    S    
C37   C55   S    
Cu1   O9    S    
C46   H33   S    
C20   C21   A    
C28   C36   S    
C33   H2    S    
C24   N3    A    
C18   C31   A    
C31   N1    A    
C31   O5    S    
C4    C56   S    
C44   H30   S    
H60   N2    S    
C46   O4    S    
Cu2   O12   S    
