data_mof_unit_9233.cif
_audit_creation_date              2013-03-05T15:54:33-0500
_audit_creation_method            fapswitch 2.2
_symmetry_space_group_name_H-M    P1
_symmetry_Int_Tables_number       1
_space_group_crystal_system       triclinic
_cell_length_a                    19.424676
_cell_length_b                    18.585574
_cell_length_c                    12.354517
_cell_angle_alpha                 89.979991
_cell_angle_beta                  129.217122
_cell_angle_gamma                 89.949537
_cell_volume                      3455.57068906

loop_
_atom_site_label
_atom_site_type_symbol
_atom_site_description
_atom_site_fract_x
_atom_site_fract_y
_atom_site_fract_z
_atom_type_partial_charge
O1    O     O_R   0.608610 0.924520 0.551740 -0.564794
O2    O     O_R   0.608610 0.075480 0.551740 -0.579126
O3    O     O_R   0.108610 0.424520 0.551740 -0.564799
O4    O     O_R   0.108610 0.575480 0.551740 -0.579119
O5    O     O_R   0.564110 0.924510 0.685150 -0.607699
O6    O     O_R   0.564110 0.075490 0.685150 -0.616936
O7    O     O_R   0.064110 0.424510 0.685150 -0.607699
O8    O     O_R   0.064110 0.575490 0.685150 -0.616933
C1    C     C_R   0.613224 0.899385 0.655193 0.802114
C2    C     C_R   0.609547 0.102971 0.650394 0.803384
C3    C     C_R   0.113225 0.399386 0.655195 0.802106
C4    C     C_R   0.109547 0.602971 0.650394 0.803384
Cu1   Cu    Cu3+1 0.526340 0.000000 0.421010 1.002401
Cu2   Cu    Cu3+1 0.026340 0.500000 0.421010 1.002408
Cu3   Cu    Cu3+1 0.473640 1.000000 0.578990 0.961484
Cu4   Cu    Cu3+1 0.973640 0.500000 0.578990 0.961488
O9    O     O_R   0.435880 0.075470 0.314850 -0.589026
O10   O     O_R   0.435880 0.924530 0.314850 -0.561233
O11   O     O_R   0.935880 0.575470 0.314850 -0.589019
O12   O     O_R   0.935880 0.424530 0.314850 -0.561240
O13   O     O_R   0.391380 0.075460 0.448260 -0.590791
O14   O     O_R   0.391380 0.924540 0.448260 -0.589811
O15   O     O_R   0.891380 0.575460 0.448260 -0.590796
O16   O     O_R   0.891380 0.424540 0.448260 -0.589804
C5    C     C_R   0.386077 0.099408 0.344198 0.800269
C6    C     C_R   0.384011 0.902197 0.341617 0.809732
C7    C     C_R   0.886077 0.599407 0.344197 0.800278
C8    C     C_R   0.884013 0.402195 0.341620 0.809728
C9    C     C_R   0.690472 0.275391 0.175747 -0.082868
C10   C     C_R   0.681782 0.713462 0.160323 -0.097662
C11   C     C_R   0.190461 0.775402 0.175733 -0.082925
C12   C     C_R   0.181778 0.213459 0.160318 -0.097661
H1    H     H_    0.646801 0.257815 0.196022 0.234428
H2    H     H_    0.625036 0.716654 0.157400 0.210589
H3    H     H_    0.146785 0.757830 0.196000 0.234426
H4    H     H_    0.125028 0.216645 0.157387 0.210591
C13   C     C_R   0.313875 0.850497 0.246664 -0.075595
C14   C     C_R   0.319957 0.154371 0.254617 -0.065253
C15   C     C_R   0.813881 0.350492 0.246671 -0.075607
C16   C     C_R   0.819954 0.654369 0.254613 -0.065265
C17   C     C_R   0.736159 0.178143 0.723364 -0.229089
C18   C     C_R   0.761892 0.847980 0.768374 -0.222492
C19   C     C_R   0.236159 0.678145 0.723364 -0.229071
C20   C     C_R   0.261899 0.347987 0.768388 -0.222489
C21   C     C_R   0.305251 0.723611 0.817477 -0.142463
C22   C     C_R   0.341092 0.321948 0.889632 -0.110472
C23   C     C_R   0.805249 0.223611 0.817472 -0.142442
C24   C     C_R   0.841081 0.821932 0.889608 -0.110511
C25   C     C_R   0.310634 0.755529 0.924417 0.359270
C26   C     C_R   0.344143 0.293995 0.997758 0.331937
C27   C     C_R   0.810631 0.255532 0.924409 0.359281
C28   C     C_R   0.844133 0.793975 0.997731 0.331979
C29   C     C_R   0.739959 0.247188 0.930833 -0.029723
C30   C     C_R   0.763206 0.780987 0.973870 -0.034834
C31   C     C_R   0.239958 0.747188 0.930834 -0.029707
C32   C     C_R   0.263213 0.280999 0.973886 -0.034840
C33   C     C_R   0.667113 0.202686 0.829624 -0.007086
C34   C     C_R   0.683100 0.809705 0.852085 -0.011398
C35   C     C_R   0.167111 0.702688 0.829622 -0.007087
C36   C     C_R   0.183104 0.309710 0.852094 -0.011398
C37   C     C_R   0.240260 0.778016 0.036938 0.046582
C38   C     C_R   0.258827 0.241639 0.067881 0.066463
C39   C     C_R   0.740263 0.278014 0.036942 0.046575
C40   C     C_R   0.758821 0.741630 0.067868 0.066446
C41   C     C_R   0.678346 0.254532 0.054914 0.027703
C42   C     C_R   0.683560 0.748826 0.061463 0.033925
C43   C     C_R   0.178341 0.754537 0.054906 0.027705
C44   C     C_R   0.183561 0.248827 0.061465 0.033922
C45   C     C_R   0.602887 0.215956 0.946537 0.310326
C46   C     C_R   0.608618 0.785576 0.948737 0.285963
C47   C     C_R   0.102885 0.715958 0.946532 0.310332
C48   C     C_R   0.108617 0.285575 0.948736 0.285955
C49   C     C_R   0.594671 0.197306 0.829750 -0.219533
C50   C     C_R   0.604727 0.803607 0.835916 -0.218869
C51   C     C_R   0.094670 0.697307 0.829747 -0.219542
C52   C     C_R   0.104729 0.303607 0.835917 -0.218869
C53   C     C_R   0.298414 0.833167 0.123732 -0.125065
C54   C     C_R   0.323849 0.191089 0.160203 -0.123616
C55   C     C_R   0.798418 0.333164 0.123738 -0.125093
C56   C     C_R   0.823839 0.691078 0.160187 -0.123621
C57   C     C_R   0.260381 0.820391 0.274047 -0.170886
C58   C     C_R   0.250494 0.167741 0.258002 -0.174428
C59   C     C_R   0.760391 0.320382 0.274060 -0.170859
C60   C     C_R   0.750498 0.667745 0.258008 -0.174428
C61   C     C_R   0.669288 0.163902 0.732426 -0.065292
C62   C     C_R   0.684263 0.847792 0.753876 -0.075699
C63   C     C_R   0.169287 0.663903 0.732425 -0.065292
C64   C     C_R   0.184268 0.347796 0.753883 -0.075705
H5    H     H_    0.328607 0.866505 0.093431 0.196089
H6    H     H_    0.375608 0.177351 0.154597 0.183283
H7    H     H_    0.828607 0.366504 0.093435 0.196093
H8    H     H_    0.875588 0.677331 0.154568 0.183304
H9    H     H_    0.358695 0.729937 0.813002 0.213932
H10   H     H_    0.401861 0.330526 0.904935 0.206709
H11   H     H_    0.858691 0.229938 0.812993 0.213939
H12   H     H_    0.901849 0.830505 0.904908 0.206686
H13   H     H_    0.531092 0.176870 0.740827 0.212266
H14   H     H_    0.540462 0.816972 0.739024 0.210329
H15   H     H_    0.031091 0.676870 0.740825 0.212265
H16   H     H_    0.040464 0.316968 0.739021 0.210327
C65   C     C_R   0.683251 0.003944 0.288479 0.244061
C66   C     C_R   0.183253 0.503925 0.288484 0.244050
H17   H     H_    0.701491 0.002394 0.479473 0.154310
H18   H     H_    0.201490 0.502379 0.479474 0.154321
N1    N     N_R   0.566260 0.000000 0.302220 -0.217307
N2    N     N_R   0.066260 0.500000 0.302220 -0.217309
C67   C     C_R   0.345511 0.000114 0.627622 0.014874
C68   C     C_R   0.845511 0.500121 0.627622 0.014877
C69   C     C_R   0.311478 0.001159 0.699384 0.278309
C70   C     C_R   0.811479 0.501173 0.699385 0.278307
C71   C     C_R   0.370915 0.002197 0.846108 -0.175057
C72   C     C_R   0.870916 0.502209 0.846109 -0.175035
C73   C     C_R   0.463649 0.001466 0.921767 0.055597
C74   C     C_R   0.963651 0.501468 0.921768 0.055601
C75   C     C_R   0.494053 0.000640 0.842482 0.313387
C76   C     C_R   0.994053 0.500637 0.842482 0.313389
C77   C     C_R   0.527207 0.001589 0.072705 0.053238
C78   C     C_R   0.027208 0.501586 0.072707 0.053243
C79   C     C_R   0.619666 0.002474 0.140623 0.078885
C80   C     C_R   0.119669 0.502459 0.140625 0.078881
C81   C     C_R   0.647036 0.000308 0.059920 -0.179074
C82   C     C_R   0.147037 0.500287 0.059920 -0.179063
C83   C     C_R   0.586032 0.000004 0.915455 -0.166672
C84   C     C_R   0.086032 0.499994 0.915455 -0.166675
C85   C     C_R   0.503223 0.000695 0.160030 0.120935
C86   C     C_R   0.003223 0.500699 0.160030 0.120947
C87   C     C_R   0.654047 0.001382 0.366498 0.018663
C88   C     C_R   0.154047 0.501371 0.366500 0.018668
N3    N     N_R   0.434410 0.000000 0.697680 -0.234209
N4    N     N_R   0.934410 0.500000 0.697680 -0.234209
H19   H     H_    0.343095 0.003518 0.898692 0.168257
H20   H     H_    0.843096 0.503536 0.898693 0.168258
H21   H     H_    0.614581 0.999122 0.865135 0.202671
H22   H     H_    0.114581 0.499117 0.865135 0.202672
H23   H     H_    0.269663 0.834286 0.367659 0.184837
H24   H     H_    0.246150 0.139318 0.330077 0.180334
H25   H     H_    0.769676 0.334274 0.367676 0.184838
H26   H     H_    0.746159 0.639327 0.330091 0.180340
H27   H     H_    0.716621 0.997762 0.107589 0.206447
H28   H     H_    0.216620 0.497730 0.107584 0.206465
N5    N     N_R   0.776895 0.009950 0.360904 0.120010
O17   O     O_R   0.806691 0.062032 0.330230 -0.323066
O18   O     O_R   0.832978 0.972889 0.474371 -0.318904
N6    N     N_R   0.276901 0.509910 0.360915 0.120026
O19   O     O_R   0.306713 0.561961 0.330205 -0.323043
O20   O     O_R   0.332973 0.472861 0.474407 -0.318919
H29   H     H_    0.434887 0.000078 0.117746 0.123523
H30   H     H_    0.934888 0.500088 0.117745 0.123520
H31   H     H_    0.300935 0.999583 0.514664 0.166379
H32   H     H_    0.800935 0.499592 0.514665 0.166382
N7    N     N_R   0.216893 0.001190 0.623467 0.145175
O21   O     O_R   0.161852 0.000598 0.487484 -0.317690
O22   O     O_R   0.184814 0.001427 0.689423 -0.310767
N8    N     N_R   0.716894 0.501214 0.623469 0.145178
O23   O     O_R   0.661852 0.500625 0.487485 -0.317671
O24   O     O_R   0.684815 0.501458 0.689426 -0.310758
N9    N     N_R   0.532326 0.197526 0.949739 0.115430
O25   O     O_R   0.449996 0.203056 0.836729 -0.371061
O26   O     O_R   0.549853 0.161447 0.054770 -0.375053
N10   N     N_R   0.539074 0.808657 0.950915 0.117067
O27   O     O_R   0.460576 0.823224 0.834429 -0.378909
O28   O     O_R   0.560996 0.834735 0.066633 -0.320715
N11   N     N_R   0.032332 0.697518 0.949744 0.115429
O29   O     O_R   0.950002 0.703041 0.836741 -0.371078
O30   O     O_R   0.049870 0.661440 0.054780 -0.375015
N12   N     N_R   0.039067 0.308651 0.950904 0.117067
O31   O     O_R   0.960572 0.323219 0.834414 -0.378904
O32   O     O_R   0.060981 0.334723 0.066620 -0.320695
H33   H     H_    0.738442 0.150672 0.648354 0.189750
H34   H     H_    0.764030 0.875638 0.693339 0.189991
H35   H     H_    0.238442 0.650675 0.648354 0.189750
H36   H     H_    0.264037 0.375643 0.693351 0.189994
N13   N     N_R   0.391458 0.791974 0.028663 0.113415
O33   O     O_R   0.405779 0.855062 0.001096 -0.340265
O34   O     O_R   0.450750 0.762404 0.150089 -0.318372
N14   N     N_R   0.428933 0.290637 0.135472 0.108697
O35   O     O_R   0.437459 0.315545 0.241871 -0.308480
O36   O     O_R   0.500132 0.274529 0.151754 -0.336156
N15   N     N_R   0.891448 0.291988 0.028639 0.113413
O37   O     O_R   0.905755 0.355076 0.001052 -0.340281
O38   O     O_R   0.950768 0.262413 0.150047 -0.318357
N16   N     N_R   0.928924 0.790604 0.135438 0.108689
O39   O     O_R   0.937467 0.815536 0.241838 -0.308478
O40   O     O_R   0.000089 0.774427 0.151729 -0.336134

loop_
_geom_bond_atom_site_label_1
_geom_bond_atom_site_label_2
_geom_bond_distance
_ccdc_geom_bond_type
C39   C41   1.422972 A    
C2    C61   1.473814 S    
N9    O25   1.301385 A    
C31   C35   1.419598 A    
C40   C56   1.397973 A    
C16   C60   1.398137 A    
N11   O29   1.301346 A    
O10   C6    1.311001 A    
C67   N3    1.356875 A    
C21   H9    1.080454 S    
C77   C79   1.422807 A    
C25   N13   1.424068 S    
C36   C64   1.417000 A    
C50   H14   1.078245 S    
C39   C55   1.395570 A    
N13   O33   1.299346 A    
C54   H6    1.080943 S    
O7    C3    1.308047 A    
C19   C63   1.397976 A    
C53   H5    1.070558 S    
C47   N11   1.437640 S    
Cu1   O10   1.966371 S    
C83   H21   1.063127 S    
C12   H4    1.081384 S    
C69   N7    1.440929 S    
C28   N16   1.437881 S    
C9    C59   1.391318 A    
C24   C28   1.399005 A    
C66   C88   1.394488 A    
C69   C71   1.404584 A    
C30   C34   1.416825 A    
C1    C62   1.476306 S    
C43   C47   1.405717 A    
N16   O40   1.299704 A    
C80   C82   1.395946 A    
N2    C88   1.351596 A    
C26   N14   1.437904 S    
C33   C49   1.411771 A    
C12   C58   1.385784 A    
O2    Cu1   1.967761 S    
N16   O39   1.301900 A    
C18   H34   1.083390 S    
O6    Cu3   1.966727 S    
C65   N5    1.436731 S    
Cu3   O14   1.967440 S    
C9    H1    1.076193 S    
C37   C53   1.395570 A    
Cu3   N3    2.035651 S    
C46   C50   1.388255 A    
C45   N9    1.437676 S    
N7    O21   1.301676 A    
C16   C56   1.393902 A    
C45   C49   1.391647 A    
C18   C62   1.401547 A    
O15   C7    1.301395 A    
O4    C4    1.311227 A    
O11   C7    1.306970 A    
C9    C41   1.410770 A    
C68   N4    1.356874 A    
C4    C63   1.473821 S    
C44   C48   1.399697 A    
C12   C44   1.406338 A    
C79   C81   1.395941 A    
C60   H26   1.083416 S    
Cu4   O16   1.967440 S    
C14   C58   1.398163 A    
N7    O22   1.301678 A    
N12   O32   1.300428 A    
C67   C69   1.401627 A    
C13   C57   1.397387 A    
C48   N12   1.433377 S    
C27   N15   1.424057 S    
C34   C62   1.417002 A    
C72   C74   1.410504 A    
C28   C30   1.425136 A    
C22   C26   1.399012 A    
C57   H23   1.083226 S    
C70   C72   1.404585 A    
N13   O34   1.300955 A    
C75   C83   1.402924 A    
N1    C87   1.351600 A    
C55   H7    1.070557 S    
C65   C79   1.417809 A    
Cu2   O12   1.966371 S    
O1    C1    1.309391 A    
H17   C87   1.082256 S    
C35   C63   1.424100 A    
Cu1   N1    2.047969 S    
C85   H29   1.076193 S    
C10   H2    1.081365 S    
C23   C27   1.390805 A    
C14   C54   1.393929 A    
C8    C15   1.462066 S    
C25   C31   1.432837 A    
C13   C53   1.387193 A    
C36   C52   1.409304 A    
C26   C32   1.425157 A    
C32   C36   1.416835 A    
C27   C29   1.432839 A    
C15   C55   1.387191 A    
C56   H8    1.080903 S    
C49   H13   1.077901 S    
C20   H36   1.083389 S    
O5    C1    1.308048 A    
C70   N8    1.440929 S    
C5    C14   1.455138 S    
C37   C43   1.422964 A    
H18   C88   1.082255 S    
C58   H24   1.083433 S    
C21   C25   1.390805 A    
C3    C64   1.476314 S    
O8    C4    1.305414 A    
O5    Cu3   1.963865 S    
C51   H15   1.077899 S    
C17   C23   1.377173 A    
C48   C52   1.388256 A    
C71   C73   1.410503 A    
C18   C24   1.388773 A    
C72   H20   1.076378 S    
C19   C21   1.377181 A    
C40   C42   1.419393 A    
N8    O23   1.301677 A    
C10   C42   1.406330 A    
O3    Cu2   1.964950 S    
C68   H32   1.081380 S    
N6    O20   1.301259 A    
N14   O35   1.301894 A    
Cu4   O15   1.964627 S    
C17   C61   1.397978 A    
Cu1   Cu3   2.717316 S    
N12   O31   1.301373 A    
Cu2   Cu4   2.717316 S    
Cu3   O13   1.964627 S    
N9    O26   1.299870 A    
O1    Cu1   1.964950 S    
C82   C84   1.383958 A    
O2    C2    1.311226 A    
C35   C51   1.411766 A    
C59   H25   1.083226 S    
C66   C80   1.417824 A    
C34   C50   1.409294 A    
C75   N3    1.386340 A    
C73   C77   1.445815 A    
C71   H19   1.076383 S    
C84   H22   1.063124 S    
O13   C5    1.301396 A    
C74   C78   1.445820 A    
C19   H35   1.083374 S    
C76   C84   1.402921 A    
C7    C16   1.455134 S    
N11   O30   1.299842 A    
N8    O24   1.301680 A    
Cu2   O11   1.963507 S    
C38   C54   1.397985 A    
C24   H12   1.082893 S    
O7    Cu4   1.963865 S    
O16   C8    1.300310 A    
N6    O19   1.301431 A    
C29   C33   1.419597 A    
O6    C2    1.305411 A    
C74   C76   1.428286 A    
C6    C13   1.462068 S    
Cu1   O9    1.963507 S    
C52   H16   1.078248 S    
O12   C8    1.310999 A    
N2    C86   1.365799 A    
C11   C57   1.391318 A    
N1    C85   1.365801 A    
C66   N6    1.436731 S    
O9    C5    1.306969 A    
N10   O27   1.301373 A    
C81   H27   1.081358 S    
N5    O18   1.301244 A    
C15   C59   1.397389 A    
O4    Cu2   1.967761 S    
N5    O17   1.301400 A    
C47   C51   1.391642 A    
C29   C39   1.427409 A    
C42   C46   1.399693 A    
C86   H30   1.076191 S    
C17   H33   1.083374 S    
C41   C45   1.405724 A    
C31   C37   1.427408 A    
C11   H3    1.076193 S    
N14   O36   1.300096 A    
C65   C87   1.394483 A    
C46   N10   1.433371 S    
C68   C70   1.401624 A    
C32   C38   1.419701 A    
C38   C44   1.419417 A    
C22   H10   1.082908 S    
C10   C60   1.385785 A    
C78   C80   1.422814 A    
C81   C83   1.383957 A    
O3    C3    1.309394 A    
C11   C43   1.410771 A    
C82   H28   1.081351 S    
N15   O37   1.299342 A    
C67   H31   1.081381 S    
Cu2   N2    2.047969 S    
C76   N4    1.386342 A    
C30   C40   1.419699 A    
O8    Cu4   1.966727 S    
O14   C6    1.300309 A    
C23   H11   1.080450 S    
Cu4   N4    2.035651 S    
C78   C86   1.420142 A    
N15   O38   1.300947 A    
C20   C64   1.401564 A    
C77   C85   1.420143 A    
C33   C61   1.424101 A    
C20   C22   1.388787 A    
N10   O28   1.300430 A    
C73   C75   1.428289 A    
