data_mof_unit_54031.cif
_audit_creation_date              2013-03-05T16:48:48-0500
_audit_creation_method            fapswitch 2.2
_symmetry_space_group_name_H-M    P1
_symmetry_Int_Tables_number       1
_space_group_crystal_system       triclinic
_cell_length_a                    10.891561
_cell_length_b                    10.893727
_cell_length_c                    13.108689
_cell_angle_alpha                 90.281366
_cell_angle_beta                  89.882375
_cell_angle_gamma                 90.118132
_cell_volume                      1555.31660904

loop_
_atom_site_label
_atom_site_type_symbol
_atom_site_description
_atom_site_fract_x
_atom_site_fract_y
_atom_site_fract_z
_atom_type_partial_charge
O1    O     O_R   0.499980 0.319630 0.578260 -0.594191
O2    O     O_R   0.500020 0.680370 0.421740 -0.592936
O3    O     O_R   0.500000 0.319650 0.421740 -0.574225
O4    O     O_R   0.500000 0.680350 0.578260 -0.577139
C1    C     C_R   0.492924 0.259604 0.499576 0.871118
C2    C     C_R   0.507083 0.740399 0.500409 0.867189
O5    O     O_R   0.319630 0.500000 0.578260 -0.584115
O6    O     O_R   0.680370 0.500000 0.421740 -0.580764
O7    O     O_R   0.319650 0.500020 0.421740 -0.564759
O8    O     O_R   0.680350 0.499980 0.578260 -0.568921
C3    C     C_R   0.259650 0.507302 0.499855 0.856511
C4    C     C_R   0.740310 0.492420 0.500131 0.856129
Cu1   Cu    Cu3+1 0.499990 0.499990 0.592680 1.001727
Cu2   Cu    Cu3+1 0.500010 0.500010 0.407320 1.006145
H1    H     H_    0.266320 0.746092 0.080188 0.204159
H2    H     H_    0.734019 0.249803 0.918389 0.204833
C5    C     C_R   0.232194 0.765248 0.240358 -0.212906
C6    C     C_R   0.769234 0.231408 0.758323 -0.211195
H3    H     H_    0.277458 0.853531 0.245030 0.138007
H4    H     H_    0.725186 0.142521 0.753333 0.145860
C7    C     C_R   0.180582 0.713035 0.327643 -0.120296
C8    C     C_R   0.820693 0.284408 0.671313 -0.106012
H5    H     H_    0.187444 0.760907 0.400019 0.103833
H6    H     H_    0.814977 0.236337 0.598931 0.124353
C9    C     C_R   0.118885 0.600126 0.321141 0.063649
C10   C     C_R   0.881015 0.398059 0.678233 0.060458
C11   C     C_R   0.109264 0.540374 0.226327 -0.196305
C12   C     C_R   0.889476 0.457674 0.773170 -0.205269
H7    H     H_    0.059178 0.454664 0.221348 0.174612
H8    H     H_    0.938709 0.543837 0.778487 0.165753
C13   C     C_R   0.163867 0.590775 0.138589 0.398425
C14   C     C_R   0.834982 0.406442 0.860620 0.406069
C15   C     C_R   0.224810 0.704287 0.146566 -0.192843
C16   C     C_R   0.775350 0.292271 0.852226 -0.198584
C17   C     C_R   0.933544 0.536272 0.414378 -0.209708
C18   C     C_R   0.066376 0.463076 0.585513 -0.215173
H9    H     H_    0.881682 0.567501 0.348892 0.175670
H10   H     H_    0.118228 0.431953 0.651039 0.177310
C19   C     C_R   0.872889 0.491556 0.500657 -0.094579
C20   C     C_R   0.127044 0.507838 0.499238 -0.087826
C21   C     C_R   0.939547 0.452888 0.586954 0.001721
C22   C     C_R   0.060384 0.546091 0.412785 0.012888
H11   H     H_    0.303126 0.269702 0.065512 0.201776
H12   H     H_    0.695168 0.729893 0.934651 0.200184
C23   C     C_R   0.263357 0.226721 0.220497 -0.248953
C24   C     C_R   0.737007 0.773266 0.780136 -0.281429
H13   H     H_    0.174986 0.271500 0.218398 0.186667
H14   H     H_    0.823906 0.726498 0.785348 0.177023
C25   C     C_R   0.303580 0.172106 0.310856 0.529114
C26   C     C_R   0.698205 0.828626 0.688322 0.539489
C27   C     C_R   0.420411 0.116987 0.313975 -0.059980
C28   C     C_R   0.580804 0.882916 0.685706 -0.048090
C29   C     C_R   0.493174 0.113636 0.225436 -0.292224
C30   C     C_R   0.507256 0.885943 0.773768 -0.302382
H15   H     H_    0.582835 0.070801 0.227597 0.173742
H16   H     H_    0.417476 0.928500 0.771054 0.171187
C31   C     C_R   0.452025 0.165248 0.133945 0.551002
C32   C     C_R   0.547510 0.834641 0.865403 0.552480
C33   C     C_R   0.336497 0.224112 0.132965 -0.295766
C34   C     C_R   0.662776 0.775852 0.867024 -0.279097
C35   C     C_R   0.476392 0.933126 0.411141 -0.287477
C36   C     C_R   0.524254 0.066910 0.588711 -0.273643
H17   H     H_    0.456215 0.881035 0.342592 0.152390
H18   H     H_    0.544349 0.119001 0.657281 0.150228
C37   C     C_R   0.508206 0.873032 0.501231 -0.051414
C38   C     C_R   0.492158 0.126990 0.498672 -0.052790
C39   C     C_R   0.535023 0.940349 0.590736 0.090426
C40   C     C_R   0.465813 0.059697 0.409061 0.080710
N1    N     N_1   0.500030 0.500030 0.268070 -0.137515
N2    N     N_1   0.499970 0.499970 0.731930 -0.137915
C41   C     C_1   0.499970 0.500027 0.173541 0.170162
C42   C     C_1   0.500012 0.499966 0.826459 0.168961
C43   C     C_1   0.499934 0.499959 0.050682 0.015007
C44   C     C_1   0.500023 0.500029 0.949318 0.015180
O9    O     O_3   0.532043 0.163343 0.050986 -0.579775
C45   C     C_3   0.469624 0.152388 0.957042 -0.322435
H19   H     H_    0.435473 0.243119 0.931689 0.170019
H20   H     H_    0.393457 0.084123 0.960256 0.195595
H21   H     H_    0.535667 0.119763 0.898451 0.182454
O10   O     O_3   0.466737 0.836431 0.947854 -0.580793
C46   C     C_3   0.528296 0.847904 0.042156 -0.324773
H22   H     H_    0.604483 0.916164 0.039204 0.196135
H23   H     H_    0.562250 0.757320 0.068038 0.169599
H24   H     H_    0.461707 0.880798 0.100210 0.182795
N3    N     N_R   0.157130 0.527403 0.042126 0.132233
O11   O     O_R   0.201301 0.577233 0.959770 -0.364550
O12   O     O_R   0.107134 0.419042 0.035735 -0.363464
N4    N     N_R   0.840636 0.469562 0.957245 0.132759
O13   O     O_R   0.796534 0.419043 0.039333 -0.361683
O14   O     O_R   0.889780 0.578272 0.964093 -0.364892
O15   O     O_3   0.232306 0.180604 0.397928 -0.588182
C47   C     C_3   0.147546 0.082703 0.397596 -0.342933
H25   H     H_    0.195445 0.992650 0.400640 0.156985
H26   H     H_    0.085824 0.086432 0.330026 0.173364
H27   H     H_    0.089194 0.090271 0.466820 0.196522
O16   O     O_3   0.765952 0.825124 0.597806 -0.592123
C48   C     C_3   0.893951 0.823130 0.614080 -0.341403
H28   H     H_    0.924843 0.729018 0.633505 0.176652
H29   H     H_    0.922971 0.890981 0.673155 0.166463
H30   H     H_    0.940430 0.848628 0.541809 0.189702

loop_
_geom_bond_atom_site_label_1
_geom_bond_atom_site_label_2
_geom_bond_distance
_ccdc_geom_bond_type
C38   C40   1.411264 A    
C13   N3    1.439641 S    
C11   H7    1.082172 S    
C43   C44   1.328761 T    
C45   H21   1.108933 S    
O7    Cu2   1.973089 S    
C48   H30   1.109496 S    
C46   H22   1.113828 S    
C19   C21   1.411932 A    
N3    O11   1.301594 A    
O5    C3    1.221967 A    
C36   C39   1.384338 A    
O1    C1    1.221017 A    
C17   H9    1.085068 S    
C45   H20   1.113822 S    
C31   C33   1.413552 A    
Cu1   N2    1.825386 S    
C32   C34   1.410758 A    
C14   N4    1.439638 S    
C35   H17   1.083080 S    
C23   H13   1.080416 S    
O4    Cu1   1.974788 S    
N1    C41   1.239157 T    
C17   C22   1.385524 A    
C18   C20   1.398018 A    
C36   H18   1.083128 S    
C48   H29   1.113713 S    
C2    C37   1.444883 S    
C37   C39   1.411309 A    
C26   C28   1.410490 A    
C13   C15   1.405795 A    
H11   C33   1.080265 S    
H2    C16   1.081835 S    
N3    O12   1.301381 A    
Cu1   Cu2   2.429827 S    
C18   C21   1.385691 A    
O2    C2    1.220868 A    
C5    C15   1.396887 A    
C25   O15   1.381885 S    
C46   H23   1.109475 S    
C28   C30   1.404030 A    
C48   H28   1.110618 S    
C24   H14   1.078249 S    
C29   H15   1.083661 S    
C30   H16   1.083769 S    
C36   C38   1.397811 A    
C11   C13   1.407119 A    
C12   C14   1.407126 A    
C45   H19   1.109497 S    
C42   C44   1.610507 S    
O15   C47   1.409109 S    
C41   C43   1.610510 S    
C29   C31   1.401872 A    
C1    C38   1.444651 S    
C25   C27   1.408897 A    
C47   H27   1.109627 S    
C5    C7    1.396838 A    
C27   C29   1.404413 A    
C14   C16   1.405867 A    
C17   C19   1.397815 A    
O9    C45   1.412311 S    
O7    C3    1.215964 A    
C20   C22   1.412217 A    
C23   C25   1.399668 A    
O6    C4    1.221807 A    
O16   C48   1.410995 S    
C47   H26   1.114015 S    
C6    C16   1.396936 A    
O3    Cu2   1.974788 S    
O8    C4    1.216076 A    
O4    C2    1.217117 A    
N4    O14   1.301369 A    
C7    H5    1.083029 S    
Cu2   N1    1.825387 S    
C8    H6    1.083333 S    
O1    Cu1   1.972941 S    
C46   H24   1.108900 S    
C30   C32   1.399015 A    
C7    C9    1.402675 A    
C23   C33   1.395711 A    
O6    Cu2   1.973861 S    
C24   C34   1.395618 A    
C6    C8    1.396755 A    
C28   C39   1.483708 S    
O10   C46   1.412381 S    
O3    C1    1.216927 A    
O8    Cu1   1.973090 S    
C9    C22   1.482554 S    
C32   O10   1.392297 S    
C9    C11   1.404188 A    
C24   C26   1.414608 A    
C10   C12   1.404046 A    
C31   O9    1.392325 S    
C4    C19   1.444073 S    
C18   H10   1.085057 S    
C35   C40   1.384281 A    
C26   O16   1.396376 S    
H12   C34   1.080456 S    
C12   H8    1.082065 S    
C47   H25   1.112980 S    
C5    H3    1.081345 S    
C6    H4    1.081502 S    
C27   C40   1.482949 S    
C3    C20   1.444352 S    
O2    Cu2   1.972939 S    
C35   C37   1.397674 A    
O5    Cu1   1.973863 S    
N4    O13   1.301587 A    
C8    C10   1.403036 A    
N2    C42   1.239156 T    
H1    C15   1.081826 S    
C10   C21   1.482301 S    
