data_mof_unit_34854.cif
_audit_creation_date              2012-12-10T19:00:14-0500
_audit_creation_method            fapswitch 2.2
_symmetry_space_group_name_H-M    P1
_symmetry_Int_Tables_number       1
_space_group_crystal_system       triclinic
_cell_length_a                    9.613667
_cell_length_b                    10.985154
_cell_length_c                    13.327842
_cell_angle_alpha                 89.275317
_cell_angle_beta                  74.322825
_cell_angle_gamma                 89.747779
_cell_volume                      1355.05192158

loop_
_atom_site_label
_atom_site_type_symbol
_atom_type_description
_atom_site_fract_x
_atom_site_fract_y
_atom_site_fract_z
_atom_type_partial_charge
C1    C     C_R   0.500799 0.737557 0.497042 0.885467
C2    C     C_R   0.448940 0.443844 0.971935 0.117717
C3    C     C_R   0.494665 0.424432 0.863546 -0.017735
C4    C     C_R   0.552803 0.475083 0.025655 0.017778
C5    C     C_R   0.701252 0.465097 0.973507 0.078578
C6    C     C_R   0.743877 0.422740 0.871580 -0.162914
C7    C     C_R   0.641391 0.394094 0.818815 -0.105053
C8    C     C_R   0.514301 0.525458 0.126433 -0.172080
C9    C     C_R   0.763997 0.543647 0.125121 0.287267
C10   C     C_R   0.389295 0.425196 0.806389 -0.182064
C11   C     C_R   0.388384 0.939482 0.474852 0.058112
C12   C     C_R   0.425870 0.473047 0.696274 0.850928
C13   C     C_R   0.500707 0.871120 0.497165 -0.073979
C14   C     C_R   0.611220 0.934511 0.525850 -0.130564
C15   C     C_R   0.612198 0.062169 0.527308 -0.062887
C16   C     C_R   0.500680 0.129476 0.502789 -0.020789
C17   C     C_R   0.390054 0.065316 0.478015 -0.008365
C18   C     C_3   0.314309 0.084806 0.394524 -0.275168
C19   C     C_3   0.321529 0.943633 0.383377 0.169931
C20   C     C_R   0.949949 0.421967 0.437759 0.243949
C21   C     C_R   0.895828 0.564951 0.569698 -0.074997
C22   C     C_R   0.042117 0.565203 0.573005 0.526456
C23   C     C_R   0.500131 0.262683 0.501368 0.900131
C24   C     C_R   0.097356 0.424029 0.436585 0.166623
C25   C     C_3   0.143739 0.422993 0.320931 -0.537510
C26   C     C_3   0.985914 0.418983 0.321775 -0.290005
C27   C     C_R   0.576386 0.512230 0.299698 0.920092
C28   C     C_R   0.805115 0.503887 0.022110 -0.174419
C29   C     C_R   0.618975 0.527822 0.183464 -0.191946
C30   C     C_R   0.250146 0.380793 0.859162 -0.062998
C31   C     C_R   0.206657 0.385585 0.968359 -0.121923
C32   C     C_R   0.302454 0.423395 0.023635 -0.073986
Cu1   Cu    Cu3+1 0.359330 0.500020 0.500010 1.113049
Cu2   Cu    Cu3+1 0.640670 0.499980 0.499990 1.048791
H1    H     H_    0.701955 0.107679 0.545352 0.222270
H2    H     H_    0.814289 0.616907 0.624135 0.195265
H3    H     H_    0.194128 0.508935 0.287671 0.247854
H4    H     H_    0.207472 0.341551 0.290747 0.245497
H5    H     H_    0.949449 0.502182 0.290421 0.219343
H6    H     H_    0.856849 0.407752 0.834159 0.220841
H7    H     H_    0.916933 0.511786 0.977570 0.189657
H8    H     H_    0.264132 0.426545 0.107427 0.160064
H9    H     H_    0.099161 0.357624 0.011484 0.207487
H10   H     H_    0.698742 0.885723 0.545346 0.202118
N1    N     N_R   0.852320 0.499070 0.499340 -0.230851
N2    N     N_R   0.148230 0.499110 0.499340 -0.220129
O1    O     O_R   0.381190 0.680360 0.500000 -0.494084
O2    O     O_R   0.618780 0.680320 0.499990 -0.583702
O3    O     O_R   0.323230 0.500000 0.650990 -0.496812
O4    O     O_R   0.560820 0.499960 0.650980 -0.608514
O5    O     O_R   0.381220 0.319680 0.500010 -0.567017
O6    O     O_R   0.618810 0.319640 0.500000 -0.550760
O7    O     O_R   0.439180 0.500040 0.349020 -0.563538
O8    O     O_R   0.676770 0.500000 0.349010 -0.563856
S1    S     S_3+6 0.872251 0.660605 0.154786 0.026196
O9    O     O_2   0.823414 0.699283 0.266596 -0.250797
O10   O     O_2   0.026781 0.619104 0.129018 -0.308897
O11   O     O_3   0.863380 0.781783 0.078420 -0.434955
H11   H     H_    0.758823 0.798723 0.090912 0.361833
C33   C     C_2   0.165484 0.137566 0.441843 0.945406
O12   O     O_2   0.079710 0.146193 0.389437 -0.536262
O13   O     O_R   0.122912 0.170555 0.546706 -0.684897
H12   H     H_    0.018721 0.198099 0.569542 0.363523
C34   C     C_2   0.397258 0.155659 0.297303 0.772050
O14   O     O_2   0.515267 0.200718 0.291294 -0.582401
O15   O     O_R   0.339750 0.163746 0.211617 -0.673198
H13   H     H_    0.404174 0.211111 0.151027 0.335312
S2    S     S_3+6 0.146955 0.869841 0.409881 0.088249
O16   O     O_2   0.057336 0.897109 0.518407 -0.237464
O17   O     O_2   0.069213 0.914612 0.332555 -0.184363
O18   O     O_3   0.165672 0.719431 0.397755 -0.500153
H14   H     H_    0.081152 0.692757 0.374574 0.367452
C35   C     C_2   0.422794 0.902186 0.280820 0.915611
O19   O     O_2   0.541689 0.859302 0.277127 -0.595454
O20   O     O_R   0.380640 0.917324 0.188923 -0.664791
H15   H     H_    0.459379 0.893270 0.124775 0.338381
S3    S     S_3+6 0.066007 0.652654 0.680529 0.071793
O21   O     O_2   0.198925 0.729590 0.657594 -0.232751
O22   O     O_2   0.939618 0.737252 0.717917 -0.269047
O23   O     O_3   0.066692 0.558471 0.780129 -0.588302
H16   H     H_    0.091386 0.610686 0.832896 0.384789
C36   C     C_2   0.940685 0.304559 0.277800 0.988190
O24   O     O_2   0.818694 0.264429 0.312858 -0.528566
O25   O     O_R   0.036938 0.246391 0.194554 -0.722895
H17   H     H_    0.993750 0.171240 0.171408 0.378910
C37   C     C_2   0.402187 0.622377 0.147886 0.842058
O26   O     O_2   0.364417 0.667297 0.233663 -0.545135
O27   O     O_R   0.348767 0.670570 0.067875 -0.718058
H18   H     H_    0.275873 0.738185 0.092317 0.402541
C38   C     C_2   0.160754 0.308565 0.806006 0.912699
O28   O     O_2   0.203717 0.287485 0.713016 -0.539707
O29   O     O_R   0.031924 0.255360 0.864514 -0.772930
H19   H     H_    0.983561 0.204541 0.820564 0.361239
C39   C     C_2   0.685246 0.308218 0.730691 0.895889
O30   O     O_2   0.804613 0.316842 0.669477 -0.595240
O31   O     O_R   0.595344 0.212594 0.719491 -0.766834
H20   H     H_    0.507034 0.201830 0.780689 0.304355

loop_
_geom_bond_atom_site_label_1
_geom_bond_atom_site_label_2
_ccdc_geom_bond_type
S1    O9    D    
C27   C29   S    
C35   O19   D    
C4    C8    A    
C12   O3    A    
C23   O6    A    
C27   O8    A    
C21   H2    S    
S3    O21   D    
C11   C19   S    
C31   H9    S    
C5    C6    A    
C8    C29   A    
C33   O13   S    
C3    C7    A    
C30   C31   A    
C37   O27   S    
C26   H5    S    
Cu1   O3    S    
C15   C16   A    
C28   H7    S    
C2    C32   A    
C18   C19   S    
C25   H3    S    
C38   O29   S    
C20   C24   A    
S2    O16   D    
C9    S1    S    
C20   N1    A    
C9    C29   A    
O15   H13   S    
C26   C36   S    
C13   C14   A    
Cu1   N2    S    
C35   O20   S    
C15   H1    S    
Cu1   Cu2   S    
C21   N1    A    
S3    O22   D    
Cu1   O7    S    
Cu2   O4    S    
C19   C35   S    
C24   C25   S    
C37   O26   D    
C1    O1    A    
O11   H11   S    
C33   O12   D    
C34   O15   S    
C2    C4    A    
O20   H15   S    
O13   H12   S    
C25   H4    S    
C5    C28   A    
C10   C30   A    
C23   O5    A    
C31   C32   A    
O31   H20   S    
C17   C18   S    
C19   S2    S    
Cu2   N1    S    
O25   H17   S    
C39   O31   S    
C10   C12   S    
C18   C33   S    
C22   N2    A    
Cu2   O8    S    
C16   C23   S    
C36   O25   S    
S1    O10   D    
Cu1   O1    S    
C6    H6    S    
C1    C13   S    
C14   H10   S    
S3    O23   S    
C7    C39   S    
C11   C17   A    
C22   S3    S    
O23   H16   S    
C12   O4    A    
C27   O7    A    
C1    O2    A    
C6    C7    A    
Cu1   O5    S    
Cu2   O6    S    
C24   N2    A    
C34   O14   D    
C2    C3    A    
C25   C26   S    
O18   H14   S    
C3    C10   A    
C11   C13   A    
C18   C34   S    
C38   O28   D    
C16   C17   A    
C20   C26   S    
S2    O18   S    
O29   H19   S    
C8    C37   S    
C39   O30   D    
C4    C5    A    
Cu2   O2    S    
O27   H18   S    
S2    O17   D    
C36   O24   D    
S1    O11   S    
C32   H8    S    
C14   C15   A    
C21   C22   A    
C30   C38   S    
C9    C28   A    
