data_mof_unit_24141.cif
_audit_creation_date              2012-12-11T15:17:39-0500
_audit_creation_method            fapswitch 2.2
_symmetry_space_group_name_H-M    P1
_symmetry_Int_Tables_number       1
_space_group_crystal_system       triclinic
_cell_length_a                    15.776233
_cell_length_b                    15.775187
_cell_length_c                    34.508464
_cell_angle_alpha                 90.074128
_cell_angle_beta                  89.923691
_cell_angle_gamma                 119.973325
_cell_volume                      7439.61159233

loop_
_atom_site_label
_atom_site_type_symbol
_atom_type_description
_atom_site_fract_x
_atom_site_fract_y
_atom_site_fract_z
_atom_type_partial_charge
C1    C     C_R   0.578746 0.441195 0.555102 0.551383
C2    C     C_R   0.558817 0.137613 0.555101 0.546894
C3    C     C_R   0.862379 0.421253 0.555107 0.551983
C4    C     C_R   0.441210 0.578735 0.055054 0.552780
C5    C     C_R   0.137216 0.558741 0.054950 0.552999
C6    C     C_R   0.421284 0.862693 0.054991 0.552934
C7    C     C_R   0.975252 0.491857 0.713623 0.348798
C8    C     C_R   0.508291 0.483346 0.713673 0.348762
C9    C     C_R   0.516459 0.024644 0.713597 0.348702
C10   C     C_R   0.494992 0.981763 0.212616 0.348891
C11   C     C_R   0.484855 0.507253 0.213203 0.349005
C12   C     C_R   0.015438 0.512397 0.212162 0.348835
C13   C     C_R   0.008389 0.430461 0.854068 -0.139323
C14   C     C_R   0.569923 0.577272 0.854202 -0.139386
C15   C     C_R   0.422327 0.991820 0.854161 -0.139388
C16   C     C_R   0.432115 0.002226 0.354565 -0.140172
C17   C     C_R   0.578085 0.568932 0.353870 -0.142294
C18   C     C_R   0.980248 0.414616 0.351976 -0.131141
C19   C     C_R   0.042583 0.444954 0.891910 -0.185185
C20   C     C_R   0.555310 0.597114 0.892037 -0.185267
C21   C     C_R   0.402633 0.957644 0.892007 -0.185218
C22   C     C_R   0.445875 0.035914 0.392603 -0.192034
C23   C     C_R   0.597534 0.554539 0.391772 -0.189468
C24   C     C_R   0.947519 0.395574 0.389983 -0.161233
C25   C     C_R   0.057633 0.605950 0.892631 0.266801
C26   C     C_R   0.394249 0.451389 0.892652 0.266826
C27   C     C_R   0.548335 0.942166 0.892518 0.266795
C28   C     C_R   0.614745 0.072205 0.390171 0.261991
C29   C     C_R   0.453412 0.392216 0.391848 0.265504
C30   C     C_R   0.942023 0.546878 0.392142 0.263137
C31   C     C_R   0.020173 0.589278 0.854637 -0.102484
C32   C     C_R   0.411031 0.430464 0.854662 -0.102484
C33   C     C_R   0.569111 0.979591 0.854511 -0.102493
C34   C     C_R   0.600438 0.039039 0.351847 -0.097015
C35   C     C_R   0.432719 0.408905 0.353898 -0.101416
C36   C     C_R   0.977493 0.566530 0.353840 -0.103880
C37   C     C_R   0.002195 0.504733 0.834350 -0.007712
C38   C     C_R   0.495645 0.496898 0.834427 -0.007672
C39   C     C_R   0.502647 0.997768 0.834329 -0.007705
C40   C     C_R   0.510729 0.008281 0.333261 -0.009968
C41   C     C_R   0.498509 0.494175 0.333904 -0.007306
C42   C     C_R   0.990470 0.497509 0.332894 -0.010206
C43   C     C_R   0.073836 0.534844 0.910607 0.037074
C44   C     C_R   0.465307 0.538706 0.910659 0.037000
C45   C     C_R   0.461135 0.926176 0.910601 0.037104
C46   C     C_R   0.538604 0.077153 0.409879 0.023282
C47   C     C_R   0.539465 0.464300 0.410280 0.036367
C48   C     C_R   0.923004 0.458283 0.409759 0.035049
C49   C     C_R   0.577641 0.442451 0.445679 0.563005
C50   C     C_R   0.558126 0.135826 0.445500 0.559063
C51   C     C_R   0.864651 0.422074 0.445619 0.573018
C52   C     C_R   0.442678 0.577454 0.945783 0.563279
C53   C     C_R   0.134858 0.557348 0.945775 0.563323
C54   C     C_R   0.422530 0.865142 0.945772 0.563297
C55   C     C_R   0.913824 0.453596 0.592401 0.024762
C56   C     C_R   0.546393 0.460444 0.592404 0.023895
C57   C     C_R   0.539567 0.086123 0.592387 0.023206
C58   C     C_R   0.453984 0.915698 0.091931 0.024551
C59   C     C_R   0.460718 0.546201 0.092194 0.024376
C60   C     C_R   0.083552 0.538891 0.091705 0.024557
C61   C     C_R   0.943400 0.394564 0.611779 -0.127997
C62   C     C_R   0.605571 0.548922 0.611878 -0.129139
C63   C     C_R   0.451135 0.057023 0.611895 -0.128184
C64   C     C_R   0.394209 0.944415 0.111393 -0.127025
C65   C     C_R   0.549427 0.605197 0.111517 -0.127032
C66   C     C_R   0.051218 0.449228 0.110601 -0.127642
C67   C     C_R   0.968654 0.410469 0.650822 -0.117129
C68   C     C_R   0.589689 0.558236 0.650945 -0.117429
C69   C     C_R   0.441776 0.031745 0.650933 -0.117112
C70   C     C_R   0.410949 0.971382 0.150250 -0.116855
C71   C     C_R   0.559169 0.589026 0.150479 -0.116527
C72   C     C_R   0.023124 0.438643 0.149327 -0.116179
C73   C     C_R   0.964999 0.485826 0.671130 0.034774
C74   C     C_R   0.514210 0.479319 0.671171 0.034903
C75   C     C_R   0.520601 0.034896 0.671105 0.034927
C76   C     C_R   0.487983 0.970482 0.170213 0.034953
C77   C     C_R   0.480457 0.513427 0.170741 0.034655
C78   C     C_R   0.026907 0.517559 0.169761 0.034776
C79   C     C_R   0.944134 0.550347 0.650843 -0.116947
C80   C     C_R   0.449493 0.394142 0.650785 -0.116868
C81   C     C_R   0.605764 0.055268 0.650685 -0.117044
C82   C     C_R   0.553249 0.950795 0.149746 -0.116154
C83   C     C_R   0.395041 0.448882 0.150466 -0.116392
C84   C     C_R   0.050233 0.604023 0.149806 -0.116838
C85   C     C_R   0.918739 0.534353 0.611747 -0.128000
C86   C     C_R   0.465464 0.384775 0.611667 -0.127943
C87   C     C_R   0.615176 0.080689 0.611596 -0.130274
C88   C     C_R   0.536316 0.923506 0.110865 -0.127847
C89   C     C_R   0.385240 0.465155 0.111457 -0.127401
C90   C     C_R   0.078310 0.614595 0.111014 -0.127488
C91   C     C_R   0.986050 0.497415 0.792126 0.352018
C92   C     C_R   0.502942 0.488155 0.792191 0.352038
C93   C     C_R   0.511410 0.013885 0.792102 0.352040
C94   C     C_R   0.502555 0.992841 0.291057 0.351686
C95   C     C_R   0.489935 0.501586 0.291691 0.351617
C96   C     C_R   0.005340 0.506304 0.290638 0.352973
Cr1   Cr    Cr6+3 0.522350 0.263930 0.500020 1.046206
Cr2   Cr    Cr6+3 0.736070 0.258420 0.500020 1.041913
Cr3   Cr    Cr6+3 0.741580 0.477650 0.500020 1.042663
Cr4   Cr    Cr6+3 0.263930 0.522350 0.000020 1.047070
Cr5   Cr    Cr6+3 0.258420 0.736070 0.000020 1.046593
Cr6   Cr    Cr6+3 0.477650 0.741580 0.000020 1.046956
H1    H     H_    0.941089 0.332268 0.597489 0.131678
H2    H     H_    0.667987 0.608782 0.597647 0.131050
H3    H     H_    0.391329 0.059742 0.597714 0.132376
H4    H     H_    0.330736 0.940005 0.097372 0.133797
H5    H     H_    0.609167 0.667675 0.097269 0.133798
H6    H     H_    0.053521 0.389302 0.096249 0.133646
H7    H     H_    0.896740 0.581384 0.597441 0.130860
H8    H     H_    0.418295 0.315865 0.597279 0.131112
H9    H     H_    0.684058 0.102292 0.597185 0.128199
H10   H     H_    0.583978 0.902370 0.096444 0.131552
H11   H     H_    0.316181 0.418111 0.097173 0.132189
H12   H     H_    0.102200 0.684356 0.097004 0.131983
H13   H     H_    0.049885 0.387455 0.905719 0.128129
H14   H     H_    0.612792 0.661874 0.905891 0.128254
H15   H     H_    0.337922 0.950516 0.905901 0.128262
H16   H     H_    0.385247 0.035019 0.407679 0.128477
H17   H     H_    0.661833 0.612402 0.405763 0.123465
H18   H     H_    0.935347 0.327903 0.402973 0.164529
H19   H     H_    0.986395 0.360664 0.665478 0.139418
H20   H     H_    0.639630 0.625635 0.665684 0.139183
H21   H     H_    0.374396 0.014391 0.665694 0.139518
H22   H     H_    0.360584 0.988204 0.165073 0.139915
H23   H     H_    0.626731 0.638832 0.165128 0.140213
H24   H     H_    0.003465 0.370288 0.163723 0.141022
H25   H     H_    0.942012 0.609886 0.665591 0.139556
H26   H     H_    0.389842 0.332576 0.665471 0.139582
H27   H     H_    0.667269 0.056986 0.665325 0.139197
H28   H     H_    0.614084 0.950812 0.164246 0.140423
H29   H     H_    0.333619 0.389135 0.165180 0.140438
H30   H     H_    0.052429 0.665604 0.164652 0.140045
H31   H     H_    0.991403 0.362696 0.839713 0.150160
H32   H     H_    0.637749 0.627922 0.839889 0.150170
H33   H     H_    0.371637 0.008970 0.839892 0.150177
H34   H     H_    0.361259 0.976402 0.341243 0.150376
H35   H     H_    0.628359 0.637058 0.339673 0.146952
H36   H     H_    0.992531 0.361351 0.336979 0.156645
H37   H     H_    0.008642 0.643856 0.840503 0.137129
H38   H     H_    0.356480 0.364389 0.840481 0.137047
H39   H     H_    0.635133 0.990969 0.840288 0.137065
H40   H     H_    0.661906 0.043397 0.336079 0.149473
H41   H     H_    0.367460 0.353492 0.339540 0.138972
H42   H     H_    0.991156 0.633738 0.340021 0.138014
N1    N     N_R   0.983710 0.422276 0.772054 -0.223118
N2    N     N_R   0.578169 0.560861 0.772187 -0.223188
N3    N     N_R   0.438769 0.016618 0.772158 -0.223114
N4    N     N_R   0.425001 0.986637 0.271598 -0.221869
N5    N     N_R   0.562636 0.576859 0.271707 -0.223547
N6    N     N_R   0.004576 0.432344 0.270264 -0.219522
N7    N     N_R   0.978027 0.419346 0.733628 -0.225554
N8    N     N_R   0.581000 0.558313 0.733752 -0.225641
N9    N     N_R   0.441430 0.022283 0.733732 -0.225473
N10   N     N_R   0.421131 0.980832 0.233157 -0.224892
N11   N     N_R   0.559952 0.579842 0.233280 -0.225535
N12   N     N_R   0.009937 0.435504 0.231853 -0.224246
N13   N     N_R   0.976875 0.566805 0.733653 -0.224447
N14   N     N_R   0.433265 0.410100 0.733635 -0.224501
N15   N     N_R   0.589626 0.022623 0.733499 -0.224691
N16   N     N_R   0.572310 0.987340 0.232068 -0.223605
N17   N     N_R   0.411676 0.432168 0.233152 -0.223924
N18   N     N_R   0.016678 0.586795 0.232480 -0.224383
N19   N     N_R   0.982827 0.569863 0.772154 -0.226826
N20   N     N_R   0.430308 0.412789 0.772145 -0.226859
N21   N     N_R   0.586825 0.016691 0.772001 -0.226880
N22   N     N_R   0.576305 0.993414 0.270529 -0.225936
N23   N     N_R   0.414497 0.429059 0.271642 -0.226453
N24   N     N_R   0.011052 0.583503 0.270989 -0.226818
O1    O     O_R   0.498680 0.159540 0.541860 -0.521072
O2    O     O_R   0.840460 0.339140 0.541860 -0.524241
O3    O     O_R   0.660860 0.501320 0.541860 -0.522709
O4    O     O_R   0.159540 0.498680 0.041860 -0.520855
O5    O     O_R   0.339140 0.840460 0.041860 -0.521408
O6    O     O_R   0.501320 0.660860 0.041860 -0.520833
O7    O     O_R   0.532760 0.358060 0.540030 -0.504254
O8    O     O_R   0.641940 0.174700 0.540030 -0.511930
O9    O     O_R   0.825300 0.467240 0.540030 -0.504784
O10   O     O_R   0.358060 0.532760 0.040030 -0.504220
O11   O     O_R   0.174700 0.641940 0.040030 -0.504658
O12   O     O_R   0.467240 0.825300 0.040030 -0.504124
O13   O     O_R   0.498590 0.161190 0.456930 -0.536475
O14   O     O_R   0.838810 0.337400 0.456930 -0.511898
O15   O     O_R   0.662600 0.501410 0.456930 -0.540169
O16   O     O_R   0.161190 0.498590 0.956930 -0.537579
O17   O     O_R   0.337400 0.838810 0.956930 -0.537689
O18   O     O_R   0.501410 0.662600 0.956930 -0.537449
O19   O     O_R   0.532680 0.359580 0.461300 -0.450373
O20   O     O_R   0.640420 0.173100 0.461300 -0.449684
O21   O     O_R   0.826900 0.467320 0.461300 -0.455634
O22   O     O_R   0.359580 0.532680 0.961300 -0.451484
O23   O     O_R   0.173100 0.640420 0.961300 -0.451703
O24   O     O_R   0.467320 0.826900 0.961300 -0.451587
O25   O     O_3   0.666667 0.333333 0.499990 -0.260713
O26   O     O_3   0.333333 0.666667 0.999990 -0.263838
O27   O     O_3   0.073657 0.688206 0.913196 -0.549755
C97   C     C_3   0.144244 0.773674 0.894179 -0.095538
H43   H     H_    0.112415 0.790430 0.868649 0.109819
H44   H     H_    0.209859 0.768860 0.885626 0.122456
H45   H     H_    0.168636 0.835866 0.914593 0.149569
O28   O     O_3   0.311950 0.385306 0.913189 -0.549719
C98   C     C_3   0.226501 0.370181 0.894100 -0.095693
H46   H     H_    0.209851 0.321301 0.868631 0.109921
H47   H     H_    0.231250 0.440469 0.885442 0.122238
H48   H     H_    0.164277 0.332624 0.914504 0.149539
O29   O     O_3   0.614486 0.926018 0.912999 -0.549762
C99   C     C_3   0.629373 0.855409 0.893916 -0.095619
H49   H     H_    0.677923 0.887220 0.868344 0.109867
H50   H     H_    0.558975 0.789806 0.885418 0.122404
H51   H     H_    0.667190 0.831008 0.914265 0.149503
O30   O     O_3   0.707229 0.111981 0.406055 -0.546722
C100  C     C_3   0.719007 0.035053 0.420582 -0.110364
H52   H     H_    0.716508 0.985901 0.396894 0.109976
H53   H     H_    0.663054 0.992398 0.443082 0.112103
H54   H     H_    0.791953 0.066951 0.434502 0.139101
O31   O     O_3   0.388373 0.308213 0.411706 -0.552022
C101  C     C_3   0.380655 0.225159 0.392921 -0.090498
H55   H     H_    0.453817 0.233856 0.386448 0.130081
H56   H     H_    0.336195 0.207685 0.366094 0.109087
H57   H     H_    0.341909 0.161631 0.412617 0.150548
O32   O     O_3   0.929419 0.614805 0.413091 -0.552804
C102  C     C_3   0.857884 0.630224 0.395203 -0.095239
H58   H     H_    0.791155 0.560039 0.387379 0.127923
H59   H     H_    0.888074 0.677944 0.369332 0.108855
H60   H     H_    0.835523 0.668933 0.416073 0.144998

loop_
_geom_bond_atom_site_label_1
_geom_bond_atom_site_label_2
_ccdc_geom_bond_type
C25   C31   A    
C26   C32   A    
Cr1   O7    S    
Cr4   O4    S    
Cr6   O12   S    
C98   H46   S    
C6    C58   S    
Cr5   O5    S    
C101  H57   S    
C91   N1    A    
C51   O14   A    
C8    N14   A    
C25   C43   A    
C2    C57   S    
C26   C44   A    
C7    C73   S    
O29   C99   S    
C27   C33   A    
C28   C46   A    
C33   C39   A    
C54   O24   A    
C29   C47   A    
C34   C40   A    
C30   C48   A    
C61   H1    S    
C1    C56   S    
C101  H56   S    
Cr3   O9    S    
C102  H60   S    
C85   H7    S    
C32   C38   A    
C18   C42   A    
C23   H17   S    
C99   H50   S    
C55   C85   A    
C29   O31   S    
C87   H9    S    
C27   C45   A    
C9    N15   A    
C68   C74   A    
C22   C46   A    
C38   C92   S    
C11   N17   A    
Cr1   O1    S    
N17   N23   A    
Cr1   O19   S    
C59   C89   A    
Cr1   O25   S    
C18   H36   S    
C39   C93   S    
C1    O7    A    
C21   H15   S    
C11   C77   S    
C2    O8    A    
C49   O15   A    
C3    C55   S    
C43   C53   S    
C48   C51   S    
C5    O11   A    
C63   C69   A    
O28   C98   S    
N4    N10   A    
C54   O17   A    
C12   C78   S    
Cr4   O16   S    
C80   C86   A    
C96   N24   A    
C69   C75   A    
C58   C88   A    
C67   C73   A    
N16   N22   A    
C63   H3    S    
C26   O28   S    
N13   N19   A    
C13   C37   A    
C25   O27   S    
C11   N11   A    
C6    O12   A    
C44   C52   S    
C93   N21   A    
C74   C80   A    
C58   C64   A    
C98   H47   S    
C91   N19   A    
C84   C90   A    
C12   N12   A    
C97   H45   S    
Cr5   O17   S    
C67   H19   S    
O32   C102  S    
C20   C44   A    
C19   C43   A    
C46   C50   S    
C57   C63   A    
C62   H2    S    
C36   C42   A    
C94   N4    A    
C83   C89   A    
C66   C72   A    
C24   H18   S    
C17   C41   A    
C23   C47   A    
C37   C91   S    
C92   N2    A    
Cr3   O15   S    
C24   C48   A    
C14   C20   A    
C101  H55   S    
C47   C49   S    
C5    O4    A    
C60   C90   A    
C53   O16   A    
C68   H20   S    
C64   H4    S    
C20   H14   S    
C13   C19   A    
C99   H49   S    
C75   C81   A    
C52   O22   A    
C14   H32   S    
C33   H39   S    
C65   C71   A    
C12   N18   A    
C1    O3    A    
C77   C83   A    
C57   C87   A    
Cr2   O25   S    
C31   C37   A    
C21   C45   A    
Cr2   O2    S    
Cr2   O14   S    
O31   C101  S    
Cr6   O18   S    
C83   H29   S    
C102  H58   S    
Cr5   O11   S    
C78   C84   A    
C14   C38   A    
Cr2   O8    S    
C61   C67   A    
C81   H27   S    
C100  H52   S    
C49   O19   A    
C89   H11   S    
C19   H13   S    
C66   H6    S    
C96   N6    A    
C8    C74   S    
C51   O21   A    
C73   C79   A    
C17   C23   A    
C56   C86   A    
Cr1   O13   S    
C53   O23   A    
C15   C39   A    
N1    N7    A    
C35   C41   A    
C16   C40   A    
C60   C66   A    
C7    N7    A    
C97   H44   S    
C100  H53   S    
C45   C54   S    
N6    N12   A    
C64   C70   A    
C70   H22   S    
C70   C76   A    
C9    N9    A    
C98   H48   S    
C18   C24   A    
Cr4   O26   S    
C50   O13   A    
C82   H28   S    
C76   C82   A    
C52   O18   A    
C10   N16   A    
C40   C94   S    
C71   C77   A    
Cr5   O26   S    
C30   O32   S    
C22   H16   S    
C79   H25   S    
N5    N11   A    
C34   H40   S    
C16   C22   A    
C5    C60   S    
C86   H8    S    
C10   C76   S    
Cr4   O10   S    
Cr4   O22   S    
C4    O10   A    
C97   H43   S    
Cr5   O23   S    
C95   N23   A    
C50   O20   A    
C3    O2    A    
C32   H38   S    
C95   N5    A    
C7    N13   A    
C6    O5    A    
N14   N20   A    
Cr6   O6    S    
C80   H26   S    
C29   C35   A    
Cr3   O25   S    
Cr3   O21   S    
C31   H37   S    
C62   C68   A    
C42   C96   S    
C72   H24   S    
C3    O9    A    
C28   O30   S    
C30   C36   A    
C59   C65   A    
C10   N10   A    
C81   C87   A    
C99   H51   S    
C92   N20   A    
C41   C95   S    
C8    N8    A    
N2    N8    A    
C82   C88   A    
C55   C61   A    
C4    C59   S    
C4    O6    A    
C79   C85   A    
C84   H30   S    
C93   N3    A    
C56   C62   A    
Cr6   O24   S    
C90   H12   S    
C36   H42   S    
N3    N9    A    
C13   H31   S    
C94   N22   A    
N18   N24   A    
C2    O1    A    
C28   C34   A    
O27   C97   S    
C88   H10   S    
Cr6   O26   S    
N15   N21   A    
C15   C21   A    
C100  H54   S    
C15   H33   S    
C102  H59   S    
O30   C100  S    
C72   C78   A    
C69   H21   S    
C71   H23   S    
C17   H35   S    
C9    C75   S    
C27   O29   S    
Cr2   O20   S    
C65   H5    S    
Cr3   O3    S    
C35   H41   S    
C16   H34   S    
