data_mof_unit_38604.cif
_audit_creation_date              2012-12-10T20:41:48-0500
_audit_creation_method            fapswitch 2.2
_symmetry_space_group_name_H-M    P1
_symmetry_Int_Tables_number       1
_space_group_crystal_system       triclinic
_cell_length_a                    15.174302
_cell_length_b                    15.183371
_cell_length_c                    9.947561
_cell_angle_alpha                 87.596333
_cell_angle_beta                  86.93795
_cell_angle_gamma                 90.205795
_cell_volume                      2286.56386906

loop_
_atom_site_label
_atom_site_type_symbol
_atom_type_description
_atom_site_fract_x
_atom_site_fract_y
_atom_site_fract_z
_atom_type_partial_charge
C1    C     C_R   0.380003 0.879665 0.504328 0.938125
C2    C     C_R   0.383881 0.123239 0.499937 0.965173
C3    C     C_R   0.880003 0.379665 0.504328 0.938129
C4    C     C_R   0.883881 0.623239 0.499937 0.965176
C5    C     C_3   0.214605 0.144558 0.692181 1.042696
C6    C     C_3   0.345653 0.678652 0.680347 1.077341
C7    C     C_3   0.714599 0.644551 0.692172 1.042688
C8    C     C_3   0.845652 0.178654 0.680351 1.077340
C9    C     C_R   0.422829 0.002384 0.078173 -0.057637
C10   C     C_R   0.922829 0.502384 0.078173 -0.057638
C11   C     C_R   0.576284 0.008896 0.066472 0.438996
C12   C     C_R   0.076284 0.508895 0.066472 0.438999
C13   C     C_R   0.576759 0.002467 0.922182 0.408418
C14   C     C_R   0.076759 0.502467 0.922181 0.408423
C15   C     C_R   0.422112 0.001026 0.936062 -0.002114
C16   C     C_R   0.922112 0.501026 0.936062 -0.002132
C17   C     C_3   0.351460 0.929920 0.951435 1.016514
C18   C     C_3   0.851459 0.429920 0.951437 1.016513
C19   C     C_3   0.350449 0.938332 0.105205 -0.613269
C20   C     C_3   0.850450 0.438330 0.105206 -0.613259
C21   C     C_R   0.621120 0.118656 0.494324 0.921189
C22   C     C_R   0.622840 0.883144 0.498703 0.911483
C23   C     C_R   0.121119 0.618657 0.494324 0.921192
C24   C     C_R   0.122840 0.383144 0.498703 0.911479
C25   C     C_R   0.274157 0.211419 0.616482 -0.057305
C26   C     C_R   0.330939 0.727582 0.546572 -0.023369
C27   C     C_R   0.774153 0.711415 0.616480 -0.057304
C28   C     C_R   0.830939 0.227582 0.546574 -0.023367
C29   C     C_R   0.327437 0.198262 0.501508 -0.148007
C30   C     C_R   0.311118 0.815125 0.511981 -0.152617
C31   C     C_R   0.827436 0.698261 0.501509 -0.148007
C32   C     C_R   0.811118 0.315125 0.511980 -0.152620
C33   C     C_R   0.323761 0.256517 0.388950 -0.337747
C34   C     C_R   0.235336 0.834115 0.441547 -0.339467
C35   C     C_R   0.823762 0.756518 0.388953 -0.337746
C36   C     C_R   0.735338 0.334114 0.441542 -0.339469
C37   C     C_R   0.760746 0.823980 0.388503 0.514860
C38   C     C_R   0.671539 0.268373 0.429800 0.499566
C39   C     C_R   0.260746 0.323979 0.388501 0.514863
C40   C     C_R   0.171537 0.768375 0.429806 0.499565
C41   C     C_R   0.697269 0.825381 0.497527 -0.152292
C42   C     C_R   0.690384 0.182291 0.476303 -0.157522
C43   C     C_R   0.197271 0.325382 0.497528 -0.152295
C44   C     C_R   0.190383 0.682292 0.476304 -0.157523
C45   C     C_R   0.707903 0.772329 0.612163 -0.131334
C46   C     C_R   0.774675 0.160565 0.514849 -0.128159
C47   C     C_R   0.207908 0.272334 0.612166 -0.131326
C48   C     C_R   0.274674 0.660566 0.514846 -0.128159
C49   C     C_3   0.641137 0.712102 0.682638 -0.545801
C50   C     C_3   0.798415 0.099926 0.627356 -0.627496
C51   C     C_3   0.141145 0.212111 0.682655 -0.545822
C52   C     C_3   0.298416 0.599925 0.627351 -0.627501
H1    H     H_    0.292589 0.972536 0.151542 0.198620
H2    H     H_    0.368302 0.877884 0.163002 0.211473
H3    H     H_    0.792590 0.472533 0.151546 0.198617
H4    H     H_    0.868304 0.377882 0.163000 0.211473
H5    H     H_    0.617224 0.736545 0.781304 0.185910
H6    H     H_    0.842992 0.047396 0.589491 0.182642
H7    H     H_    0.117240 0.236559 0.781322 0.185907
H8    H     H_    0.342992 0.547395 0.589484 0.182643
N1    N     N_R   0.499140 0.000000 0.142800 -0.145166
N2    N     N_R   0.999140 0.500000 0.142800 -0.145165
N3    N     N_R   0.499160 0.000000 0.857150 -0.171209
N4    N     N_R   0.999160 0.500000 0.857150 -0.171208
O1    O     O_R   0.408400 0.908380 0.614690 -0.542063
O2    O     O_R   0.408400 0.091620 0.614690 -0.612751
O3    O     O_R   0.908400 0.408380 0.614690 -0.542067
O4    O     O_R   0.908400 0.591620 0.614690 -0.612754
O5    O     O_R   0.408370 0.908370 0.385350 -0.640560
O6    O     O_R   0.408370 0.091630 0.385350 -0.616438
O7    O     O_R   0.908370 0.408370 0.385350 -0.640559
O8    O     O_R   0.908370 0.591630 0.385350 -0.616437
O9    O     O_R   0.591610 0.091610 0.614650 -0.631292
O10   O     O_R   0.591610 0.908390 0.614650 -0.584795
O11   O     O_R   0.091610 0.591610 0.614650 -0.631290
O12   O     O_R   0.091610 0.408390 0.614650 -0.584789
O13   O     O_R   0.591590 0.091600 0.385310 -0.564526
O14   O     O_R   0.591590 0.908400 0.385310 -0.555304
O15   O     O_R   0.091590 0.591600 0.385310 -0.564529
O16   O     O_R   0.091590 0.408400 0.385310 -0.555302
Zn1   Zn    Zn3+2 0.500010 0.000000 0.653130 1.033032
Zn2   Zn    Zn3+2 0.000010 0.500000 0.653130 1.033032
Zn3   Zn    Zn3+2 0.499980 0.000000 0.346870 1.016405
Zn4   Zn    Zn3+2 0.999980 0.500000 0.346870 1.016406
H9    H     H_    0.367120 0.247523 0.300613 0.183012
H10   H     H_    0.224834 0.900179 0.400196 0.179475
H11   H     H_    0.867123 0.747525 0.300617 0.183013
H12   H     H_    0.724837 0.400177 0.400187 0.179476
O17   O     O_3   0.754414 0.881442 0.277460 -0.558957
C53   C     C_3   0.833637 0.930290 0.255491 -0.308950
H13   H     H_    0.852566 0.962316 0.348578 0.143950
H14   H     H_    0.823868 0.983330 0.178057 0.204108
H15   H     H_    0.888137 0.888805 0.214924 0.145526
O18   O     O_3   0.591779 0.285994 0.372500 -0.609778
C54   C     C_3   0.545421 0.350606 0.445166 -0.402515
H16   H     H_    0.572879 0.417338 0.418735 0.178451
H17   H     H_    0.544068 0.336079 0.556028 0.146180
H18   H     H_    0.476190 0.350980 0.415979 0.195668
O19   O     O_3   0.254413 0.381441 0.277457 -0.558951
C55   C     C_3   0.333635 0.430289 0.255487 -0.308952
H19   H     H_    0.352566 0.462313 0.348574 0.143949
H20   H     H_    0.323865 0.483330 0.178055 0.204104
H21   H     H_    0.388135 0.388804 0.214917 0.145523
O20   O     O_3   0.091775 0.785997 0.372512 -0.609779
C56   C     C_3   0.045420 0.850610 0.445182 -0.402512
H22   H     H_    0.072877 0.917341 0.418750 0.178453
H23   H     H_    0.044070 0.836083 0.556043 0.146180
H24   H     H_    0.976188 0.850984 0.416000 0.195668
H25   H     H_    0.588901 0.694824 0.614317 0.231319
H26   H     H_    0.743347 0.074196 0.691668 0.267535
H27   H     H_    0.088903 0.194833 0.614344 0.231323
H28   H     H_    0.243348 0.574194 0.691665 0.267532
O21   O     O_3   0.233912 0.120272 0.827789 -0.580902
C57   C     C_3   0.289923 0.179534 0.888897 -0.344535
H29   H     H_    0.263172 0.247250 0.886725 0.136845
H30   H     H_    0.357686 0.178639 0.840901 0.178431
H31   H     H_    0.294490 0.157969 0.996214 0.203822
O22   O     O_3   0.435682 0.661514 0.698640 -0.646833
C58   C     C_3   0.444721 0.598248 0.806255 -0.405515
H32   H     H_    0.392524 0.600952 0.888912 0.200961
H33   H     H_    0.507817 0.610408 0.853381 0.182574
H34   H     H_    0.445924 0.530792 0.767337 0.154719
O23   O     O_3   0.733900 0.620266 0.827782 -0.580906
C59   C     C_3   0.789908 0.679527 0.888896 -0.344523
H35   H     H_    0.763157 0.747243 0.886725 0.136844
H36   H     H_    0.857673 0.678633 0.840904 0.178432
H37   H     H_    0.794473 0.657961 0.996213 0.203821
O24   O     O_3   0.935681 0.161517 0.698646 -0.646838
C60   C     C_3   0.944720 0.098253 0.806264 -0.405510
H38   H     H_    0.892521 0.100959 0.888921 0.200968
H39   H     H_    0.007815 0.110416 0.853392 0.182568
H40   H     H_    0.945923 0.030797 0.767351 0.154720
O25   O     O_3   0.205224 0.069859 0.612767 -0.622009
C61   C     C_3   0.130811 0.018457 0.655702 -0.297749
H41   H     H_    0.074231 0.037650 0.594867 0.166706
H42   H     H_    0.112236 0.022921 0.764221 0.187664
H43   H     H_    0.146140 0.948529 0.638089 0.178312
O26   O     O_3   0.304230 0.715254 0.798028 -0.579426
C62   C     C_3   0.215101 0.740726 0.789252 -0.337353
H44   H     H_    0.172569 0.690493 0.749643 0.177106
H45   H     H_    0.209901 0.804375 0.732128 0.199060
H46   H     H_    0.186998 0.749096 0.892452 0.167368
O27   O     O_3   0.705224 0.569852 0.612757 -0.622012
C63   C     C_3   0.630812 0.518448 0.655686 -0.297750
H47   H     H_    0.574232 0.537639 0.594849 0.166699
H48   H     H_    0.612234 0.522910 0.764204 0.187664
H49   H     H_    0.646144 0.448520 0.638074 0.178311
O28   O     O_3   0.804226 0.215256 0.798030 -0.579424
C64   C     C_3   0.715099 0.240729 0.789250 -0.337353
H50   H     H_    0.672567 0.190497 0.749639 0.177104
H51   H     H_    0.709899 0.304378 0.732127 0.199060
H52   H     H_    0.686994 0.249098 0.892449 0.167367
O29   O     O_3   0.653378 0.018600 0.132081 -0.548338
C65   C     C_3   0.688025 0.103957 0.102116 -0.273555
H53   H     H_    0.636363 0.155990 0.106436 0.152840
H54   H     H_    0.724707 0.106517 0.002598 0.198257
H55   H     H_    0.735812 0.119237 0.178554 0.182895
O30   O     O_3   0.153378 0.518599 0.132081 -0.548335
C66   C     C_3   0.188025 0.603957 0.102117 -0.273572
H56   H     H_    0.136362 0.655989 0.106431 0.152836
H57   H     H_    0.224710 0.606515 0.002601 0.198248
H58   H     H_    0.235808 0.619238 0.178560 0.182900
O31   O     O_3   0.654885 0.997775 0.846382 -0.609662
C67   C     C_3   0.699863 0.919664 0.881145 -0.278850
H59   H     H_    0.654573 0.862072 0.899799 0.147895
H60   H     H_    0.746730 0.904587 0.795970 0.173509
H61   H     H_    0.739764 0.928716 0.969766 0.207806
O32   O     O_3   0.154885 0.497773 0.846379 -0.609664
C68   C     C_3   0.199873 0.419672 0.881159 -0.278807
H62   H     H_    0.154590 0.362079 0.899875 0.147874
H63   H     H_    0.246721 0.404576 0.795969 0.173508
H64   H     H_    0.239797 0.428751 0.969747 0.207786
O33   O     O_3   0.272760 0.958529 0.893278 -0.533792
C69   C     C_3   0.196356 0.921384 0.962562 -0.286404
H65   H     H_    0.164269 0.971871 0.025912 0.172701
H66   H     H_    0.209187 0.861608 0.027165 0.152756
H67   H     H_    0.148336 0.902435 0.889082 0.143227
O34   O     O_3   0.380405 0.849495 0.895428 -0.544666
C70   C     C_3   0.444026 0.802218 0.967854 -0.284516
H68   H     H_    0.410626 0.755995 0.043837 0.163425
H69   H     H_    0.492105 0.844242 0.015566 0.102321
H70   H     H_    0.483259 0.762780 0.896202 0.223694
O35   O     O_3   0.772759 0.458529 0.893282 -0.533795
C71   C     C_3   0.696355 0.421385 0.962567 -0.286386
H71   H     H_    0.664269 0.471871 0.025919 0.172698
H72   H     H_    0.709186 0.361608 0.027168 0.152758
H73   H     H_    0.648335 0.402436 0.889087 0.143227
O36   O     O_3   0.880401 0.349493 0.895431 -0.544668
C72   C     C_3   0.944031 0.302222 0.967845 -0.284500
H74   H     H_    0.910640 0.255993 0.043827 0.163424
H75   H     H_    0.992107 0.344248 0.015556 0.102310
H76   H     H_    0.983264 0.262791 0.896185 0.223700

loop_
_geom_bond_atom_site_label_1
_geom_bond_atom_site_label_2
_ccdc_geom_bond_type
C17   O34   S    
C57   H30   S    
C29   C33   A    
C11   C13   A    
C68   H62   S    
C54   H16   S    
O16   Zn4   S    
O24   C60   S    
C61   H43   S    
C7    O27   S    
C57   H29   S    
C54   H18   S    
C49   H5    S    
O23   C59   S    
C6    C52   S    
C8    O28   S    
O33   C69   S    
C36   H12   S    
C5    O25   S    
C56   H23   S    
C28   C46   A    
C33   C39   A    
N3    Zn1   S    
C2    C29   S    
C9    N1    A    
C32   C36   A    
C49   H25   S    
C67   H59   S    
C35   C37   A    
C9    C19   S    
C38   C42   A    
C64   H51   S    
C66   H56   S    
C42   C46   A    
O15   Zn4   S    
C62   H46   S    
C22   C41   S    
C52   H28   S    
O27   C63   S    
C21   O9    A    
C50   H26   S    
C7    C27   S    
C71   H71   S    
C18   C20   S    
C60   H39   S    
C34   H10   S    
C72   H75   S    
C33   H9    S    
C69   H65   S    
C1    C30   S    
C52   H8    S    
O22   C58   S    
C35   H11   S    
O14   Zn3   S    
C24   O16   A    
O31   C67   S    
C17   O33   S    
N4    Zn2   S    
C1    O1    A    
C66   H57   S    
C15   N3    A    
C25   C47   A    
C40   C44   A    
C65   H54   S    
C26   C48   A    
C60   H40   S    
C27   C45   A    
O29   C65   S    
C68   H63   S    
C63   H49   S    
C10   N2    A    
C20   H3    S    
O9    Zn1   S    
O20   C56   S    
C8    O24   S    
C13   O31   S    
O7    Zn4   S    
C58   H33   S    
C25   C29   A    
C57   H31   S    
C56   H24   S    
C30   C34   A    
C27   C31   A    
C50   H6    S    
O34   C70   S    
C28   C32   A    
O28   C64   S    
C22   O14   A    
C65   H55   S    
C63   H48   S    
N1    Zn3   S    
C64   H52   S    
O12   Zn2   S    
C4    O4    A    
C60   H38   S    
C24   O12   A    
C47   C51   S    
C11   N1    A    
C55   H21   S    
C1    O5    A    
C23   C44   S    
C21   C42   S    
O36   C72   S    
C6    O26   S    
C72   H76   S    
C3    O7    A    
O35   C71   S    
O5    Zn3   S    
C40   O20   S    
C12   N2    A    
C53   H14   S    
O19   C55   S    
C13   N3    A    
C45   C49   S    
C62   H44   S    
C14   N4    A    
C38   O18   S    
C55   H20   S    
C6    C26   S    
C66   H58   S    
C3    C32   S    
O6    Zn3   S    
C69   H67   S    
C7    C49   S    
C65   H53   S    
O8    Zn4   S    
C59   H37   S    
C5    C25   S    
C19   H2    S    
O32   C68   S    
C12   C14   A    
C26   C30   A    
O25   C61   S    
C8    C28   S    
C68   H64   S    
C34   C40   A    
C51   H7    S    
C22   O10   A    
O10   Zn1   S    
C14   O32   S    
C36   C38   A    
C8    C50   S    
C4    O8    A    
C53   H15   S    
C59   H36   S    
O21   C57   S    
C58   H34   S    
C72   H74   S    
C15   C17   S    
N2    Zn4   S    
C51   H27   S    
C5    O21   S    
C67   H61   S    
C3    O3    A    
O13   Zn3   S    
C23   O11   A    
C63   H47   S    
C2    O2    A    
C61   H42   S    
C58   H32   S    
C54   H17   S    
O11   Zn2   S    
C61   H41   S    
C56   H22   S    
C46   C50   S    
C71   H73   S    
C37   O17   S    
C23   O15   A    
C70   H70   S    
C67   H60   S    
C9    C15   A    
O4    Zn2   S    
C10   C16   A    
C64   H50   S    
O2    Zn1   S    
C62   H45   S    
C19   H1    S    
C53   H13   S    
O30   C66   S    
C10   C20   S    
C18   O35   S    
C18   O36   S    
C55   H19   S    
C17   C19   S    
C71   H72   S    
C31   C35   A    
C20   H4    S    
C37   C41   A    
O18   C54   S    
C69   H66   S    
C4    C31   S    
O26   C62   S    
C11   O29   S    
C70   H68   S    
C39   O19   S    
C48   C52   S    
C39   C43   A    
O3    Zn2   S    
C16   C18   S    
C21   O13   A    
C24   C43   S    
C41   C45   A    
O1    Zn1   S    
C5    C51   S    
C16   N4    A    
C12   O30   S    
O17   C53   S    
C2    O6    A    
C43   C47   A    
C6    O22   S    
C44   C48   A    
C7    O23   S    
C59   H35   S    
C70   H69   S    
