data_mof_unit_10483.cif
_audit_creation_date              2012-12-10T19:54:18-0500
_audit_creation_method            fapswitch 2.2
_symmetry_space_group_name_H-M    P1
_symmetry_Int_Tables_number       1
_space_group_crystal_system       triclinic
_cell_length_a                    15.743892
_cell_length_b                    14.917931
_cell_length_c                    14.181973
_cell_angle_alpha                 90.360592
_cell_angle_beta                  90.982284
_cell_angle_gamma                 89.990514
_cell_volume                      3330.31199487

loop_
_atom_site_label
_atom_site_type_symbol
_atom_type_description
_atom_site_fract_x
_atom_site_fract_y
_atom_site_fract_z
_atom_type_partial_charge
C1    C     C_R   0.498065 0.327450 0.499721 0.880155
C2    C     C_R   0.503256 0.910642 0.577271 -0.172458
C3    C     C_R   0.458515 0.048351 0.498359 -0.014037
C4    C     C_R   0.459444 0.951257 0.502020 -0.008348
C5    C     C_R   0.431531 0.466531 0.102724 -0.347298
C6    C     C_R   0.543521 0.566050 0.896374 -0.378920
C7    C     C_R   0.432541 0.465307 0.202038 0.627360
C8    C     C_R   0.544261 0.564410 0.796667 0.623438
C9    C     C_R   0.568323 0.533211 0.206246 -0.091013
C10   C     C_R   0.458074 0.434376 0.794260 -0.071505
C11   C     C_R   0.570633 0.532794 0.107051 -0.280685
C12   C     C_R   0.498531 0.672445 0.500209 0.884533
C13   C     C_R   0.458479 0.432195 0.893417 -0.278826
C14   C     C_R   0.501383 0.499309 0.053173 0.106635
C15   C     C_R   0.501352 0.498932 0.946600 0.113262
C16   C     C_R   0.337859 0.499175 0.499132 0.883942
C17   C     C_R   0.662097 0.500535 0.500672 0.896661
C18   C     C_3   0.969506 0.422707 0.519678 0.435823
C19   C     C_3   0.030346 0.576472 0.458814 0.492807
C20   C     C_3   0.025317 0.431725 0.430885 -0.468402
C21   C     C_3   0.975187 0.568343 0.547663 -0.532343
C22   C     C_1   0.249078 0.496734 0.496480 -0.158175
C23   C     C_R   0.450368 0.190821 0.577977 -0.272152
C24   C     C_1   0.750772 0.502866 0.501199 -0.198505
C25   C     C_3   0.027748 0.485354 0.576785 0.445286
C26   C     C_3   0.971374 0.513963 0.401353 0.458850
C27   C     C_3   0.083159 0.495464 0.489463 -0.042771
C28   C     C_3   0.916155 0.504736 0.489762 -0.113267
C29   C     C_1   0.173912 0.495188 0.492994 0.088121
C30   C     C_1   0.825766 0.504599 0.497438 0.020857
C31   C     C_R   0.434186 0.099584 0.577329 0.491193
C32   C     C_R   0.426111 0.899127 0.426694 0.466290
C33   C     C_3   0.983919 0.270003 0.548977 0.108536
C34   C     C_R   0.442192 0.807875 0.425481 -0.246163
C35   C     C_3   0.954635 0.211335 0.465601 -0.346119
C36   C     C_3   0.007890 0.126361 0.458147 -0.993893
C37   C     C_3   0.004729 0.723582 0.419101 0.111540
C38   C     C_3   0.034788 0.798128 0.354448 -0.303508
C39   C     C_3   0.969521 0.873699 0.348432 -1.000691
C40   C     C_3   0.869487 0.510305 0.278095 0.087785
C41   C     C_3   0.856614 0.408252 0.272934 -0.372282
C42   C     C_3   0.768165 0.384835 0.234585 -0.943990
C43   C     C_3   0.000624 0.478514 0.735668 0.099270
C44   C     C_3   0.033616 0.441141 0.829378 -0.322538
C45   C     C_R   0.485580 0.231695 0.499157 -0.104248
C46   C     C_3   0.969069 0.454392 0.907357 -0.970424
C47   C     C_3   0.317293 0.035576 0.644405 0.092013
C48   C     C_3   0.257650 0.116630 0.651612 -0.376138
C49   C     C_3   0.164850 0.087369 0.647835 -0.972548
C50   C     C_3   0.302220 0.965292 0.376650 0.065812
C51   C     C_3   0.243772 0.965705 0.289575 -0.299619
C52   C     C_3   0.161284 0.015710 0.308788 -1.010476
C53   C     C_3   0.372241 0.338243 0.260372 0.126396
C54   C     C_3   0.309363 0.288159 0.195887 -0.397628
C55   C     C_3   0.315336 0.187273 0.211054 -0.947361
C56   C     C_R   0.486724 0.768044 0.500429 -0.108712
C57   C     C_3   0.673464 0.624087 0.762884 0.064286
C58   C     C_3   0.718313 0.687685 0.696052 -0.289405
C59   C     C_3   0.814508 0.681050 0.707916 -1.004188
C60   C     C_R   0.504690 0.181468 0.418846 -0.242079
C61   C     C_R   0.515711 0.819055 0.577181 -0.222325
C62   C     C_R   0.492127 0.089857 0.418896 -0.175992
H1    H     H_    0.047928 0.377601 0.383538 0.176195
H2    H     H_    0.549888 0.788481 0.635568 0.191206
H3    H     H_    0.511965 0.050907 0.358420 0.185694
H4    H     H_    0.530525 0.950206 0.634510 0.186084
H5    H     H_    0.375582 0.442709 0.065030 0.151231
H6    H     H_    0.574534 0.620659 0.933851 0.149177
H7    H     H_    0.977634 0.230793 0.614822 0.161965
H8    H     H_    0.052722 0.287016 0.543613 0.137434
H9    H     H_    0.886957 0.192467 0.474533 0.236628
H10   H     H_    0.959569 0.249365 0.398925 0.211754
H11   H     H_    0.076018 0.143779 0.450828 0.272924
H12   H     H_    0.956053 0.625000 0.593389 0.173668
H13   H     H_    0.986964 0.087087 0.395187 0.279201
H14   H     H_    0.999826 0.084362 0.521745 0.271080
H15   H     H_    0.995520 0.751838 0.491014 0.133364
H16   H     H_    0.942570 0.698319 0.390792 0.149243
H17   H     H_    0.096226 0.825250 0.381768 0.224402
H18   H     H_    0.044850 0.770246 0.282627 0.239349
H19   H     H_    0.907025 0.847348 0.323503 0.269137
H20   H     H_    0.990774 0.924960 0.297680 0.273123
H21   H     H_    0.962174 0.905977 0.418627 0.268555
H22   H     H_    0.821673 0.543986 0.322510 0.130795
H23   H     H_    0.621808 0.559842 0.246224 0.152883
H24   H     H_    0.858591 0.537456 0.206135 0.165650
H25   H     H_    0.905121 0.378242 0.226265 0.229565
H26   H     H_    0.864091 0.378349 0.344008 0.229779
H27   H     H_    0.718846 0.412294 0.281776 0.280084
H28   H     H_    0.760889 0.310861 0.230908 0.264648
H29   H     H_    0.758594 0.412559 0.162663 0.260822
H30   H     H_    0.940251 0.443332 0.716356 0.170340
H31   H     H_    0.987898 0.551415 0.744837 0.146123
H32   H     H_    0.046959 0.368356 0.821089 0.224829
H33   H     H_    0.093795 0.475614 0.849934 0.234041
H34   H     H_    0.424423 0.382990 0.754537 0.146827
H35   H     H_    0.955730 0.526876 0.917800 0.265771
H36   H     H_    0.994911 0.426722 0.974456 0.273440
H37   H     H_    0.908876 0.418988 0.889084 0.264124
H38   H     H_    0.301437 0.987573 0.701024 0.180348
H39   H     H_    0.306207 0.999256 0.576701 0.104783
H40   H     H_    0.270534 0.153081 0.718938 0.235124
H41   H     H_    0.268896 0.163117 0.592195 0.206627
H42   H     H_    0.151207 0.049655 0.581513 0.265995
H43   H     H_    0.123179 0.147342 0.650221 0.264549
H44   H     H_    0.150512 0.044123 0.709007 0.268914
H45   H     H_    0.626837 0.557825 0.073130 0.143140
H46   H     H_    0.306693 0.034520 0.405776 0.152756
H47   H     H_    0.272882 0.920571 0.429976 0.117196
H48   H     H_    0.276388 0.998228 0.230007 0.243835
H49   H     H_    0.228888 0.895456 0.268535 0.218911
H50   H     H_    0.129005 0.986279 0.370275 0.278280
H51   H     H_    0.118500 0.011071 0.245928 0.273153
H52   H     H_    0.174400 0.087546 0.323711 0.271255
H53   H     H_    0.356509 0.322738 0.334584 0.173596
H54   H     H_    0.437970 0.312379 0.248774 0.114998
H55   H     H_    0.243702 0.310916 0.210932 0.239800
H56   H     H_    0.425912 0.377931 0.927880 0.146924
H57   H     H_    0.323000 0.302745 0.120995 0.215499
H58   H     H_    0.379304 0.162377 0.191882 0.271263
H59   H     H_    0.266976 0.152857 0.165912 0.270197
H60   H     H_    0.303615 0.170990 0.286008 0.266921
H61   H     H_    0.695968 0.554395 0.748786 0.149567
H62   H     H_    0.690950 0.643525 0.836583 0.124375
H63   H     H_    0.700211 0.670817 0.621952 0.221305
H64   H     H_    0.698132 0.757724 0.710739 0.212391
H65   H     H_    0.834341 0.701024 0.780593 0.266825
H66   H     H_    0.845403 0.726494 0.657156 0.261555
H67   H     H_    0.434098 0.229701 0.639905 0.167153
H68   H     H_    0.835669 0.611232 0.694213 0.264878
H69   H     H_    0.418250 0.767960 0.366682 0.181471
H70   H     H_    0.531693 0.212525 0.357367 0.161611
N1    N     N_R   0.500000 0.499980 0.252470 -0.132721
N2    N     N_R   0.500000 0.500020 0.747530 -0.123421
O1    O     O_R   0.500010 0.369070 0.579480 -0.628935
O2    O     O_3   0.066879 0.655385 0.423069 -0.619311
O3    O     O_3   0.953103 0.534021 0.305627 -0.629860
O4    O     O_3   0.062837 0.465577 0.666474 -0.638377
O5    O     O_3   0.403206 0.060898 0.658372 -0.658295
O6    O     O_3   0.383846 0.936208 0.349948 -0.653329
O7    O     O_3   0.363115 0.431906 0.248248 -0.629827
O8    O     O_3   0.584855 0.631177 0.747669 -0.634732
O9    O     O_R   0.499990 0.630930 0.420520 -0.625201
O10   O     O_R   0.500010 0.369060 0.420520 -0.640885
O11   O     O_R   0.499990 0.630940 0.579480 -0.566197
O12   O     O_R   0.376780 0.500000 0.579460 -0.618309
O13   O     O_R   0.623220 0.500000 0.420540 -0.638066
O14   O     O_R   0.376780 0.499990 0.420510 -0.565457
O15   O     O_R   0.623220 0.500010 0.579490 -0.602679
O16   O     O_3   0.930234 0.345477 0.556087 -0.646104
Zn1   Zn    Zn3+2 0.500000 0.500010 0.606140 0.982737
Zn2   Zn    Zn3+2 0.500000 0.499990 0.393860 0.960817

loop_
_geom_bond_atom_site_label_1
_geom_bond_atom_site_label_2
_ccdc_geom_bond_type
C46   H37   S    
C55   H59   S    
C45   C60   A    
C34   C56   A    
C23   C45   A    
C22   C29   T    
C27   C29   S    
C41   C42   S    
C40   H22   S    
C35   C36   S    
C5    H5    S    
C26   O3    S    
C60   H70   S    
C49   H42   S    
C13   H56   S    
C59   H68   S    
C52   H51   S    
N1    Zn2   S    
C20   C26   S    
C57   O8    S    
C47   H39   S    
C60   C62   A    
C17   O13   A    
C7    N1    A    
C33   O16   S    
O15   Zn1   S    
C38   C39   S    
C33   C35   S    
C11   C14   A    
C50   O6    S    
C38   H17   S    
C52   H50   S    
C59   H65   S    
C23   H67   S    
C43   O4    S    
C16   O12   A    
C42   H29   S    
C40   H24   S    
C19   C26   S    
C36   H14   S    
C9    H23   S    
C6    C15   A    
C51   H49   S    
C19   C27   S    
C53   O7    S    
C53   H54   S    
C33   H7    S    
C6    H6    S    
C46   H36   S    
C55   H60   S    
C35   H9    S    
C54   H57   S    
C50   H46   S    
C18   C25   S    
C44   C46   S    
C55   H58   S    
C8    O8    S    
C41   H25   S    
C17   C24   S    
C8    N2    A    
C51   C52   S    
O14   Zn2   S    
C18   C28   S    
C39   H19   S    
C5    C7    A    
C6    C8    A    
C19   O2    S    
C53   C54   S    
C48   H41   S    
C37   H15   S    
C21   H12   S    
C50   H47   S    
C47   H38   S    
O12   Zn1   S    
C42   H28   S    
C32   C34   A    
C12   O11   A    
C61   H2    S    
C2    C4    A    
C43   C44   S    
C37   C38   S    
C36   H13   S    
C57   H61   S    
C47   C48   S    
C10   H34   S    
C48   H40   S    
C40   O3    S    
C50   C51   S    
C37   O2    S    
C12   C56   S    
C3    C31   A    
C9    C11   A    
C5    C14   A    
O11   Zn1   S    
C33   H8    S    
C48   C49   S    
C46   H35   S    
C34   H69   S    
C58   H64   S    
C51   H48   S    
C13   C15   A    
C11   H45   S    
C58   C59   S    
C31   O5    S    
C3    C4    S    
C7    O7    S    
C3    C62   A    
C41   H26   S    
C21   C25   S    
C54   C55   S    
O9    Zn2   S    
C16   C22   S    
C62   H3    S    
C19   C21   S    
C14   C15   S    
C21   C28   S    
C17   O15   A    
C10   N2    A    
C39   H20   S    
C2    H4    S    
C10   C13   A    
C35   H10   S    
C49   H43   S    
C2    C61   A    
C32   O6    S    
C49   H44   S    
C20   C27   S    
C52   H52   S    
C25   C27   S    
C37   H16   S    
C26   C28   S    
C43   H30   S    
C12   O9    A    
C16   O14   A    
C42   H27   S    
C20   H1    S    
C28   C30   S    
O13   Zn2   S    
C59   H66   S    
C39   H21   S    
O10   Zn2   S    
C1    O10   A    
C1    O1    A    
C57   H62   S    
C1    C45   S    
C57   C58   S    
C38   H18   S    
O1    Zn1   S    
N2    Zn1   S    
C43   H31   S    
C25   O4    S    
C18   C20   S    
C24   C30   T    
C44   H32   S    
C36   H11   S    
C4    C32   A    
C58   H63   S    
C54   H55   S    
C47   O5    S    
C44   H33   S    
C56   C61   A    
C40   C41   S    
C18   O16   S    
C53   H53   S    
C23   C31   A    
C9    N1    A    
