data_mof_unit_61168.cif
_audit_creation_date              2012-12-10T17:47:54-0500
_audit_creation_method            fapswitch 2.2
_symmetry_space_group_name_H-M    P1
_symmetry_Int_Tables_number       1
_space_group_crystal_system       triclinic
_cell_length_a                    25.885183
_cell_length_b                    27.730011
_cell_length_c                    27.726672
_cell_angle_alpha                 90.000016
_cell_angle_beta                  90.034111
_cell_angle_gamma                 90.010344
_cell_volume                      19902.1017528

loop_
_atom_site_label
_atom_site_type_symbol
_atom_type_description
_atom_site_fract_x
_atom_site_fract_y
_atom_site_fract_z
_atom_type_partial_charge
C1    C     C_R   0.391546 0.999804 0.250277 0.875244
C2    C     C_R   0.891539 0.999529 0.249514 0.886320
C3    C     C_R   0.749964 0.999971 0.620762 0.845821
C4    C     C_R   0.750035 0.499971 0.379240 0.846058
C5    C     C_R   0.750023 0.499959 0.620760 0.843079
C6    C     C_R   0.249974 0.499956 0.379238 0.825897
C7    C     C_R   0.249962 0.499968 0.620762 0.829085
C8    C     C_R   0.750036 0.999971 0.879240 0.846032
C9    C     C_R   0.750026 0.999956 0.120760 0.826123
C10   C     C_R   0.249974 0.999956 0.879238 0.825930
C11   C     C_R   0.249964 0.999971 0.120762 0.845864
C12   C     C_R   0.250036 0.499971 0.879240 0.842870
C13   C     C_R   0.108461 0.999526 0.750483 0.886331
C14   C     C_R   0.250026 0.499956 0.120760 0.826123
C15   C     C_R   0.749974 0.499956 0.879238 0.829117
C16   C     C_R   0.749964 0.499971 0.120762 0.845863
C17   C     C_R   0.250002 0.129246 0.250002 0.804169
C18   C     C_R   0.249999 0.129238 0.749996 0.807042
C19   C     C_R   0.750002 0.129237 0.249998 0.807032
C20   C     C_R   0.749999 0.129245 0.750004 0.804156
C21   C     C_R   0.750002 0.629246 0.250002 0.804165
C22   C     C_R   0.750002 0.629237 0.749998 0.805323
C23   C     C_R   0.250002 0.629237 0.249998 0.807040
C24   C     C_R   0.108454 0.999802 0.249726 0.875217
C25   C     C_R   0.250002 0.629246 0.750002 0.805882
C26   C     C_R   0.249998 0.870735 0.250002 0.866583
C27   C     C_R   0.249998 0.870729 0.749998 0.900882
C28   C     C_R   0.749998 0.870729 0.249998 0.900876
C29   C     C_R   0.749998 0.870735 0.750002 0.866575
C30   C     C_R   0.749998 0.370735 0.250002 0.866668
C31   C     C_R   0.749991 0.370729 0.750004 0.883892
C32   C     C_R   0.249998 0.370729 0.249998 0.900802
C33   C     C_R   0.249991 0.370736 0.749996 0.883293
C34   C     C_1   0.249996 0.818956 0.250004 -0.122984
C35   C     C_R   0.391545 0.499804 0.750277 0.875735
C36   C     C_1   0.249996 0.818957 0.749996 -0.112019
C37   C     C_1   0.749996 0.818957 0.249996 -0.112060
C38   C     C_1   0.749996 0.818956 0.750004 -0.123027
C39   C     C_1   0.749996 0.318956 0.250004 -0.122849
C40   C     C_1   0.749966 0.318954 0.750016 -0.117528
C41   C     C_1   0.249995 0.318957 0.249996 -0.112185
C42   C     C_1   0.249966 0.318958 0.749984 -0.117641
C43   C     C_1   0.249998 0.775462 0.250002 0.024184
C44   C     C_1   0.249998 0.775465 0.749998 0.028733
C45   C     C_1   0.749998 0.775465 0.249998 0.028622
C46   C     C_R   0.391539 0.499529 0.249514 0.886355
C47   C     C_1   0.749998 0.775462 0.750002 0.024072
C48   C     C_1   0.749998 0.275462 0.250002 0.024298
C49   C     C_1   0.749961 0.275463 0.750022 0.026442
C50   C     C_1   0.249998 0.275465 0.249998 0.028512
C51   C     C_1   0.249961 0.275464 0.749978 0.026303
C52   C     C_1   0.250002 0.724515 0.249998 0.015345
C53   C     C_1   0.250002 0.724521 0.750002 0.017478
C54   C     C_1   0.750002 0.724521 0.250002 0.017235
C55   C     C_1   0.750002 0.724515 0.749998 0.015101
C56   C     C_1   0.750002 0.224515 0.249998 0.015418
C57   C     C_R   0.608461 0.499526 0.750483 0.885634
C58   C     C_1   0.749972 0.224519 0.750023 0.016199
C59   C     C_1   0.250002 0.224521 0.250002 0.017164
C60   C     C_1   0.249972 0.224517 0.749977 0.016345
C61   C     C_1   0.250005 0.681020 0.249996 -0.129115
C62   C     C_1   0.250005 0.681027 0.750004 -0.128009
C63   C     C_1   0.750005 0.681027 0.250004 -0.127840
C64   C     C_1   0.750005 0.681021 0.749996 -0.128952
C65   C     C_1   0.750004 0.181021 0.249996 -0.129070
C66   C     C_1   0.749987 0.181026 0.750018 -0.128280
C67   C     C_1   0.250005 0.181027 0.250004 -0.127883
C68   C     C_R   0.608454 0.499802 0.249726 0.875181
C69   C     C_1   0.249987 0.181022 0.749982 -0.128695
C70   C     C_3   0.030941 0.947482 0.228619 0.221679
C71   C     C_3   0.029997 0.945686 0.765472 0.244118
C72   C     C_3   0.969979 0.945690 0.234519 0.244151
C73   C     C_3   0.969037 0.947483 0.771379 0.221689
C74   C     C_3   0.530941 0.447482 0.228619 0.221684
C75   C     C_3   0.529997 0.445687 0.765474 0.243869
C76   C     C_3   0.469979 0.445690 0.234518 0.244146
C77   C     C_3   0.469037 0.447483 0.771379 0.221803
C78   C     C_3   0.530941 0.947482 0.728619 0.221680
C79   C     C_3   0.029598 0.006942 0.298849 -0.496329
C80   C     C_3   0.529997 0.945687 0.265472 0.244152
C81   C     C_3   0.469979 0.945690 0.734519 0.244145
C82   C     C_3   0.469037 0.947483 0.271379 0.221654
C83   C     C_3   0.029986 0.445697 0.734492 0.243906
C84   C     C_3   0.029996 0.445685 0.265465 0.244276
C85   C     C_3   0.969014 0.447479 0.728616 0.221816
C86   C     C_3   0.969037 0.447481 0.271374 0.221481
C87   C     C_3   0.029684 0.011161 0.701930 -0.499733
C88   C     C_3   0.970318 0.011157 0.298069 -0.499726
C89   C     C_R   0.391539 0.999529 0.749514 0.886282
C90   C     C_3   0.970402 0.006951 0.701154 -0.496319
C91   C     C_3   0.529598 0.506942 0.298849 -0.496348
C92   C     C_3   0.529684 0.511159 0.701929 -0.500334
C93   C     C_3   0.470318 0.511157 0.298069 -0.499707
C94   C     C_3   0.470402 0.506950 0.701154 -0.495713
C95   C     C_3   0.529598 0.006942 0.798849 -0.496299
C96   C     C_3   0.529684 0.011160 0.201930 -0.499803
C97   C     C_3   0.470318 0.011157 0.798069 -0.499762
C98   C     C_3   0.470402 0.006951 0.201154 -0.496257
C99   C     C_3   0.029752 0.511146 0.798066 -0.500002
C100  C     C_R   0.608461 0.999526 0.250483 0.886275
C101  C     C_3   0.029684 0.511166 0.201931 -0.499814
C102  C     C_3   0.970473 0.506918 0.798858 -0.495999
C103  C     C_3   0.970402 0.506956 0.201155 -0.496237
C104  C     C_3   0.029514 0.038169 0.213954 -0.348857
C105  C     C_3   0.029603 0.034970 0.789177 -0.360069
C106  C     C_3   0.970411 0.034975 0.210824 -0.360311
C107  C     C_3   0.970500 0.038167 0.786053 -0.349121
C108  C     C_3   0.529514 0.538169 0.213954 -0.348857
C109  C     C_3   0.529603 0.534971 0.789176 -0.360180
C110  C     C_3   0.470411 0.534976 0.210824 -0.360312
C111  C     C_R   0.608454 0.999802 0.749726 0.875250
C112  C     C_3   0.470500 0.538167 0.786052 -0.348935
C113  C     C_3   0.529514 0.038169 0.713954 -0.348825
C114  C     C_3   0.529603 0.034971 0.289177 -0.360199
C115  C     C_3   0.470411 0.034975 0.710824 -0.360343
C116  C     C_3   0.470500 0.038167 0.286053 -0.348977
C117  C     C_3   0.029552 0.534986 0.710826 -0.360336
C118  C     C_3   0.029603 0.534966 0.289181 -0.360180
C119  C     C_3   0.970454 0.538176 0.713976 -0.348749
C120  C     C_3   0.970500 0.538164 0.286057 -0.349000
C121  C     C_3   0.050923 0.997795 0.247287 -0.010597
C122  C     C_R   0.891546 0.499804 0.250277 0.875214
C123  C     C_3   0.050894 0.997468 0.752443 -0.007018
C124  C     C_3   0.949104 0.997471 0.247553 -0.006951
C125  C     C_3   0.949075 0.997799 0.752717 -0.010487
C126  C     C_3   0.550923 0.497795 0.247287 -0.010575
C127  C     C_3   0.550893 0.497468 0.752443 -0.006648
C128  C     C_3   0.449104 0.497471 0.247553 -0.006972
C129  C     C_3   0.449075 0.497799 0.752716 -0.010767
C130  C     C_3   0.550923 0.997795 0.747287 -0.010628
C131  C     C_3   0.550894 0.997468 0.252443 -0.006926
C132  C     C_3   0.449104 0.997471 0.747553 -0.006911
C133  C     C_R   0.891546 0.499797 0.749735 0.875673
C134  C     C_3   0.449075 0.997799 0.252717 -0.010588
C135  C     C_3   0.050894 0.497478 0.747541 -0.006878
C136  C     C_3   0.050894 0.497467 0.252443 -0.006929
C137  C     C_3   0.949075 0.497786 0.747298 -0.010712
C138  C     C_3   0.949075 0.497799 0.252717 -0.010587
C139  C     C_1   0.249906 0.999942 0.068975 -0.128334
C140  C     C_1   0.249934 0.999911 0.931024 -0.132860
C141  C     C_1   0.750066 0.999911 0.068975 -0.132992
C142  C     C_1   0.750094 0.999942 0.931026 -0.128463
C143  C     C_1   0.749906 0.499942 0.068975 -0.128402
C144  C     C_R   0.108461 0.499526 0.250484 0.886279
C145  C     C_1   0.749934 0.499912 0.931024 -0.133840
C146  C     C_1   0.250066 0.499911 0.068975 -0.132926
C147  C     C_1   0.250094 0.499941 0.931026 -0.127484
C148  C     C_1   0.749906 0.999942 0.568975 -0.128308
C149  C     C_1   0.749934 0.999911 0.431024 -0.132863
C150  C     C_1   0.250066 0.999911 0.568975 -0.133018
C151  C     C_1   0.250094 0.999942 0.431026 -0.128456
C152  C     C_1   0.249902 0.499937 0.568975 -0.134037
C153  C     C_1   0.249932 0.499909 0.431024 -0.133235
C154  C     C_1   0.750063 0.499916 0.568975 -0.127308
C155  C     C_R   0.108461 0.499536 0.749508 0.885729
C156  C     C_1   0.750092 0.499944 0.431026 -0.128079
C157  C     C_1   0.249884 0.999915 0.025476 0.015515
C158  C     C_1   0.249898 0.999900 0.974524 0.013997
C159  C     C_1   0.750102 0.999900 0.025476 0.013951
C160  C     C_1   0.750116 0.999916 0.974524 0.015469
C161  C     C_1   0.749883 0.499916 0.025476 0.015530
C162  C     C_1   0.749898 0.499901 0.974524 0.014165
C163  C     C_1   0.250101 0.499900 0.025476 0.013934
C164  C     C_1   0.250116 0.499915 0.974524 0.015299
C165  C     C_1   0.749884 0.999915 0.525476 0.015545
C166  C     C_R   0.891546 0.999804 0.750277 0.875182
C167  C     C_1   0.749898 0.999900 0.474524 0.014029
C168  C     C_1   0.250102 0.999900 0.525476 0.013922
C169  C     C_1   0.250116 0.999916 0.474524 0.015439
C170  C     C_1   0.249880 0.499911 0.525476 0.013424
C171  C     C_1   0.249895 0.499897 0.474524 0.013252
C172  C     C_1   0.750098 0.499905 0.525476 0.016035
C173  C     C_1   0.750113 0.499919 0.474525 0.016213
C174  C     C_R   0.250036 0.999971 0.379240 0.845951
C175  C     C_R   0.250026 0.999956 0.620760 0.826165
C176  C     C_R   0.749974 0.999956 0.379238 0.826012
H1    H     H_    0.047056 0.919491 0.253176 0.073260
H2    H     H_    0.536953 0.923062 0.232913 0.074996
H3    H     H_    0.463008 0.923062 0.767074 0.075000
H4    H     H_    0.452906 0.919494 0.246822 0.073282
H5    H     H_    0.037011 0.423058 0.767036 0.075056
H6    H     H_    0.036951 0.423064 0.232903 0.075015
H7    H     H_    0.952936 0.419482 0.753176 0.072957
H8    H     H_    0.952904 0.419494 0.246815 0.073292
H9    H     H_    0.041032 0.976841 0.323179 0.197453
H10   H     H_    0.046167 0.987235 0.673610 0.197596
H11   H     H_    0.953823 0.987230 0.326385 0.197615
H12   H     H_    0.036953 0.923062 0.732912 0.075008
H13   H     H_    0.958953 0.976855 0.676820 0.197464
H14   H     H_    0.541032 0.476842 0.323179 0.197457
H15   H     H_    0.546166 0.487232 0.673611 0.197503
H16   H     H_    0.453823 0.487230 0.326385 0.197615
H17   H     H_    0.458952 0.476854 0.676820 0.197487
H18   H     H_    0.541032 0.976841 0.823179 0.197449
H19   H     H_    0.546167 0.987234 0.173611 0.197603
H20   H     H_    0.453823 0.987230 0.826385 0.197615
H21   H     H_    0.458953 0.976854 0.176821 0.197458
H22   H     H_    0.046284 0.487215 0.826375 0.197545
H23   H     H_    0.963008 0.923062 0.267074 0.074999
H24   H     H_    0.046167 0.487244 0.173609 0.197603
H25   H     H_    0.959069 0.476807 0.823180 0.197466
H26   H     H_    0.958953 0.476861 0.176818 0.197449
H27   H     H_    0.040619 0.074097 0.228626 0.176999
H28   H     H_    0.045999 0.071335 0.781704 0.179497
H29   H     H_    0.954028 0.071340 0.218300 0.179286
H30   H     H_    0.959409 0.074097 0.771388 0.176806
H31   H     H_    0.540620 0.574097 0.228626 0.176999
H32   H     H_    0.545999 0.571336 0.781701 0.179229
H33   H     H_    0.454028 0.571340 0.218300 0.179285
H34   H     H_    0.952906 0.919494 0.746821 0.073268
H35   H     H_    0.459408 0.574097 0.771386 0.177055
H36   H     H_    0.540619 0.074097 0.728626 0.177032
H37   H     H_    0.545999 0.071336 0.281703 0.179295
H38   H     H_    0.454028 0.071340 0.718300 0.179242
H39   H     H_    0.459409 0.074097 0.271387 0.177007
H40   H     H_    0.045962 0.571349 0.718303 0.179401
H41   H     H_    0.046000 0.571332 0.281712 0.179299
H42   H     H_    0.959390 0.574097 0.728669 0.176832
H43   H     H_    0.959409 0.574095 0.271394 0.177018
H44   H     H_    0.046277 0.035855 0.177152 0.244790
H45   H     H_    0.547056 0.419491 0.253176 0.073270
H46   H     H_    0.041181 0.025175 0.826443 0.262518
H47   H     H_    0.958831 0.025183 0.173557 0.262517
H48   H     H_    0.953739 0.035847 0.822857 0.244757
H49   H     H_    0.546277 0.535855 0.177152 0.244785
H50   H     H_    0.541181 0.525177 0.826442 0.262514
H51   H     H_    0.458831 0.525184 0.173557 0.262518
H52   H     H_    0.453739 0.535848 0.822855 0.244802
H53   H     H_    0.546277 0.035855 0.677152 0.244793
H54   H     H_    0.541181 0.025175 0.326442 0.262528
H55   H     H_    0.458831 0.025183 0.673557 0.262517
H56   H     H_    0.536955 0.423061 0.732916 0.075016
H57   H     H_    0.453739 0.035848 0.322856 0.244766
H58   H     H_    0.041071 0.525196 0.673555 0.262487
H59   H     H_    0.041181 0.525166 0.326446 0.262553
H60   H     H_    0.953631 0.535887 0.677178 0.244800
H61   H     H_    0.953739 0.535840 0.322860 0.244731
H62   H     H_    0.046290 0.040674 0.314099 0.193967
H63   H     H_    0.041196 0.048755 0.692770 0.199264
H64   H     H_    0.958824 0.048752 0.307232 0.199187
H65   H     H_    0.953725 0.040686 0.685909 0.193902
H66   H     H_    0.546290 0.540674 0.314099 0.193959
H67   H     H_    0.463007 0.423061 0.267074 0.074986
H68   H     H_    0.541197 0.548753 0.692768 0.199022
H69   H     H_    0.458824 0.548751 0.307232 0.199188
H70   H     H_    0.453726 0.540686 0.685909 0.194192
H71   H     H_    0.546290 0.040674 0.814099 0.193998
H72   H     H_    0.541196 0.048755 0.192770 0.199171
H73   H     H_    0.458824 0.048752 0.807232 0.199150
H74   H     H_    0.453725 0.040685 0.185909 0.193984
H75   H     H_    0.041265 0.548740 0.807238 0.199106
H76   H     H_    0.041196 0.548762 0.192776 0.199175
H77   H     H_    0.953809 0.540642 0.814123 0.194093
H78   H     H_    0.452906 0.419494 0.746821 0.073049
H79   H     H_    0.953725 0.540692 0.185913 0.193982
H80   H     H_    0.039862 0.947619 0.094705 0.391687
H81   H     H_    0.098232 0.928754 0.882465 0.380228
H82   H     H_    0.901798 0.928755 0.117494 0.380248
H83   H     H_    0.960158 0.947585 0.905294 0.391682
H84   H     H_    0.539868 0.447621 0.094706 0.391684
H85   H     H_    0.598214 0.428756 0.882476 0.380340
H86   H     H_    0.401800 0.428756 0.117492 0.380248
H87   H     H_    0.460142 0.447593 0.905294 0.391706
H88   H     H_    0.539863 0.947619 0.594706 0.391684
H89   H     H_    0.547056 0.919491 0.753176 0.073255
H90   H     H_    0.598233 0.928756 0.382465 0.380219
H91   H     H_    0.401796 0.928756 0.617495 0.380258
H92   H     H_    0.460159 0.947587 0.405295 0.391687
H93   H     H_    0.097748 0.428717 0.617337 0.380112
H94   H     H_    0.098241 0.428739 0.382451 0.379900
H95   H     H_    0.959649 0.447831 0.594711 0.391520
H96   H     H_    0.960156 0.447578 0.405290 0.391548
O1    O     O_3   0.250000 0.999990 0.250000 -0.493043
O2    O     O_R   0.366860 0.972110 0.777870 -0.627646
O3    O     O_R   0.133150 0.027840 0.222150 -0.621775
O4    O     O_R   0.366850 0.527840 0.777850 -0.621676
O5    O     O_R   0.366850 0.527840 0.222150 -0.639907
O6    O     O_R   0.633150 0.527840 0.777850 -0.639937
O7    O     O_R   0.633150 0.527840 0.222150 -0.621783
O8    O     O_2   0.113180 0.945571 0.165964 -0.339770
O9    O     O_2   0.053672 0.878571 0.161598 -0.225686
O10   O     O_3   0.025384 0.960855 0.124996 -0.503603
O11   O     O_2   0.043463 0.866872 0.824011 -0.212985
O12   O     O_2   0.120601 0.903574 0.791534 -0.340716
O13   O     O_R   0.633140 0.972110 0.222130 -0.627653
O14   O     O_3   0.075079 0.947827 0.861359 -0.521222
O15   O     O_2   0.956471 0.866870 0.175991 -0.213051
O16   O     O_2   0.879348 0.903612 0.208426 -0.340718
O17   O     O_3   0.924944 0.947830 0.138611 -0.521184
O18   O     O_2   0.886815 0.945596 0.834056 -0.339749
O19   O     O_2   0.946259 0.878564 0.838384 -0.225734
O20   O     O_3   0.974638 0.960823 0.875003 -0.503559
O21   O     O_2   0.613181 0.445568 0.165966 -0.339789
O22   O     O_2   0.553672 0.378570 0.161599 -0.225683
O23   O     O_3   0.525387 0.460855 0.124996 -0.503601
O24   O     O_R   0.633140 0.972110 0.777870 -0.653776
O25   O     O_2   0.543465 0.366872 0.824012 -0.212957
O26   O     O_2   0.620603 0.403584 0.791546 -0.338706
O27   O     O_3   0.575065 0.447829 0.861368 -0.521238
O28   O     O_2   0.456471 0.366870 0.175991 -0.213052
O29   O     O_2   0.379348 0.403614 0.208423 -0.340706
O30   O     O_3   0.424947 0.447830 0.138609 -0.521174
O31   O     O_2   0.386809 0.445588 0.834049 -0.340821
O32   O     O_2   0.446262 0.378565 0.838385 -0.226113
O33   O     O_3   0.474625 0.460829 0.875004 -0.503424
O34   O     O_2   0.613180 0.945570 0.665964 -0.339792
O35   O     O_R   0.866860 0.472110 0.222130 -0.653763
O36   O     O_2   0.553672 0.878571 0.661599 -0.225723
O37   O     O_3   0.525384 0.960855 0.624996 -0.503597
O38   O     O_2   0.543463 0.866873 0.324013 -0.213002
O39   O     O_2   0.620601 0.903574 0.291534 -0.340715
O40   O     O_3   0.575080 0.947828 0.361360 -0.521227
O41   O     O_2   0.456471 0.866870 0.675991 -0.213020
O42   O     O_2   0.379348 0.903612 0.708426 -0.340693
O43   O     O_3   0.424944 0.947830 0.638611 -0.521182
O44   O     O_2   0.386815 0.945598 0.334057 -0.339757
O45   O     O_2   0.446259 0.878566 0.338385 -0.225711
O46   O     O_R   0.866860 0.472110 0.777870 -0.653569
O47   O     O_3   0.474639 0.960825 0.375004 -0.503555
O48   O     O_2   0.120622 0.403783 0.708261 -0.338978
O49   O     O_2   0.043450 0.366821 0.676073 -0.213420
O50   O     O_3   0.074660 0.447786 0.638481 -0.520752
O51   O     O_2   0.043460 0.366864 0.323998 -0.213179
O52   O     O_2   0.120598 0.403563 0.291518 -0.340881
O53   O     O_3   0.075085 0.447814 0.361350 -0.521155
O54   O     O_2   0.946287 0.378593 0.661521 -0.225404
O55   O     O_2   0.886611 0.445421 0.666073 -0.340644
O56   O     O_3   0.974246 0.461001 0.624999 -0.503741
O57   O     O_R   0.133140 0.472110 0.222130 -0.627630
O58   O     O_2   0.886817 0.445594 0.334055 -0.339466
O59   O     O_2   0.946255 0.378557 0.338373 -0.225368
O60   O     O_3   0.974644 0.460810 0.375000 -0.503556
O61   O     O_R   0.133140 0.472110 0.777870 -0.627948
O62   O     O_R   0.866860 0.972110 0.722130 -0.653747
O63   O     O_R   0.866860 0.972110 0.277870 -0.627645
O64   O     O_R   0.133140 0.972110 0.722130 -0.627669
O65   O     O_3   0.250000 0.999990 0.750000 -0.495710
O66   O     O_R   0.133140 0.972110 0.277870 -0.653774
O67   O     O_R   0.366860 0.472110 0.722130 -0.653603
O68   O     O_R   0.366860 0.472110 0.277870 -0.627628
O69   O     O_R   0.633140 0.472110 0.722130 -0.627999
O70   O     O_R   0.633140 0.472110 0.277870 -0.653791
O71   O     O_R   0.280630 0.027850 0.356260 -0.615412
O72   O     O_R   0.280630 0.027850 0.643740 -0.622766
O73   O     O_R   0.719370 0.027850 0.356260 -0.622664
O74   O     O_R   0.719370 0.027850 0.643740 -0.615310
O75   O     O_R   0.780630 0.527850 0.356260 -0.615503
O76   O     O_3   0.750000 0.999990 0.250000 -0.495675
O77   O     O_R   0.780630 0.527850 0.643740 -0.615646
O78   O     O_R   0.219370 0.527850 0.356260 -0.622587
O79   O     O_R   0.219370 0.527850 0.643740 -0.622460
O80   O     O_R   0.780630 0.027850 0.856260 -0.615400
O81   O     O_R   0.780630 0.027850 0.143740 -0.622750
O82   O     O_R   0.219370 0.027850 0.856260 -0.622680
O83   O     O_R   0.219370 0.027850 0.143740 -0.615326
O84   O     O_R   0.280630 0.527850 0.856260 -0.615583
O85   O     O_R   0.280630 0.527850 0.143740 -0.622740
O86   O     O_R   0.719370 0.527850 0.856260 -0.622468
O87   O     O_3   0.750000 0.999990 0.750000 -0.493004
O88   O     O_R   0.719370 0.527850 0.143740 -0.615336
O89   O     O_R   0.280630 0.106260 0.277850 -0.641481
O90   O     O_R   0.280630 0.106260 0.722150 -0.639997
O91   O     O_R   0.719370 0.106260 0.277850 -0.639637
O92   O     O_R   0.719370 0.106260 0.722150 -0.641123
O93   O     O_R   0.780630 0.606260 0.277850 -0.641474
O94   O     O_R   0.780630 0.606260 0.722150 -0.641581
O95   O     O_R   0.219370 0.606260 0.277850 -0.639641
O96   O     O_R   0.219370 0.606260 0.722150 -0.639545
O97   O     O_R   0.780630 0.106260 0.777850 -0.641858
O98   O     O_3   0.750000 0.499990 0.250000 -0.493071
O99   O     O_R   0.780630 0.106260 0.222150 -0.639758
O100  O     O_R   0.219370 0.106260 0.777850 -0.639266
O101  O     O_R   0.219370 0.106260 0.222150 -0.641361
O102  O     O_R   0.280630 0.606260 0.777850 -0.641374
O103  O     O_R   0.280630 0.606260 0.222150 -0.639738
O104  O     O_R   0.719370 0.606260 0.777850 -0.639740
O105  O     O_R   0.719370 0.606260 0.222150 -0.641381
O106  O     O_R   0.280650 0.893700 0.222130 -0.623806
O107  O     O_R   0.280650 0.893700 0.777870 -0.610578
O108  O     O_R   0.719350 0.893700 0.222130 -0.610580
O109  O     O_3   0.750000 0.499990 0.750000 -0.494304
O110  O     O_R   0.719350 0.893700 0.777870 -0.623820
O111  O     O_R   0.780650 0.393700 0.222130 -0.623859
O112  O     O_R   0.780650 0.393700 0.777870 -0.629854
O113  O     O_R   0.219350 0.393700 0.222130 -0.610507
O114  O     O_R   0.219350 0.393700 0.777870 -0.604673
O115  O     O_R   0.780650 0.893700 0.722130 -0.623819
O116  O     O_R   0.780650 0.893700 0.277870 -0.610582
O117  O     O_R   0.219350 0.893700 0.722130 -0.610567
O118  O     O_R   0.219350 0.893700 0.277870 -0.623815
O119  O     O_R   0.280650 0.393700 0.722130 -0.629879
O120  O     O_3   0.250000 0.499990 0.250000 -0.495648
O121  O     O_R   0.280650 0.393700 0.277870 -0.610717
O122  O     O_R   0.719350 0.393700 0.722130 -0.604574
O123  O     O_R   0.719350 0.393700 0.277870 -0.623687
O124  O     O_R   0.219370 0.972130 0.356260 -0.640901
O125  O     O_R   0.219370 0.972130 0.643740 -0.641473
O126  O     O_R   0.780630 0.972130 0.356260 -0.641529
O127  O     O_R   0.780630 0.972130 0.643740 -0.640948
O128  O     O_R   0.719370 0.472130 0.356260 -0.640745
O129  O     O_R   0.719370 0.472130 0.643740 -0.643337
O130  O     O_R   0.280630 0.472130 0.356260 -0.641684
O131  O     O_3   0.250000 0.499990 0.750000 -0.494354
O132  O     O_R   0.280630 0.472130 0.643740 -0.639044
O133  O     O_R   0.719370 0.972130 0.856260 -0.640899
O134  O     O_R   0.719370 0.972130 0.143740 -0.641499
O135  O     O_R   0.280630 0.972130 0.856260 -0.641531
O136  O     O_R   0.280630 0.972130 0.143740 -0.640922
O137  O     O_R   0.219370 0.472130 0.856260 -0.643419
O138  O     O_R   0.219370 0.472130 0.143740 -0.641478
O139  O     O_R   0.780630 0.472130 0.856260 -0.639018
O140  O     O_R   0.780630 0.472130 0.143740 -0.640944
O141  O     O_R   0.366850 0.027840 0.277850 -0.621786
O142  O     O_R   0.366860 0.972110 0.222130 -0.653767
O143  O     O_R   0.366850 0.027840 0.722150 -0.639950
O144  O     O_R   0.633150 0.027840 0.277850 -0.639902
O145  O     O_R   0.633150 0.027840 0.722150 -0.621741
O146  O     O_R   0.866850 0.527840 0.277850 -0.621797
O147  O     O_R   0.866850 0.527840 0.722150 -0.621788
O148  O     O_R   0.133150 0.527840 0.277850 -0.639919
O149  O     O_R   0.133150 0.527840 0.722150 -0.639923
O150  O     O_R   0.866850 0.027840 0.777850 -0.621909
O151  O     O_R   0.866850 0.027840 0.222150 -0.639914
O152  O     O_R   0.133150 0.027840 0.777850 -0.639787
S1    S     S_3+6 0.057093 0.932074 0.169343 0.061379
S2    S     S_3+6 0.567808 0.914302 0.311323 0.061906
S3    S     S_3+6 0.432161 0.914313 0.688658 0.061944
S4    S     S_3+6 0.442887 0.932073 0.330657 0.061372
S5    S     S_3+6 0.067709 0.414339 0.688601 0.062310
S6    S     S_3+6 0.067808 0.414293 0.311311 0.061684
S7    S     S_3+6 0.942745 0.432074 0.669351 0.061217
S8    S     S_3+6 0.942888 0.432066 0.330651 0.061637
S9    S     S_3+6 0.067808 0.914301 0.811323 0.061912
S10   S     S_3+6 0.932161 0.914313 0.188658 0.061914
S11   S     S_3+6 0.942887 0.932072 0.830656 0.061363
S12   S     S_3+6 0.557094 0.432073 0.169344 0.061375
S13   S     S_3+6 0.567806 0.414304 0.811328 0.062506
S14   S     S_3+6 0.432161 0.414313 0.188657 0.061917
S15   S     S_3+6 0.442883 0.432071 0.830655 0.060862
S16   S     S_3+6 0.557094 0.932074 0.669343 0.061358
Zn1   Zn    Zn3+2 0.206230 0.960180 0.289800 1.026502
Zn2   Zn    Zn3+2 0.706230 0.960180 0.210200 1.043864
Zn3   Zn    Zn3+2 0.293770 0.960180 0.789800 1.043796
Zn4   Zn    Zn3+2 0.293770 0.960180 0.210200 1.026484
Zn5   Zn    Zn3+2 0.206230 0.460180 0.789800 1.046008
Zn6   Zn    Zn3+2 0.206230 0.460180 0.210200 1.043881
Zn7   Zn    Zn3+2 0.793770 0.460180 0.789800 1.024178
Zn8   Zn    Zn3+2 0.793770 0.460180 0.210200 1.026483
Zn9   Zn    Zn3+2 0.293770 0.039800 0.289800 1.016393
Zn10  Zn    Zn3+2 0.293770 0.039800 0.710200 1.004511
Zn11  Zn    Zn3+2 0.706230 0.039800 0.289800 1.004705
Zn12  Zn    Zn3+2 0.206230 0.960180 0.710200 1.043929
Zn13  Zn    Zn3+2 0.706230 0.039800 0.710200 1.016602
Zn14  Zn    Zn3+2 0.793770 0.539800 0.289800 1.016412
Zn15  Zn    Zn3+2 0.793770 0.539800 0.710200 1.015469
Zn16  Zn    Zn3+2 0.206230 0.539800 0.289800 1.004667
Zn17  Zn    Zn3+2 0.206230 0.539800 0.710200 1.005666
Zn18  Zn    Zn3+2 0.793770 0.039800 0.789800 1.016060
Zn19  Zn    Zn3+2 0.793770 0.039800 0.210200 1.004629
Zn20  Zn    Zn3+2 0.206230 0.039800 0.789800 1.005025
Zn21  Zn    Zn3+2 0.206230 0.039800 0.210200 1.016492
Zn22  Zn    Zn3+2 0.293770 0.539800 0.789800 1.016011
Zn23  Zn    Zn3+2 0.793770 0.960180 0.289800 1.043827
Zn24  Zn    Zn3+2 0.293770 0.539800 0.210200 1.004674
Zn25  Zn    Zn3+2 0.706230 0.539800 0.789800 1.005098
Zn26  Zn    Zn3+2 0.706230 0.539800 0.210200 1.016446
Zn27  Zn    Zn3+2 0.793770 0.960180 0.710200 1.026420
Zn28  Zn    Zn3+2 0.706230 0.460180 0.289800 1.026741
Zn29  Zn    Zn3+2 0.706230 0.460180 0.710200 1.046279
Zn30  Zn    Zn3+2 0.293770 0.460180 0.289800 1.043584
Zn31  Zn    Zn3+2 0.293770 0.460180 0.710200 1.023948
Zn32  Zn    Zn3+2 0.706230 0.960180 0.789800 1.026530

loop_
_geom_bond_atom_site_label_1
_geom_bond_atom_site_label_2
_ccdc_geom_bond_type
C133  C137  S    
C157  C158  S    
C112  H52   S    
O4    Zn22  S    
C175  O72   A    
O91   Zn11  S    
C101  H24   S    
O89   Zn9   S    
C79   C121  S    
C84   S6    S    
C50   C59   S    
C20   C66   S    
O77   Zn15  S    
C84   C86   S    
O101  Zn21  S    
C147  C164  T    
C117  C119  S    
C54   C63   T    
C105  H46   S    
O6    Zn25  S    
C105  C123  S    
O98   Zn28  S    
O149  Zn17  S    
C9    O81   A    
C30   O123  A    
C85   S7    S    
O65   Zn10  S    
C44   C53   S    
C109  C127  S    
O119  Zn31  S    
O1    Zn1   S    
C116  H57   S    
C21   O93   A    
O50   S5    S    
C112  C129  S    
C23   O95   A    
O12   S9    D    
C122  O146  A    
C120  H61   S    
C8    O133  A    
C101  C103  S    
C72   C124  S    
C148  C165  T    
O118  Zn1   S    
O93   Zn14  S    
C29   O115  A    
C10   C140  S    
H91   O43   S    
C87   H10   S    
O120  Zn30  S    
C156  C173  T    
C17   C67   S    
O98   Zn8   S    
O72   Zn10  S    
O60   S8    S    
H87   O33   S    
C99   H75   S    
O37   S16   S    
C71   C73   S    
H92   O47   S    
C105  H28   S    
C97   H73   S    
C26   O106  A    
O120  Zn6   S    
C82   C134  S    
C109  H32   S    
O85   Zn24  S    
C152  C170  T    
C111  C130  S    
C8    O80   A    
H84   O23   S    
C150  C168  T    
O113  Zn6   S    
C118  H41   S    
C92   C94   S    
C77   C129  S    
C93   H69   S    
H82   O17   S    
O31   S15   D    
C168  C169  S    
C79   H9    S    
C36   C44   T    
C101  H76   S    
C120  C138  S    
O53   S6    S    
C37   C45   T    
C117  C135  S    
O28   S14   D    
C118  C136  S    
C15   C145  S    
C93   H16   S    
O82   Zn20  S    
O104  Zn25  S    
C10   O82   A    
C24   O66   A    
O84   Zn22  S    
H86   O30   S    
O115  Zn27  S    
O49   S5    D    
O11   S9    D    
C113  H36   S    
O70   Zn28  S    
C22   O94   A    
C95   C97   S    
C52   C61   T    
C102  H77   S    
O98   Zn26  S    
C84   H6    S    
O87   Zn18  S    
O65   Zn12  S    
C120  H43   S    
C76   S14   S    
H81   O14   S    
O14   S9    S    
O78   Zn16  S    
C25   C62   S    
O107  Zn3   S    
C118  C120  S    
C13   O64   A    
C6    C153  S    
C9    C141  S    
C7    C152  S    
C139  C157  T    
O26   S13   D    
C106  C124  S    
C27   O107  A    
C14   O85   A    
C108  C126  S    
O62   Zn27  S    
C143  C161  T    
O148  Zn16  S    
C110  C128  S    
O41   S3    D    
C88   H64   S    
O143  Zn10  S    
C17   O89   A    
C100  O144  A    
O1    Zn9   S    
C19   O99   A    
C88   C124  S    
O76   Zn11  S    
O133  Zn32  S    
O23   S12   S    
C31   O122  A    
C105  C107  S    
C74   H45   S    
C74   C76   S    
C33   C42   S    
C71   C123  S    
C102  H25   S    
O150  Zn18  S    
C43   C52   S    
C170  C171  S    
C81   H3    S    
C40   C49   T    
C75   S13   S    
C46   O5    A    
O13   Zn2   S    
C83   H5    S    
C24   C121  S    
C95   H71   S    
C118  H59   S    
C141  C159  T    
C96   H19   S    
O10   S1    S    
C96   C98   S    
C29   C38   S    
C95   C130  S    
C32   C41   S    
C57   O69   A    
H90   O40   S    
O54   S7    D    
C92   H15   S    
C57   O6    A    
C18   C69   S    
C1    O141  A    
C150  C175  S    
H85   O27   S    
C165  C167  S    
C151  C174  S    
C55   C64   T    
O16   S10   D    
O100  Zn20  S    
O68   Zn30  S    
C86   S8    S    
C115  C132  S    
O64   Zn12  S    
C12   O84   A    
C87   H63   S    
C113  C130  S    
O66   Zn1   S    
O44   S4    D    
C112  H35   S    
C11   O136  A    
C76   H67   S    
C107  C125  S    
C80   C82   S    
O52   S6    D    
O97   Zn18  S    
C2    O151  A    
C102  C137  S    
O58   S8    D    
O69   Zn29  S    
O106  Zn4   S    
C106  H47   S    
C111  O145  A    
C12   O137  A    
O45   S4    D    
O8    S1    D    
C75   C77   S    
O130  Zn30  S    
O139  Zn7   S    
C96   C131  S    
O140  Zn8   S    
C174  O71   A    
C95   H18   S    
H94   O53   S    
C92   C127  S    
C107  H48   S    
O9    S1    D    
O21   S12   D    
C98   H21   S    
O17   S10   S    
C16   O88   A    
C34   C43   T    
C57   C127  S    
C114  C116  S    
C109  H50   S    
C70   H1    S    
C113  H53   S    
C2    C124  S    
O146  Zn14  S    
O111  Zn8   S    
C151  C169  T    
O112  Zn7   S    
C78   C130  S    
C93   C128  S    
C29   O110  A    
C72   H23   S    
C87   C123  S    
O47   S4    S    
C20   O97   A    
C31   O112  A    
O63   Zn23  S    
C133  O147  A    
C99   H22   S    
C108  C110  S    
C30   C39   S    
C75   C127  S    
C75   H56   S    
O120  Zn16  S    
C3    O127  A    
O109  Zn15  S    
O3    Zn21  S    
C51   C60   S    
C79   H62   S    
C113  C115  S    
O35   Zn8   S    
C1    C134  S    
C110  H33   S    
O132  Zn31  S    
C10   O135  A    
C103  H79   S    
C114  C131  S    
C33   O119  A    
C149  C167  T    
O88   Zn26  S    
C82   S4    S    
C104  C106  S    
C161  C162  S    
O90   Zn10  S    
O137  Zn5   S    
H95   O56   S    
O83   Zn21  S    
O141  Zn9   S    
O124  Zn1   S    
C12   C147  S    
O102  Zn22  S    
C83   S5    S    
C13   C123  S    
C116  C134  S    
C108  H49   S    
C5    C154  S    
O73   Zn11  S    
C31   C40   S    
C7    O132  A    
O87   Zn13  S    
O56   S7    S    
O92   Zn13  S    
C11   C139  S    
O109  Zn29  S    
C88   H11   S    
C119  H42   S    
C5    O77   A    
C111  O24   A    
C7    O79   A    
O39   S2    D    
O57   Zn6   S    
C25   O96   A    
C71   S9    S    
O94   Zn15  S    
C176  O126  A    
C32   O121  A    
C85   H7    S    
C80   C131  S    
C86   H8    S    
O18   S11   D    
O20   S11   S    
C155  O149  A    
C116  H39   S    
O43   S3    S    
C79   C88   S    
C77   S15   S    
O29   S14   D    
O65   Zn20  S    
C78   S16   S    
H93   O50   S    
C15   O86   A    
C21   O105  A    
O15   S10   D    
C73   S11   S    
C78   H89   S    
C16   C143  S    
C74   S12   S    
C122  C138  S    
C103  C138  S    
C98   H74   S    
O152  Zn20  S    
O125  Zn12  S    
C80   H2    S    
C33   O114  A    
C104  H27   S    
C114  H54   S    
C91   C93   S    
C159  C160  S    
C91   H66   S    
C80   S2    S    
O24   Zn32  S    
C99   C135  S    
O109  Zn7   S    
O105  Zn26  S    
O80   Zn18  S    
C94   H70   S    
O71   Zn9   S    
O76   Zn19  S    
C3    O74   A    
C60   C69   T    
C4    C156  S    
C70   S1    S    
C35   O4    A    
C89   O2    A    
C76   C128  S    
C85   C137  S    
C41   C50   T    
C97   H20   S    
C11   O83   A    
C98   C134  S    
C84   C136  S    
O40   S2    S    
O59   S8    D    
O34   S16   D    
O36   S16   D    
C97   C132  S    
C6    O78   A    
O134  Zn2   S    
O127  Zn27  S    
O46   Zn7   S    
O7    Zn26  S    
O145  Zn13  S    
C27   C36   S    
H80   O10   S    
C149  C176  S    
O30   S14   S    
O42   S3    D    
C103  H26   S    
C136  C144  S    
C144  O148  A    
C78   C81   S    
O117  Zn12  S    
C90   C125  S    
C19   C65   S    
O76   Zn2   S    
O65   Zn3   S    
C21   C63   S    
C22   C64   S    
C119  H60   S    
C23   C61   S    
C99   C102  S    
O98   Zn14  S    
C87   C90   S    
C8    C142  S    
O1    Zn4   S    
O87   Zn32  S    
C96   H72   S    
C39   C48   T    
C28   O116  A    
O108  Zn2   S    
C18   O90   A    
O122  Zn29  S    
C26   O118  A    
C91   C126  S    
O121  Zn30  S    
O131  Zn22  S    
C94   H17   S    
O38   S2    D    
C163  C164  S    
C71   H12   S    
O136  Zn4   S    
C106  H29   S    
C100  C131  S    
C135  C155  S    
C68   O7    A    
O135  Zn3   S    
C89   C132  S    
C46   O68   A    
H83   O20   S    
O5    Zn24  S    
C46   C128  S    
C133  O46   A    
O131  Zn31  S    
C110  H51   S    
C73   C125  S    
C145  C162  T    
O51   S6    D    
C166  O150  A    
C56   C65   T    
O2    Zn3   S    
C68   O70   A    
C30   O111  A    
C104  H44   S    
C107  H30   S    
O33   S15   S    
O75   Zn14  S    
C58   C66   T    
C140  C158  T    
C28   C37   S    
C4    O128  A    
C28   O108  A    
O151  Zn19  S    
C35   C129  S    
C83   C135  S    
C42   C51   T    
C59   C67   T    
O138  Zn6   S    
O147  Zn15  S    
C3    C148  S    
C114  H37   S    
O25   S13   D    
O96   Zn17  S    
O81   Zn19  S    
C108  H31   S    
C26   C34   S    
C81   S3    S    
O19   S11   D    
C91   H14   S    
C94   C129  S    
O22   S12   D    
C119  C137  S    
C73   H34   S    
O131  Zn17  S    
C155  O61   A    
C174  O124  A    
C109  C112  S    
O87   Zn27  S    
O120  Zn24  S    
O109  Zn25  S    
C81   C132  S    
C104  C121  S    
C100  O13   A    
O27   S13   S    
C49   C58   S    
C115  H38   S    
O99   Zn19  S    
C20   O92   A    
C19   O91   A    
C117  H40   S    
C22   O104  A    
O95   Zn16  S    
C53   C62   T    
C175  O125  A    
C72   S10   S    
C25   O102  A    
C153  C171  T    
C154  C172  T    
O126  Zn23  S    
C38   C47   T    
O110  Zn32  S    
O144  Zn11  S    
O129  Zn29  S    
C1    O142  A    
C45   C54   S    
O74   Zn13  S    
C23   O103  A    
C122  O35   A    
C18   O100  A    
C144  O57   A    
C68   C126  S    
O128  Zn28  S    
C172  C173  S    
C47   C55   S    
C101  C136  S    
C48   C56   S    
C2    O63   A    
C166  O62   A    
C83   C85   S    
H96   O60   S    
C115  H55   S    
C77   H78   S    
C142  C160  T    
O142  Zn4   S    
H88   O37   S    
C16   O140  A    
O32   S15   D    
O67   Zn31  S    
O114  Zn5   S    
O86   Zn25  S    
O123  Zn28  S    
O79   Zn17  S    
C146  C163  T    
C14   C146  S    
C15   O139  A    
C17   O101  A    
C4    O75   A    
O61   Zn5   S    
O1    Zn21  S    
C125  C166  S    
O76   Zn23  S    
C14   O138  A    
C92   H68   S    
C70   C121  S    
C74   C126  S    
C117  H58   S    
O131  Zn5   S    
C6    O130  A    
C32   O113  A    
O55   S7    D    
C89   O143  A    
C176  O73   A    
C9    O134  A    
C5    O129  A    
C86   C138  S    
C27   O117  A    
O116  Zn23  S    
C90   H65   S    
C82   H4    S    
C35   O67   A    
C13   O152  A    
C70   C72   S    
O103  Zn24  S    
O48   S5    D    
C24   O3    A    
C90   H13   S    
