data_mof_unit_10589.cif
_audit_creation_date              2012-12-11T14:01:38-0500
_audit_creation_method            fapswitch 2.2
_symmetry_space_group_name_H-M    P1
_symmetry_Int_Tables_number       1
_space_group_crystal_system       triclinic
_cell_length_a                    19.064708
_cell_length_b                    10.919337
_cell_length_c                    18.807658
_cell_angle_alpha                 90.045229
_cell_angle_beta                  90.654191
_cell_angle_gamma                 89.883369
_cell_volume                      3915.00039364

loop_
_atom_site_label
_atom_site_type_symbol
_atom_type_description
_atom_site_fract_x
_atom_site_fract_y
_atom_site_fract_z
_atom_type_partial_charge
C1    C     C_R   0.272988 0.041895 0.853769 0.559460
C2    C     C_R   0.008068 0.664710 0.964221 -0.121221
C3    C     C_R   0.491496 0.164777 0.035992 -0.121191
C4    C     C_R   0.508102 0.164702 0.964213 -0.121262
C5    C     C_2   0.249244 0.578729 0.920027 -0.117377
C6    C     C_2   0.750857 0.578681 0.079953 -0.117948
C7    C     C_2   0.749239 0.078711 0.920021 -0.117152
C8    C     C_2   0.250862 0.078667 0.079959 -0.118105
C9    C     C_2   0.248803 0.585862 0.076764 -0.106672
C10   C     C_2   0.751172 0.585929 0.923265 -0.106148
C11   C     C_2   0.748796 0.085843 0.076757 -0.107084
C12   C     C_R   0.727015 0.041896 0.146226 0.559252
C13   C     C_2   0.251176 0.085914 0.923270 -0.106150
C14   C     C_2   0.293453 0.519585 0.037414 -0.151115
C15   C     C_2   0.706651 0.519722 0.962565 -0.151441
C16   C     C_2   0.793446 0.019563 0.037408 -0.151514
C17   C     C_2   0.206661 0.019696 0.962571 -0.151567
C18   C     C_2   0.303460 0.545571 0.961870 -0.163194
C19   C     C_2   0.696660 0.545668 0.038128 -0.162938
C20   C     C_2   0.803453 0.045544 0.961863 -0.162877
C21   C     C_2   0.196668 0.045639 0.038134 -0.163017
C22   C     C_2   0.448111 0.827538 0.566178 -0.130999
C23   C     C_R   0.772987 0.541899 0.853767 0.558400
C24   C     C_2   0.488851 0.826741 0.416332 -0.137697
C25   C     C_2   0.947730 0.327338 0.566102 -0.130813
C26   C     C_2   0.989183 0.326668 0.416469 -0.130652
C27   C     C_2   0.489953 0.730114 0.461555 -0.048699
C28   C     C_2   0.446542 0.728472 0.523956 -0.065876
C29   C     C_2   0.991331 0.230508 0.461974 -0.048322
C30   C     C_2   0.947820 0.227669 0.524301 -0.070375
C31   C     C_2   0.251989 0.610019 0.570197 -0.083649
C32   C     C_2   0.746231 0.611817 0.430365 -0.085641
C33   C     C_2   0.742850 0.063269 0.584378 -0.107737
C34   C     C_R   0.227017 0.541902 0.146228 0.556800
C35   C     C_2   0.246662 0.110833 0.430081 -0.083278
C36   C     C_2   0.256360 0.602425 0.415075 -0.115995
C37   C     C_2   0.743406 0.603613 0.585414 -0.107180
C38   C     C_2   0.737547 0.067350 0.428740 -0.105242
C39   C     C_2   0.243673 0.102865 0.585137 -0.111511
C40   C     C_R   0.472691 0.821822 0.853004 0.545267
C41   C     C_R   0.527300 0.821903 0.147005 0.535643
C42   C     C_R   0.972691 0.321823 0.853004 0.545467
C43   C     C_R   0.027302 0.321901 0.147004 0.535125
C44   C     C_2   0.217597 0.681429 0.451390 -0.164767
C45   C     C_R   0.485193 0.054323 0.072451 -0.082015
C46   C     C_2   0.782627 0.681637 0.549091 -0.166163
C47   C     C_2   0.681220 0.063751 0.471300 -0.151112
C48   C     C_2   0.283054 0.180552 0.548785 -0.165745
C49   C     C_2   0.230624 0.700914 0.526484 -0.154270
C50   C     C_2   0.770593 0.700764 0.473799 -0.147713
C51   C     C_2   0.685708 0.091377 0.546393 -0.161139
C52   C     C_2   0.270983 0.199738 0.473559 -0.147164
C53   C     C_R   0.261192 0.635906 0.851350 0.552187
C54   C     C_R   0.738843 0.635935 0.148657 0.549125
C55   C     C_R   0.761190 0.135901 0.851348 0.549997
C56   C     C_R   0.514530 0.054178 0.927700 -0.082003
C57   C     C_R   0.238845 0.135930 0.148659 0.548798
C58   C     C_R   0.271091 0.047969 0.649397 0.543054
C59   C     C_R   0.725812 0.041404 0.354264 0.550503
C60   C     C_R   0.771028 0.548164 0.649481 0.546737
C61   C     C_R   0.228882 0.547929 0.350697 0.553469
C62   C     C_R   0.434400 0.819104 0.641169 0.570097
C63   C     C_R   0.530452 0.822914 0.352548 0.548705
C64   C     C_R   0.934344 0.319060 0.641193 0.572996
C65   C     C_R   0.030410 0.322930 0.352483 0.554167
C66   C     C_R   0.260955 0.640589 0.644409 0.546462
C67   C     C_R   0.985174 0.554312 0.072456 -0.082010
C68   C     C_R   0.738578 0.641806 0.355994 0.550158
C69   C     C_R   0.759367 0.133418 0.647710 0.549513
C70   C     C_R   0.238709 0.141382 0.355832 0.550610
C71   C     C_R   0.496240 0.828393 0.074714 -0.033666
C72   C     C_R   0.503697 0.828270 0.925323 -0.034558
C73   C     C_R   0.996244 0.328387 0.074712 -0.033258
C74   C     C_R   0.003700 0.328277 0.925321 -0.034393
C75   C     C_R   0.495476 0.941200 0.037368 0.010262
C76   C     C_R   0.504355 0.941133 0.962722 0.009326
C77   C     C_R   0.995469 0.441196 0.037369 0.010412
C78   C     C_R   0.014509 0.554190 0.927705 -0.081887
C79   C     C_R   0.004347 0.441138 0.962723 0.009183
C80   C     C_R   0.507197 0.717373 0.963918 -0.046807
C81   C     C_R   0.492795 0.717465 0.036076 -0.045906
C82   C     C_R   0.007213 0.217378 0.963913 -0.046885
C83   C     C_R   0.992811 0.217460 0.036071 -0.045810
C84   C     C_1   0.524872 0.601668 0.929929 0.227677
C85   C     C_1   0.475166 0.601921 0.070023 0.226407
C86   C     C_1   0.024896 0.101681 0.929919 0.227815
C87   C     C_1   0.975190 0.101907 0.070012 0.226496
C88   C     C_1   0.539907 0.628931 0.456776 0.269105
C89   C     C_R   0.991465 0.664772 0.036002 -0.121397
C90   C     C_1   0.421304 0.609038 0.546433 0.245752
C91   C     C_1   0.042173 0.130610 0.457201 0.272921
C92   C     C_1   0.925340 0.107071 0.547691 0.244196
Cr1   Cr    Cr6+3 0.230530 0.836340 0.748870 1.038394
Cr2   Cr    Cr6+3 0.614360 0.677860 0.250770 1.062197
Cr3   Cr    Cr6+3 0.885640 0.177860 0.749230 1.059884
Cr4   Cr    Cr6+3 0.114360 0.177860 0.250770 1.060535
Cr5   Cr    Cr6+3 0.769470 0.836340 0.251130 1.038588
Cr6   Cr    Cr6+3 0.730530 0.336340 0.748870 1.038133
Cr7   Cr    Cr6+3 0.269470 0.336340 0.251130 1.037535
Cr8   Cr    Cr6+3 0.387420 0.989430 0.750820 1.026665
Cr9   Cr    Cr6+3 0.612580 0.989430 0.249180 1.028029
Cr10  Cr    Cr6+3 0.887420 0.489430 0.750820 1.030668
Cr11  Cr    Cr6+3 0.112580 0.489430 0.249180 1.030950
Cr12  Cr    Cr6+3 0.385640 0.677860 0.749230 1.059927
H1    H     H_    0.171846 0.725544 0.427711 0.170555
H2    H     H_    0.695149 0.566779 0.562790 0.134518
H3    H     H_    0.790563 0.080118 0.449080 0.100617
H4    H     H_    0.195478 0.065892 0.562455 0.130888
H5    H     H_    0.264490 0.518695 0.551292 0.113607
H6    H     H_    0.729032 0.523262 0.449593 0.113654
H7    H     H_    0.781202 0.000022 0.563509 0.134001
H8    H     H_    0.229777 0.022000 0.449208 0.105284
H9    H     H_    0.470591 0.058277 0.127814 0.132123
H10   H     H_    0.529145 0.058020 0.872344 0.134501
H11   H     H_    0.970574 0.558256 0.127820 0.131885
H12   H     H_    0.828661 0.724510 0.572832 0.173470
H13   H     H_    0.029123 0.558044 0.872350 0.135394
H14   H     H_    0.984258 0.750649 0.063759 0.145943
H15   H     H_    0.015165 0.750538 0.936514 0.146521
H16   H     H_    0.484299 0.250660 0.063747 0.146116
H17   H     H_    0.515208 0.250525 0.936502 0.146330
H18   H     H_    0.322414 0.443094 0.060198 0.177640
H19   H     H_    0.677802 0.443290 0.939733 0.177712
H20   H     H_    0.822410 0.943078 0.060195 0.177485
H21   H     H_    0.177817 0.943258 0.939739 0.177612
H22   H     H_    0.356420 0.540313 0.941347 0.168988
H23   H     H_    0.628664 0.050296 0.449651 0.163883
H24   H     H_    0.643717 0.540545 0.058671 0.169290
H25   H     H_    0.856414 0.040285 0.941341 0.169071
H26   H     H_    0.143725 0.040508 0.058677 0.169241
H27   H     H_    0.221148 0.663848 0.053894 0.113541
H28   H     H_    0.778713 0.663853 0.946194 0.113877
H29   H     H_    0.721140 0.163825 0.053884 0.113675
H30   H     H_    0.278712 0.163843 0.946199 0.113971
H31   H     H_    0.196246 0.580545 0.940783 0.114643
H32   H     H_    0.803840 0.580365 0.059167 0.114240
H33   H     H_    0.696241 0.080528 0.940774 0.114587
H34   H     H_    0.329080 0.223447 0.572529 0.174556
H35   H     H_    0.303845 0.080358 0.059173 0.114262
H36   H     H_    0.455314 0.905691 0.425292 0.088143
H37   H     H_    0.469354 0.913823 0.547274 0.101449
H38   H     H_    0.954935 0.404758 0.425177 0.088541
H39   H     H_    0.967356 0.414516 0.546797 0.107366
H40   H     H_    0.217279 0.790992 0.547093 0.157639
H41   H     H_    0.787555 0.788495 0.452820 0.164433
H42   H     H_    0.643874 0.147276 0.568120 0.169523
H43   H     H_    0.287700 0.287715 0.452697 0.161678
H44   H     H_    0.304258 0.564275 0.437940 0.117792
N1    N     N_1   0.538729 0.509588 0.902943 -0.324077
N2    N     N_1   0.461342 0.509970 0.096978 -0.326567
N3    N     N_1   0.038759 0.009607 0.902929 -0.323344
N4    N     N_1   0.961372 0.009949 0.096962 -0.326773
N5    N     N_1   0.579079 0.548088 0.453436 -0.301660
N6    N     N_1   0.403300 0.512382 0.563522 -0.312500
N7    N     N_1   0.081923 0.050640 0.453889 -0.310344
N8    N     N_1   0.910204 0.009510 0.565795 -0.313521
O1    O     O_R   0.215090 0.709860 0.828130 -0.514162
O2    O     O_R   0.543740 0.718170 0.330000 -0.494094
O3    O     O_R   0.956260 0.218170 0.670000 -0.485145
O4    O     O_R   0.043740 0.218170 0.330000 -0.496972
O5    O     O_R   0.320940 0.626760 0.674370 -0.496500
O6    O     O_R   0.679060 0.626760 0.325630 -0.479874
O7    O     O_R   0.820940 0.126760 0.674370 -0.501710
O8    O     O_R   0.179060 0.126760 0.325630 -0.480769
O9    O     O_3   0.334530 0.834540 0.749640 -0.283473
O10   O     O_3   0.665470 0.834540 0.250360 -0.259969
O11   O     O_3   0.834530 0.334540 0.749640 -0.282057
O12   O     O_R   0.784910 0.709860 0.171870 -0.517071
O13   O     O_3   0.165470 0.334540 0.250360 -0.257835
O14   O     O_R   0.236990 0.958390 0.823710 -0.488011
O15   O     O_R   0.763010 0.958390 0.176290 -0.489797
O16   O     O_R   0.736990 0.458390 0.823710 -0.489102
O17   O     O_R   0.263010 0.458390 0.176290 -0.491029
O18   O     O_R   0.332380 0.074750 0.830850 -0.508102
O19   O     O_R   0.667620 0.074750 0.169150 -0.507768
O20   O     O_R   0.832380 0.574750 0.830850 -0.508649
O21   O     O_R   0.167620 0.574750 0.169150 -0.510294
O22   O     O_R   0.445800 0.917770 0.825070 -0.503419
O23   O     O_R   0.715090 0.209860 0.828130 -0.516296
O24   O     O_R   0.554200 0.917770 0.174930 -0.507324
O25   O     O_R   0.945800 0.417770 0.825070 -0.503493
O26   O     O_R   0.054200 0.417770 0.174930 -0.508296
O27   O     O_R   0.456410 0.716580 0.829970 -0.494494
O28   O     O_R   0.543590 0.716580 0.170030 -0.498183
O29   O     O_R   0.956410 0.216580 0.829970 -0.494357
O30   O     O_R   0.043590 0.216580 0.170030 -0.498561
O31   O     O_R   0.321080 0.625290 0.822650 -0.493761
O32   O     O_R   0.678920 0.625290 0.177350 -0.494426
O33   O     O_R   0.821080 0.125290 0.822650 -0.494862
O34   O     O_R   0.284910 0.209860 0.171870 -0.516894
O35   O     O_R   0.178920 0.125290 0.177350 -0.495154
O36   O     O_R   0.214930 0.711450 0.668160 -0.510344
O37   O     O_R   0.785070 0.711450 0.331840 -0.517585
O38   O     O_R   0.714930 0.211450 0.668160 -0.512923
O39   O     O_R   0.285070 0.211450 0.331840 -0.517572
O40   O     O_R   0.236850 0.959870 0.675420 -0.503372
O41   O     O_R   0.763150 0.959870 0.324580 -0.498559
O42   O     O_R   0.736850 0.459870 0.675420 -0.495278
O43   O     O_R   0.263150 0.459870 0.324580 -0.502932
O44   O     O_R   0.332230 0.076350 0.670880 -0.517186
O45   O     O_R   0.445660 0.919250 0.676780 -0.500915
O46   O     O_R   0.667770 0.076350 0.329120 -0.509396
O47   O     O_R   0.832230 0.576350 0.670880 -0.518039
O48   O     O_R   0.167770 0.576350 0.329120 -0.508033
O49   O     O_R   0.554340 0.919250 0.323220 -0.507775
O50   O     O_R   0.945660 0.419250 0.676780 -0.498238
O51   O     O_R   0.054340 0.419250 0.323220 -0.497881
O52   O     O_R   0.456260 0.718170 0.670000 -0.486277

loop_
_geom_bond_atom_site_label_1
_geom_bond_atom_site_label_2
_ccdc_geom_bond_type
C44   C49   S    
C43   C73   S    
C31   C66   S    
C83   C87   S    
C48   H34   S    
C75   C76   A    
Cr10  O11   S    
C14   H18   S    
Cr11  O26   S    
C5    C18   D    
C13   H30   S    
C14   C18   S    
C41   O24   A    
C67   C77   A    
C24   C27   D    
C7    C55   S    
C20   H25   S    
C80   C84   S    
Cr4   O13   S    
Cr8   O22   S    
Cr2   O10   S    
C44   H1    S    
C24   H36   S    
C15   C19   S    
C6    C19   D    
C58   O44   A    
C32   H6    S    
C27   C88   S    
C8    H35   S    
Cr3   O3    S    
C55   O33   A    
Cr4   O35   S    
C5    C53   S    
Cr2   O32   S    
C57   O35   A    
C10   C15   D    
C11   H29   S    
C61   O48   A    
C2    H15   S    
C63   O2    A    
Cr10  O20   S    
Cr5   O10   S    
C49   H40   S    
Cr7   O39   S    
C19   H24   S    
C67   C89   A    
Cr6   O38   S    
C11   C16   D    
Cr5   O37   S    
C38   H3    S    
C67   H11   S    
Cr11  O48   S    
C6    H32   S    
Cr12  O9    S    
C85   N2    T    
C36   H44   S    
C23   O16   A    
C35   C70   S    
C70   O39   A    
C66   O36   A    
C41   O28   A    
C68   O37   A    
C33   H7    S    
C90   N6    T    
Cr2   O6    S    
Cr6   O11   S    
C37   C46   D    
C33   C69   S    
C87   N4    T    
C41   C71   S    
C40   O27   A    
Cr6   O16   S    
C84   N1    T    
C77   C79   A    
Cr1   O9    S    
Cr2   O2    S    
C22   C28   D    
C4    C56   A    
Cr10  O25   S    
C61   O43   A    
C25   H39   S    
Cr2   O28   S    
C31   C49   D    
C65   O4    A    
Cr5   O15   S    
Cr11  O51   S    
C62   O52   A    
C12   O15   A    
C9    H27   S    
C42   O25   A    
C39   H4    S    
Cr1   O14   S    
C1    O18   A    
C42   C74   S    
Cr6   O42   S    
Cr4   O30   S    
C78   H13   S    
C30   C92   S    
Cr12  O5    S    
C7    H33   S    
C78   C79   A    
C47   C51   S    
C23   O20   A    
C51   H42   S    
C82   C86   S    
C39   C58   S    
C64   O50   A    
C3    C45   A    
C17   C21   S    
C33   C51   D    
Cr4   O8    S    
C66   O5    A    
C70   O8    A    
Cr8   O9    S    
Cr11  O21   S    
C25   C64   S    
C2    C89   A    
C9    C14   D    
C62   O45   A    
C91   N7    T    
C29   C30   S    
C2    C78   A    
Cr3   O7    S    
C8    C57   S    
C22   C62   S    
Cr8   O45   S    
C60   O47   A    
Cr7   O17   S    
C48   C52   S    
C16   C20   S    
C8    C21   D    
C31   H5    S    
C72   C76   A    
C92   N8    T    
Cr1   O1    S    
Cr10  O50   S    
C32   C50   D    
C38   C47   D    
Cr9   O49   S    
C12   O19   A    
C40   O22   A    
Cr8   O44   S    
C42   O29   A    
Cr4   O4    S    
C6    C54   S    
C24   C63   S    
C68   O6    A    
C74   C79   A    
Cr8   O18   S    
C9    C34   S    
C36   C44   D    
Cr1   O40   S    
C1    C13   S    
C36   C61   S    
C29   C91   S    
C50   H41   S    
Cr11  O13   S    
C74   C82   A    
Cr1   O36   S    
C25   C30   D    
C5    H31   S    
Cr12  O31   S    
C73   C77   A    
C40   C72   S    
Cr9   O46   S    
C26   C65   S    
C55   O23   A    
C1    O14   A    
C69   O7    A    
C54   O12   A    
C80   C81   A    
C34   O21   A    
Cr3   O11   S    
Cr7   O34   S    
C28   C90   S    
C11   C12   S    
C47   H23   S    
C65   O51   A    
C60   O42   A    
C10   C23   S    
C52   H43   S    
Cr5   O12   S    
C46   C50   S    
C43   O26   A    
C53   O1    A    
C43   O30   A    
C71   C81   A    
C13   C17   D    
C45   C75   A    
C88   N5    T    
C16   H20   S    
C37   H2    S    
C72   C80   A    
Cr9   O24   S    
C86   N3    T    
C18   H22   S    
C32   C68   S    
C71   C75   A    
C35   C52   D    
C59   O46   A    
C17   H21   S    
C59   O41   A    
C64   O3    A    
C58   O40   A    
C69   O38   A    
Cr10  O47   S    
C4    H17   S    
Cr12  O52   S    
C56   C76   A    
Cr9   O10   S    
Cr3   O29   S    
C10   H28   S    
C21   H26   S    
C37   C60   S    
Cr9   O19   S    
C3    H16   S    
Cr3   O33   S    
C53   O31   A    
C38   C59   S    
C45   H9    S    
Cr7   O13   S    
C57   O34   A    
Cr12  O27   S    
C89   H14   S    
C26   C29   D    
C7    C20   D    
C63   O49   A    
Cr7   O43   S    
C27   C28   S    
C34   O17   A    
C56   H10   S    
C46   H12   S    
C54   O32   A    
C15   H19   S    
C22   H37   S    
C82   C83   A    
Cr6   O23   S    
C26   H38   S    
C73   C83   A    
C81   C85   S    
C35   H8    S    
C3    C4    A    
C39   C48   D    
Cr5   O41   S    
