data_mof_unit_54946.cif
_audit_creation_date              2012-12-11T16:11:00-0500
_audit_creation_method            fapswitch 2.2
_symmetry_space_group_name_H-M    P1
_symmetry_Int_Tables_number       1
_space_group_crystal_system       triclinic
_cell_length_a                    12.849443
_cell_length_b                    13.328275
_cell_length_c                    26.937771
_cell_angle_alpha                 97.24311
_cell_angle_beta                  90.127176
_cell_angle_gamma                 118.827001
_cell_volume                      3998.89002088

loop_
_atom_site_label
_atom_site_type_symbol
_atom_type_description
_atom_site_fract_x
_atom_site_fract_y
_atom_site_fract_z
_atom_type_partial_charge
C1    C     C_R   0.628014 0.894922 0.424379 0.541804
C2    C     C_1   0.140332 0.823858 0.179390 -0.046537
C3    C     C_1   0.160833 0.836788 0.231725 -0.014926
C4    C     C_R   0.601831 0.223508 0.443203 0.546585
C5    C     C_1   0.175393 0.843928 0.276413 -0.008536
C6    C     C_1   0.195379 0.851267 0.328448 -0.037245
C7    C     C_1   0.221265 0.859737 0.372277 -0.001432
C8    C     C_1   0.689136 0.798688 0.136155 -0.003533
C9    C     C_1   0.672714 0.808474 0.180001 -0.038731
C10   C     C_1   0.661819 0.817974 0.232113 0.000826
C11   C     C_1   0.656304 0.827330 0.276879 -0.000156
C12   C     C_R   0.570656 0.306960 0.224465 -0.106530
C13   C     C_1   0.650815 0.842601 0.329260 -0.041709
C14   C     C_1   0.643450 0.862006 0.373545 -0.006516
C15   C     C_1   0.693111 0.384585 0.874883 -0.005386
C16   C     C_R   0.268616 0.875784 0.422467 0.542050
C17   C     C_1   0.682721 0.358021 0.830097 -0.049215
C18   C     C_1   0.673153 0.337167 0.777336 -0.019062
C19   C     C_1   0.665167 0.322055 0.732232 -0.009621
C20   C     C_1   0.652261 0.301235 0.679487 -0.033980
C21   C     C_1   0.634651 0.274678 0.634713 0.003699
C22   C     C_1   0.219558 0.863363 0.609634 -0.003039
C23   C     C_R   0.560619 0.298570 0.275768 0.008181
C24   C     C_R   0.150824 0.732580 0.721222 0.256865
C25   C     C_R   0.148934 0.728756 0.773230 0.046596
C26   C     C_R   0.197215 0.931254 0.788790 -0.131035
C27   C     C_R   0.199532 0.935670 0.737552 -0.139926
C28   C     C_R   0.630384 0.898489 0.563804 0.543326
C29   C     C_R   0.175635 0.837378 0.703647 0.022176
C30   C     C_R   0.170814 0.828473 0.806720 -0.018669
C31   C     C_1   0.147965 0.819768 0.858493 -0.066410
C32   C     C_1   0.193162 0.850838 0.651926 -0.056987
C33   C     C_1   0.115686 0.800494 0.899616 -0.025191
C34   C     C_R   0.662359 0.321729 0.305811 0.028088
C35   C     C_1   0.648742 0.863307 0.609181 0.010588
C36   C     C_R   0.766839 0.887168 0.730325 -0.163018
C37   C     C_R   0.771643 0.886734 0.782280 -0.002453
C38   C     C_R   0.558918 0.745733 0.774262 -0.115621
C39   C     C_R   0.554870 0.749642 0.722484 0.261304
C40   C     C_R   0.602872 0.227057 0.582920 0.545432
C41   C     C_R   0.659971 0.820639 0.700915 0.062899
C42   C     C_R   0.665484 0.814144 0.804133 -0.001484
C43   C     C_1   0.665481 0.802597 0.856313 -0.057708
C44   C     C_1   0.656055 0.839653 0.650044 0.010651
C45   C     C_R   0.679553 0.338240 0.203448 0.023959
C46   C     C_1   0.677385 0.790493 0.898955 -0.016471
C47   C     C_R   0.065174 0.771659 0.084159 0.543419
C48   C     C_R   0.715822 0.438474 0.066548 0.545893
C49   C     C_R   0.720159 0.782202 0.086055 0.545171
C50   C     C_R   0.060810 0.765482 0.944720 0.541347
C51   C     C_R   0.709456 0.432214 0.926665 0.543423
C52   C     C_R   0.268745 0.879592 0.562220 0.547586
C53   C     C_R   0.712106 0.775813 0.946494 0.541693
C54   C     C_1   0.634991 0.272673 0.398035 -0.007136
C55   C     C_R   0.770997 0.352487 0.284396 -0.117100
C56   C     C_1   0.691104 0.360448 0.152615 -0.053443
C57   C     C_R   0.779800 0.361502 0.233391 -0.107201
C58   C     C_R   0.886823 0.967734 0.812105 0.040134
C59   C     C_R   0.933150 0.932050 0.849446 -0.065227
C60   C     C_R   0.038748 0.011243 0.878021 -0.103253
C61   C     C_R   0.104072 0.124076 0.867278 -0.124521
C62   C     C_R   0.063068 0.158622 0.828380 -0.123993
C63   C     C_R   0.953811 0.082328 0.801837 -0.099130
C64   C     C_R   0.443459 0.265438 0.296821 0.030216
C65   C     C_R   0.433747 0.333813 0.338856 -0.078831
C66   C     C_R   0.323255 0.302329 0.358439 -0.097795
C67   C     C_1   0.652517 0.300690 0.356956 -0.056705
C68   C     C_R   0.221421 0.203197 0.335992 -0.095642
C69   C     C_R   0.229847 0.135533 0.293840 -0.102974
C70   C     C_R   0.340265 0.166292 0.274274 -0.094333
C71   C     C_R   0.120295 0.619536 0.792803 0.075409
C72   C     C_R   0.010210 0.519340 0.778890 -0.047543
C73   C     C_R   0.977928 0.421173 0.802025 -0.110936
C74   C     C_R   0.053981 0.423049 0.839650 -0.104390
C75   C     C_R   0.165366 0.520699 0.852403 -0.105464
C76   C     C_R   0.198981 0.618360 0.828827 -0.093397
C77   C     C_1   0.701313 0.389178 0.111665 -0.007478
C78   C     C_1   0.113630 0.805383 0.135077 -0.005341
Cr1   Cr    Cr6+3 0.416010 0.828400 0.490230 1.046797
Cr2   Cr    Cr6+3 0.676380 0.087280 0.505260 1.038525
Cr3   Cr    Cr6+3 0.407590 0.084280 0.504540 1.040849
Cr4   Cr    Cr6+3 0.914090 0.832340 0.018020 1.023912
Cr5   Cr    Cr6+3 0.923310 0.576840 0.003860 1.034826
Cr6   Cr    Cr6+3 0.654200 0.573160 0.004700 1.030021
H1    H     H_    0.848697 0.368587 0.307095 0.118467
H2    H     H_    0.187496 0.184080 0.888528 0.114201
H3    H     H_    0.115851 0.244865 0.818940 0.117192
H4    H     H_    0.921883 0.112982 0.773140 0.108090
H5    H     H_    0.384259 0.643554 0.713816 0.339861
H6    H     H_    0.511509 0.411823 0.356279 0.112796
H7    H     H_    0.316516 0.355114 0.390905 0.115143
H8    H     H_    0.135907 0.179076 0.351132 0.115793
H9    H     H_    0.150727 0.059164 0.276336 0.120661
H10   H     H_    0.345413 0.112414 0.241798 0.112678
H11   H     H_    0.125761 0.644776 0.654068 0.339075
H12   H     H_    0.478713 0.690157 0.791404 0.099508
H13   H     H_    0.948102 0.518423 0.751350 0.137940
H14   H     H_    0.893049 0.344200 0.791542 0.118281
H15   H     H_    0.026253 0.348961 0.859090 0.116739
H16   H     H_    0.224852 0.521417 0.881124 0.112301
H17   H     H_    0.284627 0.694453 0.839797 0.105414
H18   H     H_    0.864900 0.387779 0.217427 0.120904
H19   H     H_    0.494276 0.292115 0.201114 0.114008
H20   H     H_    0.214460 0.007786 0.814411 0.136994
H21   H     H_    0.221400 0.016608 0.724312 0.129210
H22   H     H_    0.846370 0.942160 0.712631 0.113483
H23   H     H_    0.888904 0.843117 0.856334 0.122105
H24   H     H_    0.071758 0.984838 0.907878 0.136697
O1    O     O_R   0.294740 0.800910 0.434410 -0.507432
O2    O     O_R   0.635480 0.460400 0.052590 -0.506621
O3    O     O_R   0.662650 0.681410 0.060750 -0.493627
O4    O     O_R   0.526010 0.837250 0.440870 -0.496285
O5    O     O_R   0.814500 0.852290 0.965490 -0.509306
O6    O     O_R   0.013160 0.821640 0.966980 -0.511121
O7    O     O_R   0.038850 0.666600 0.954370 -0.498093
O8    O     O_R   0.813260 0.476410 0.948680 -0.492610
O9    O     O_R   0.630060 0.454430 0.944230 -0.509204
O10   O     O_R   0.657630 0.675880 0.960300 -0.494987
O11   O     O_3   0.830530 0.660780 0.008860 -0.251328
O12   O     O_R   0.664100 0.185180 0.560770 -0.493263
O13   O     O_R   0.704290 0.994500 0.446090 -0.506184
O14   O     O_R   0.662870 0.181760 0.460430 -0.494728
O15   O     O_R   0.498970 0.199080 0.457120 -0.502985
O16   O     O_R   0.309350 0.975930 0.448180 -0.492952
O17   O     O_R   0.296060 0.804610 0.542650 -0.496634
O18   O     O_R   0.527240 0.840670 0.541200 -0.482199
O19   O     O_R   0.705610 0.998200 0.554330 -0.510452
O20   O     O_3   0.449655 0.687042 0.692619 -0.672979
O21   O     O_3   0.131018 0.633962 0.689460 -0.703310
O22   O     O_R   0.500290 0.202770 0.565360 -0.502356
O23   O     O_R   0.310570 0.979360 0.548520 -0.495619
O24   O     O_3   0.499990 0.999990 0.500010 -0.256917
O25   O     O_R   0.819910 0.858260 0.073860 -0.504216
O26   O     O_R   0.018180 0.827180 0.067430 -0.494674
O27   O     O_R   0.044260 0.672570 0.062730 -0.504896
O28   O     O_R   0.818270 0.481940 0.049130 -0.493849

loop_
_geom_bond_atom_site_label_1
_geom_bond_atom_site_label_2
_ccdc_geom_bond_type
C8    C9    T    
C66   C68   A    
Cr2   O12   S    
C55   H1    S    
Cr2   O24   S    
C63   H4    S    
C27   C29   A    
C73   C74   A    
C48   O2    A    
C19   C20   S    
C39   C41   A    
Cr2   O14   S    
C57   H18   S    
C12   C23   A    
C45   C57   A    
C26   C27   A    
C22   C32   T    
Cr1   O4    S    
Cr3   O15   S    
C36   C37   A    
C70   H10   S    
C38   C42   A    
C29   C32   S    
C69   H9    S    
C69   C70   A    
C1    O4    A    
C30   C31   S    
Cr3   O23   S    
C27   H21   S    
C76   H17   S    
C15   C17   T    
C50   O7    A    
Cr5   O11   S    
C37   C42   A    
C24   C29   A    
C49   O25   A    
C26   H20   S    
C24   O21   S    
C68   H8    S    
C45   C56   S    
C28   O18   A    
C68   C69   A    
C31   C33   T    
C25   C30   A    
C25   C71   S    
C15   C51   S    
C9    C10   S    
Cr5   O27   S    
C37   C58   S    
C60   H24   S    
C28   O19   A    
C49   O3    A    
C4    C54   S    
Cr1   O17   S    
C34   C55   A    
C13   C14   T    
C72   C73   A    
C36   C41   A    
C73   H14   S    
Cr4   O11   S    
C53   O5    A    
C16   O1    A    
C6    C7    T    
C1    O13   A    
C72   H13   S    
C65   H6    S    
Cr6   O3    S    
C74   C75   A    
Cr1   O1    S    
Cr3   O16   S    
C36   H22   S    
Cr5   O7    S    
C38   C39   A    
C24   C25   A    
Cr4   O6    S    
C12   H19   S    
C61   H2    S    
C53   O10   A    
C18   C19   T    
Cr3   O24   S    
C54   C67   T    
C58   C59   A    
Cr6   O2    S    
C56   C77   T    
C4    O15   A    
C60   C61   A    
C50   O6    A    
C48   C77   S    
Cr4   O26   S    
C75   C76   A    
C62   C63   A    
C2    C78   T    
C23   C34   A    
C17   C18   S    
C4    O14   A    
C35   C44   T    
Cr5   O28   S    
C66   H7    S    
C23   C64   S    
C40   O12   A    
Cr1   O18   S    
C26   C30   A    
C64   C70   A    
Cr2   O13   S    
C55   C57   A    
C47   O26   A    
C41   C44   S    
C42   C43   S    
C71   C76   A    
C22   C52   S    
C58   C63   A    
C28   C35   S    
C40   O22   A    
C7    C16   S    
C39   O20   S    
C47   O27   A    
C52   O23   A    
Cr5   O8    S    
C48   O28   A    
Cr4   O5    S    
C12   C45   A    
C3    C5    T    
C34   C67   S    
C52   O17   A    
C74   H15   S    
Cr2   O19   S    
C62   H3    S    
C51   O8    A    
C64   C65   A    
Cr4   O25   S    
C2    C3    S    
C33   C50   S    
C71   C72   A    
C11   C13   S    
Cr3   O22   S    
C5    C6    S    
C21   C40   S    
Cr6   O11   S    
Cr1   O24   S    
C46   C53   S    
C75   H16   S    
C51   O9    A    
C16   O16   A    
C61   C62   A    
C43   C46   T    
C59   H23   S    
C10   C11   T    
Cr6   O9    S    
C59   C60   A    
C20   C21   T    
Cr6   O10   S    
C65   C66   A    
C38   H12   S    
H11   O21   S    
C1    C14   S    
C47   C78   S    
C8    C49   S    
H5    O20   S    
