data_mof_unit_23739.cif
_audit_creation_date              2012-12-10T19:11:31-0500
_audit_creation_method            fapswitch 2.2
_symmetry_space_group_name_H-M    P1
_symmetry_Int_Tables_number       1
_space_group_crystal_system       triclinic
_cell_length_a                    7.786856
_cell_length_b                    9.094939
_cell_length_c                    17.226358
_cell_angle_alpha                 90.002623
_cell_angle_beta                  85.232702
_cell_angle_gamma                 90.027334
_cell_volume                      1215.76682277

loop_
_atom_site_label
_atom_site_type_symbol
_atom_type_description
_atom_site_fract_x
_atom_site_fract_y
_atom_site_fract_z
_atom_type_partial_charge
C1    C     C_R   0.500023 0.779968 0.500000 0.869791
C2    C     C_R   0.499983 0.220034 0.499989 0.799790
C3    C     C_1   0.500038 0.934633 0.499999 -0.133564
C4    C     C_1   0.499981 0.065377 0.499997 -0.139131
C5    C     C_R   0.476551 0.496336 0.650491 0.880228
C6    C     C_R   0.523466 0.500496 0.349477 0.877916
C7    C     C_R   0.460413 0.483712 0.735519 -0.252129
C8    C     C_R   0.540473 0.508849 0.264360 -0.302202
C9    C     C_R   0.568611 0.386276 0.773243 0.247470
C10   C     C_R   0.442996 0.614609 0.227658 0.279424
C11   C     C_R   0.565760 0.388551 0.854939 0.388850
C12   C     C_R   0.468153 0.632762 0.146076 0.356736
C13   C     C_R   0.446442 0.478587 0.897981 -0.135821
C14   C     C_R   0.580044 0.537629 0.102212 -0.232420
C15   C     C_R   0.328135 0.565151 0.861339 0.265358
C16   C     C_R   0.678888 0.431951 0.139069 0.379696
C17   C     C_R   0.340781 0.573600 0.779106 0.286080
C18   C     C_R   0.657935 0.416763 0.219916 0.355346
C19   C     C_2   0.445289 0.481655 0.983550 0.554972
C20   C     C_2   0.579489 0.541405 0.016698 0.438424
Cu1   Cu    Cu3+1 0.330920 0.500000 0.500000 1.079051
Cu2   Cu    Cu3+1 0.669080 0.500000 0.500000 1.048794
N1    N     N_1   0.923170 0.500000 0.500010 -0.024021
N2    N     N_1   0.076830 0.500000 0.499990 -0.022464
O1    O     O_R   0.357240 0.711600 0.500000 -0.560647
O2    O     O_R   0.642760 0.288400 0.500000 -0.587230
O3    O     O_R   0.642760 0.711600 0.500000 -0.580982
O4    O     O_R   0.357240 0.288400 0.500000 -0.583126
O5    O     O_R   0.340660 0.500000 0.613590 -0.538820
O6    O     O_R   0.659340 0.500000 0.386410 -0.588498
O7    O     O_R   0.626230 0.500000 0.613600 -0.576755
O8    O     O_R   0.373770 0.500000 0.386400 -0.531741
O9    O     O_3   0.204918 0.641740 0.907398 -0.673516
H1    H     H_    0.101697 0.654379 0.878126 0.355653
O10   O     O_3   0.792442 0.336799 0.098530 -0.622913
H2    H     H_    0.804434 0.362207 0.042588 0.356513
O11   O     O_3   0.386222 0.741910 0.107253 -0.661511
H3    H     H_    0.364008 0.826608 0.142777 0.346986
O12   O     O_3   0.673150 0.300424 0.895111 -0.701796
H4    H     H_    0.755641 0.247835 0.858153 0.388329
O13   O     O_3   0.676914 0.287678 0.732387 -0.704374
H5    H     H_    0.628099 0.261991 0.682889 0.329355
O14   O     O_3   0.325421 0.698510 0.272940 -0.699825
H6    H     H_    0.228736 0.724448 0.241645 0.349459
O15   O     O_3   0.751168 0.306962 0.252741 -0.632328
H7    H     H_    0.692866 0.278094 0.303670 0.316736
O16   O     O_3   0.244650 0.672581 0.739880 -0.696624
H8    H     H_    0.214612 0.757627 0.774230 0.346247
O17   O     O_3   0.715116 0.603391 0.971011 -0.724298
H9    H     H_    0.799200 0.641920 0.006167 0.352058
O18   O     O_3   0.308097 0.423127 0.029738 -0.694460
H10   H     H_    0.225187 0.381101 0.995052 0.351937

loop_
_geom_bond_atom_site_label_1
_geom_bond_atom_site_label_2
_ccdc_geom_bond_type
C6    O8    A    
N1    N2    T    
C1    O1    A    
C20   O17   S    
C19   O18   S    
C11   C13   A    
O13   H5    S    
C9    O13   S    
O16   H8    S    
O14   H6    S    
C1    O3    A    
O9    H1    S    
C5    C7    S    
C2    O2    A    
O15   H7    S    
C11   O12   S    
C9    C11   A    
O11   H3    S    
C10   C12   A    
C2    C4    S    
C16   C18   A    
C6    O6    A    
Cu1   O4    S    
C12   C14   A    
C5    O5    A    
Cu2   O3    S    
C13   C15   A    
C16   O10   S    
Cu1   O8    S    
C14   C16   A    
C2    O4    A    
Cu2   O7    S    
C13   C19   S    
O18   H10   S    
C18   O15   S    
C14   C20   S    
C12   O11   S    
C7    C9    A    
O17   H9    S    
Cu2   O2    S    
Cu1   N2    S    
O12   H4    S    
C15   C17   A    
Cu1   O1    S    
Cu2   N1    S    
C6    C8    S    
Cu2   O6    S    
C1    C3    S    
C10   O14   S    
Cu1   Cu2   S    
Cu1   O5    S    
C15   O9    S    
C8    C10   A    
C8    C18   A    
C3    C4    T    
C19   C20   D    
C17   O16   S    
C5    O7    A    
O10   H2    S    
C7    C17   A    
