data_mof_unit_67352.cif
_audit_creation_date              2013-03-05T16:08:12-0500
_audit_creation_method            fapswitch 2.2
_symmetry_space_group_name_H-M    P1
_symmetry_Int_Tables_number       1
_space_group_crystal_system       triclinic
_cell_length_a                    19.634091
_cell_length_b                    22.475023
_cell_length_c                    8.714883
_cell_angle_alpha                 90.02275
_cell_angle_beta                  103.876203
_cell_angle_gamma                 89.516967
_cell_volume                      3733.30495089

loop_
_atom_site_label
_atom_site_type_symbol
_atom_site_description
_atom_site_fract_x
_atom_site_fract_y
_atom_site_fract_z
_atom_type_partial_charge
P1    P     P_3+3 0.853370 0.434890 0.996520 0.452458
P2    P     P_3+3 0.853370 0.565110 0.496520 0.462475
P3    P     P_3+3 0.353370 0.934890 0.996520 0.452473
P4    P     P_3+3 0.353370 0.065110 0.496520 0.462469
O1    O     O_2   0.860260 0.414960 0.826400 -0.392463
O2    O     O_2   0.860260 0.585040 0.326400 -0.382374
O3    O     O_2   0.360260 0.914960 0.826400 -0.392426
O4    O     O_2   0.360260 0.085040 0.326400 -0.382395
O5    O     O_3   0.918600 0.470180 0.098890 -0.404490
O6    O     O_3   0.918600 0.529820 0.598890 -0.397287
O7    O     O_3   0.418600 0.970180 0.098890 -0.404473
O8    O     O_3   0.418600 0.029820 0.598890 -0.397282
O9    O     O_3   0.975750 0.362410 0.628650 -0.381801
O10   O     O_3   0.975750 0.637590 0.128650 -0.347281
O11   O     O_3   0.475750 0.862410 0.628650 -0.381832
O12   O     O_3   0.475750 0.137590 0.128650 -0.347401
O13   O     O_2   0.857293 0.320265 0.670253 -0.446132
O14   O     O_2   0.864457 0.687553 0.198935 -0.415030
O15   O     O_2   0.357297 0.820268 0.670292 -0.446134
O16   O     O_2   0.364487 0.187582 0.198941 -0.415087
O17   O     O_3   0.783530 0.484405 0.929315 -0.570235
O18   O     O_3   0.784334 0.515396 0.431176 -0.585556
O19   O     O_3   0.283543 0.984417 0.929309 -0.570240
O20   O     O_3   0.284338 0.015393 0.431179 -0.585568
O21   O     O_3   0.942490 0.235802 0.632216 -0.568219
O22   O     O_3   0.939984 0.760160 0.078307 -0.561811
O23   O     O_3   0.442476 0.735805 0.632178 -0.568220
O24   O     O_3   0.440039 0.260174 0.078297 -0.561583
H1    H     H_    0.044434 0.252596 0.615444 0.077177
H2    H     H_    0.990636 0.731039 0.905416 0.079496
H3    H     H_    0.544416 0.752610 0.615394 0.077153
H4    H     H_    0.490702 0.231063 0.905423 0.079310
C1    C     C_3   0.034048 0.157771 0.661524 -0.634442
C2    C     C_3   0.029886 0.817264 0.990254 -0.625156
C3    C     C_3   0.534042 0.657783 0.661481 -0.634444
C4    C     C_3   0.529844 0.317351 0.990024 -0.624950
P5    P     P_3+3 0.146350 0.434230 0.693140 0.579738
P6    P     P_3+3 0.146350 0.565770 0.193140 0.574711
P7    P     P_3+3 0.646350 0.934230 0.693140 0.579812
P8    P     P_3+3 0.646350 0.065770 0.193140 0.574679
P9    P     P_3+3 0.068858 0.296671 0.131718 0.504654
P10   P     P_3+3 0.082848 0.695605 0.624949 0.463720
P11   P     P_3+3 0.568866 0.796676 0.131716 0.504591
P12   P     P_3+3 0.582847 0.195606 0.624951 0.463777
O25   O     O_2   0.139400 0.414340 0.863230 -0.338612
O26   O     O_2   0.139400 0.585660 0.363230 -0.378169
O27   O     O_2   0.639400 0.914340 0.863230 -0.338583
O28   O     O_2   0.639400 0.085660 0.363230 -0.378217
O29   O     O_3   0.023740 0.362300 0.060930 -0.372431
O30   O     O_3   0.023740 0.637700 0.560930 -0.391128
O31   O     O_3   0.523740 0.862300 0.060930 -0.372376
O32   O     O_3   0.523740 0.137700 0.560930 -0.391154
O33   O     O_2   0.124573 0.291328 0.033029 -0.339977
O34   O     O_2   0.130474 0.699420 0.506719 -0.345735
O35   O     O_2   0.624582 0.791339 0.033026 -0.340044
O36   O     O_2   0.630469 0.199422 0.506715 -0.345502
O37   O     O_3   0.233358 0.464387 0.712654 -0.557146
O38   O     O_3   0.230721 0.526551 0.256850 -0.571456
O39   O     O_3   0.733358 0.964391 0.712657 -0.557093
O40   O     O_3   0.730719 0.026544 0.256870 -0.571410
O41   O     O_3   0.013555 0.236308 0.067177 -0.541139
O42   O     O_3   0.036205 0.762943 0.601335 -0.575804
O43   O     O_3   0.513562 0.736313 0.067182 -0.541163
O44   O     O_3   0.536202 0.262943 0.601344 -0.575918
C5    C     C_3   0.947808 0.258398 0.985061 0.534363
C6    C     C_3   0.989892 0.764975 0.451813 0.492404
C7    C     C_3   0.447818 0.758404 0.985042 0.534422
C8    C     C_3   0.489865 0.264962 0.451852 0.492301
H5    H     H_    0.925343 0.289394 0.058371 0.086552
H6    H     H_    0.944910 0.735074 0.447859 0.152995
H7    H     H_    0.425350 0.789412 0.058323 0.086610
H8    H     H_    0.444906 0.235038 0.447925 0.153020
C9    C     C_3   0.895920 0.207800 0.935278 -0.889188
C10   C     C_3   0.963964 0.828781 0.418689 -0.811359
C11   C     C_3   0.395924 0.707810 0.935276 -0.889152
C12   C     C_3   0.463896 0.328760 0.418751 -0.811270
H9    H     H_    0.847187 0.225011 0.854554 0.246226
H10   H     H_    0.921296 0.830718 0.309161 0.257876
H11   H     H_    0.347194 0.725020 0.854538 0.246264
H12   H     H_    0.421222 0.330684 0.309232 0.257896
H13   H     H_    0.918506 0.172580 0.873130 0.293234
H14   H     H_    0.008310 0.857135 0.406154 0.282949
H15   H     H_    0.418507 0.672581 0.873149 0.293213
H16   H     H_    0.508224 0.357138 0.406217 0.282787
C13   C     C_3   0.239007 0.462887 0.270854 0.238756
C14   C     C_3   0.254006 0.524550 0.756661 0.256378
C15   C     C_3   0.738991 0.962877 0.270864 0.238774
C16   C     C_3   0.754005 0.024553 0.756672 0.256295
C17   C     C_3   0.280777 0.435977 0.155130 -0.820242
C18   C     C_3   0.327585 0.535293 0.728569 -0.813812
C19   C     C_3   0.780765 0.935961 0.155155 -0.820427
C20   C     C_3   0.827582 0.035301 0.728579 -0.813612
H17   H     H_    0.329315 0.461380 0.158005 0.292034
H18   H     H_    0.361529 0.495236 0.761030 0.289752
H19   H     H_    0.829315 0.961353 0.158072 0.292082
H20   H     H_    0.861537 0.995252 0.761075 0.289732
H21   H     H_    0.297301 0.389148 0.187661 0.178626
H22   H     H_    0.354722 0.573923 0.795071 0.259141
H23   H     H_    0.797267 0.889127 0.187669 0.178551
H24   H     H_    0.854707 0.073940 0.795063 0.259109
H25   H     H_    0.250586 0.432035 0.033182 0.274422
H26   H     H_    0.322627 0.548123 0.604359 0.283249
H27   H     H_    0.750584 0.932030 0.033195 0.274462
H28   H     H_    0.822625 0.048122 0.604362 0.283240
Ba1   Ba    Ba6+2 0.999900 0.457470 0.844900 1.585262
Ba2   Ba    Ba6+2 0.999900 0.542530 0.344900 1.623003
Ba3   Ba    Ba6+2 0.499900 0.957470 0.844900 1.585234
Ba4   Ba    Ba6+2 0.499900 0.042530 0.344900 1.623025
C21   C     C_3   0.779503 0.526352 0.044209 0.292550
C22   C     C_3   0.787981 0.469157 0.538755 0.311629
C23   C     C_3   0.279502 0.026351 0.044224 0.292537
C24   C     C_3   0.288002 0.969150 0.538752 0.311202
H29   H     H_    0.816924 0.562613 0.038997 0.125718
H30   H     H_    0.834850 0.441081 0.538579 0.141287
H31   H     H_    0.316899 0.062630 0.039001 0.125693
H32   H     H_    0.334878 0.941085 0.538571 0.141353
H33   H     H_    0.791165 0.505825 0.163080 0.130650
H34   H     H_    0.790228 0.487813 0.657169 0.139109
H35   H     H_    0.291186 0.005822 0.163093 0.130638
H36   H     H_    0.290243 0.987803 0.657165 0.139174
C25   C     C_3   0.705042 0.551955 0.005972 -0.716608
C26   C     C_3   0.722717 0.430621 0.486403 -0.758681
C27   C     C_3   0.205026 0.051921 0.006020 -0.716340
C28   C     C_3   0.222752 0.930601 0.486409 -0.758196
H37   H     H_    0.687991 0.562862 0.877927 0.207218
H38   H     H_    0.709025 0.426846 0.355553 0.225782
H39   H     H_    0.187954 0.062816 0.877969 0.207201
H40   H     H_    0.209077 0.926801 0.355561 0.225847
H41   H     H_    0.703919 0.593889 0.071842 0.163315
H42   H     H_    0.734396 0.385102 0.535593 0.173599
H43   H     H_    0.203884 0.093858 0.071871 0.163287
H44   H     H_    0.234441 0.885091 0.535662 0.173595
O45   O     O_3   0.081330 0.529680 0.090830 -0.347588
O46   O     O_3   0.081330 0.470320 0.590830 -0.354256
O47   O     O_3   0.581330 0.029680 0.090830 -0.347572
O48   O     O_3   0.581330 0.970320 0.590830 -0.354268
P13   P     P_3+3 0.904988 0.687542 0.066856 0.430240
P14   P     P_3+3 0.910289 0.308453 0.567945 0.413894
P15   P     P_3+3 0.405012 0.187563 0.066847 0.430220
P16   P     P_3+3 0.410279 0.808460 0.567948 0.413855
C29   C     C_3   0.003397 0.218019 0.582183 0.222010
C30   C     C_3   0.968268 0.772273 0.946053 0.214455
C31   C     C_3   0.503384 0.718028 0.582139 0.221995
C32   C     C_3   0.468291 0.272288 0.945994 0.214658
H45   H     H_    0.881618 0.188292 0.040060 0.247541
H46   H     H_    0.943656 0.846950 0.517463 0.277712
H47   H     H_    0.381613 0.688314 0.040062 0.247537
H48   H     H_    0.443585 0.346914 0.517537 0.277685
C33   C     C_R   0.134290 0.691267 0.834924 0.232805
C34   C     C_R   0.114180 0.297189 0.350448 0.236860
C35   C     C_R   0.634290 0.191267 0.834926 0.232681
C36   C     C_R   0.614186 0.797193 0.350439 0.236667
C37   C     C_R   0.184705 0.734753 0.900928 -0.061686
C38   C     C_R   0.165006 0.253556 0.417519 -0.088377
C39   C     C_R   0.684722 0.234742 0.900913 -0.061638
C40   C     C_R   0.665016 0.753562 0.417503 -0.088388
C41   C     C_R   0.782662 0.324378 0.038602 -0.038503
C42   C     C_R   0.770338 0.667482 0.548921 -0.029297
C43   C     C_R   0.282626 0.824399 0.038634 -0.038936
C44   C     C_R   0.270327 0.167474 0.548941 -0.029322
C45   C     C_R   0.742978 0.329116 0.882334 -0.043840
C46   C     C_R   0.731973 0.663710 0.391844 -0.087522
C47   C     C_R   0.242952 0.829132 0.882358 -0.044154
C48   C     C_R   0.231963 0.163703 0.391862 -0.087570
C49   C     C_R   0.195987 0.785018 0.814176 -0.131774
C50   C     C_R   0.180168 0.205369 0.327973 -0.124105
C51   C     C_R   0.696006 0.285006 0.814160 -0.131667
C52   C     C_R   0.680178 0.705376 0.327956 -0.124110
C53   C     C_R   0.832860 0.368074 0.106734 0.176259
C54   C     C_R   0.827432 0.628249 0.610793 0.241281
C55   C     C_R   0.332840 0.868085 0.106751 0.176315
C56   C     C_R   0.327428 0.128246 0.610806 0.241285
H49   H     H_    0.746939 0.367359 0.810806 0.187843
H50   H     H_    0.741808 0.628658 0.315968 0.168481
H51   H     H_    0.246923 0.867371 0.810824 0.187931
H52   H     H_    0.241801 0.128653 0.315982 0.168460
H53   H     H_    0.167762 0.791932 0.693008 0.198526
H54   H     H_    0.153209 0.199523 0.206136 0.181310
H55   H     H_    0.667770 0.291925 0.693002 0.198513
H56   H     H_    0.653218 0.699530 0.206120 0.181308
C57   C     C_R   0.868412 0.362283 0.266710 -0.438512
C58   C     C_R   0.862549 0.632683 0.770758 -0.418926
C59   C     C_R   0.368395 0.862294 0.266724 -0.438530
C60   C     C_R   0.362551 0.132685 0.770768 -0.418733
C61   C     C_R   0.159072 0.636983 0.087712 0.306542
C62   C     C_R   0.144960 0.355815 0.599397 0.275780
C63   C     C_R   0.659064 0.136989 0.087725 0.306221
C64   C     C_R   0.644966 0.855819 0.599386 0.276051
C65   C     C_R   0.212421 0.678899 0.151106 -0.072852
C66   C     C_R   0.191831 0.308682 0.669566 -0.052944
C67   C     C_R   0.712425 0.178896 0.151103 -0.073004
C68   C     C_R   0.691842 0.808688 0.669549 -0.052779
C69   C     C_R   0.223138 0.729108 0.060133 0.046382
C70   C     C_R   0.201617 0.257798 0.578579 -0.004211
C71   C     C_R   0.723164 0.229091 0.060109 0.046559
C72   C     C_R   0.701630 0.757806 0.578560 -0.004188
C73   C     C_R   0.253808 0.673355 0.305131 -0.060808
C74   C     C_R   0.228850 0.309880 0.828768 0.053329
C75   C     C_R   0.753818 0.173346 0.305121 -0.060770
C76   C     C_R   0.728861 0.809887 0.828751 0.053213
C77   C     C_R   0.798676 0.218337 0.375150 -0.111018
C78   C     C_R   0.771949 0.763114 0.898396 -0.098092
C79   C     C_R   0.298643 0.718358 0.375179 -0.111205
C80   C     C_R   0.271940 0.263108 0.898415 -0.098050
C81   C     C_R   0.809164 0.269086 0.289801 -0.060123
C82   C     C_R   0.787780 0.715760 0.807797 0.005828
C83   C     C_R   0.309120 0.769113 0.289839 -0.059751
C84   C     C_R   0.287771 0.215754 0.807818 0.005838
C85   C     C_R   0.772045 0.274112 0.129275 0.040609
C86   C     C_R   0.752163 0.712863 0.645970 0.071848
C87   C     C_R   0.271997 0.774141 0.129317 0.040618
C88   C     C_R   0.252149 0.212854 0.645993 0.071838
C89   C     C_R   0.856919 0.314026 0.359366 0.283457
C90   C     C_R   0.843780 0.675517 0.869962 0.135811
C91   C     C_R   0.356891 0.814044 0.359389 0.283435
C92   C     C_R   0.343784 0.175521 0.869976 0.135791
C93   C     C_R   0.119301 0.645569 0.932134 -0.372766
C94   C     C_R   0.100527 0.344011 0.448497 -0.448935
C95   C     C_R   0.619291 0.145577 0.932148 -0.373065
C96   C     C_R   0.600532 0.844014 0.448488 -0.448976
H57   H     H_    0.824534 0.212227 0.497760 0.216872
H58   H     H_    0.796898 0.767499 0.022406 0.164465
H59   H     H_    0.324502 0.712247 0.497789 0.216882
H60   H     H_    0.296894 0.267497 0.022422 0.164422
H61   H     H_    0.251749 0.634378 0.374596 0.213314
H62   H     H_    0.225859 0.346263 0.905026 0.155565
H63   H     H_    0.751745 0.134376 0.374600 0.213307
H64   H     H_    0.725868 0.846268 0.905012 0.155551
C97   C     C_2   0.655019 0.508307 0.048236 1.194164
O49   O     O_2   0.648340 0.459073 0.987093 -0.585819
O50   O     O_R   0.616945 0.523931 0.158717 -0.757968
H65   H     H_    0.585391 0.490754 0.178215 0.344528
C98   C     C_2   0.661053 0.455881 0.539585 1.182603
O51   O     O_2   0.640924 0.506794 0.504076 -0.578382
O52   O     O_R   0.626485 0.420596 0.628530 -0.784783
H66   H     H_    0.585254 0.441978 0.655626 0.377729
C99   C     C_2   0.155040 0.008253 0.048338 1.193862
O53   O     O_2   0.148438 0.958991 0.987344 -0.586285
O54   O     O_R   0.116909 0.023889 0.158703 -0.757858
H67   H     H_    0.085384 0.990698 0.178249 0.344636
C100  C     C_2   0.161074 0.955862 0.539536 1.182838
O55   O     O_2   0.140937 0.006769 0.503976 -0.578422
O56   O     O_R   0.126507 0.920587 0.628506 -0.784739
H68   H     H_    0.085275 0.941972 0.655583 0.377714
C101  C     C_2   0.986996 0.209152 0.405695 0.957940
O57   O     O_2   0.969427 0.251858 0.320707 -0.704113
O58   O     O_R   0.993475 0.153183 0.339100 -0.768543
H69   H     H_    0.980029 0.152916 0.219795 0.374246
C102  C     C_2   0.912108 0.796463 0.809674 0.954399
O59   O     O_2   0.879824 0.842070 0.824299 -0.591616
O60   O     O_R   0.895813 0.765546 0.667346 -0.848300
H70   H     H_    0.856779 0.785391 0.585438 0.333984
C103  C     C_2   0.486978 0.709161 0.405651 0.958014
O61   O     O_2   0.469390 0.751865 0.320660 -0.704107
O62   O     O_R   0.493471 0.653193 0.339061 -0.768562
H71   H     H_    0.480017 0.652923 0.219756 0.374241
C104  C     C_2   0.412093 0.296424 0.809606 0.954147
O63   O     O_2   0.379787 0.342025 0.824165 -0.591603
O64   O     O_R   0.395801 0.265469 0.667334 -0.848332
H72   H     H_    0.356756 0.285291 0.585397 0.333938
H73   H     H_    0.076607 0.143519 0.604506 0.145499
H74   H     H_    0.055644 0.818387 0.889734 0.152499
H75   H     H_    0.576600 0.643533 0.604458 0.145523
H76   H     H_    0.555496 0.318549 0.889339 0.152721
C105  C     C_2   0.069894 0.162720 0.833629 1.080326
O65   O     O_2   0.123693 0.191515 0.872863 -0.641064
O66   O     O_R   0.045995 0.129862 0.946415 -0.772543
H77   H     H_    0.077195 0.133696 0.056556 0.351412
C106  C     C_2   0.085657 0.797984 0.132931 1.058677
O67   O     O_2   0.088599 0.746465 0.178578 -0.629644
O68   O     O_R   0.135705 0.838697 0.209991 -0.811593
H78   H     H_    0.169876 0.820366 0.304392 0.318037
C107  C     C_2   0.569892 0.662736 0.833583 1.080295
O69   O     O_2   0.623687 0.691537 0.872807 -0.641051
O70   O     O_R   0.546001 0.629877 0.946377 -0.772584
H79   H     H_    0.577203 0.633714 0.056515 0.351409
C108  C     C_2   0.585771 0.298139 0.132469 1.058599
O71   O     O_2   0.588610 0.246726 0.178849 -0.629513
O72   O     O_R   0.636099 0.338799 0.208411 -0.811357
H80   H     H_    0.670292 0.320584 0.302950 0.317793
H81   H     H_    0.906141 0.395638 0.320196 0.163845
H82   H     H_    0.906336 0.603168 0.818615 0.168053
H83   H     H_    0.406136 0.895641 0.320198 0.163839
H84   H     H_    0.406345 0.103176 0.818616 0.168030
H85   H     H_    0.077683 0.614740 0.883675 0.192355
H86   H     H_    0.055950 0.372552 0.404187 0.175846
H87   H     H_    0.577668 0.114751 0.883694 0.192411
H88   H     H_    0.555953 0.872553 0.404174 0.175842
C109  C     C_2   0.981809 0.107277 0.634930 1.228121
O73   O     O_2   0.919695 0.116424 0.574767 -0.643258
O74   O     O_R   0.006001 0.049356 0.675534 -0.774096
H89   H     H_    0.967336 0.018823 0.648308 0.355231
C110  C     C_2   0.005675 0.880173 0.011687 1.190780
O75   O     O_2   0.981253 0.892984 0.123846 -0.644229
O76   O     O_R   0.008530 0.923179 0.897689 -0.756168
H90   H     H_    0.989551 0.963236 0.922299 0.337803
C111  C     C_2   0.481807 0.607285 0.634902 1.228098
O77   O     O_2   0.419693 0.616427 0.574743 -0.643218
O78   O     O_R   0.506006 0.549368 0.675522 -0.773979
H91   H     H_    0.467342 0.518832 0.648315 0.355305
C112  C     C_2   0.505567 0.380219 0.011682 1.190546
O79   O     O_2   0.481186 0.392945 0.123954 -0.644555
O80   O     O_R   0.508342 0.423293 0.897799 -0.756077
H92   H     H_    0.489349 0.463320 0.922589 0.337764
H93   H     H_    0.954402 0.283208 0.881554 0.176767
H94   H     H_    0.015762 0.751120 0.358615 0.171547
H95   H     H_    0.454423 0.783202 0.881526 0.176763
H96   H     H_    0.515724 0.251122 0.358627 0.171933
C113  C     C_2   0.288978 0.446319 0.426865 0.979517
O81   O     O_2   0.346028 0.470486 0.461708 -0.583662
O82   O     O_R   0.280839 0.394879 0.510365 -0.750351
H97   H     H_    0.248323 0.365062 0.444328 0.237243
C114  C     C_2   0.256827 0.535425 0.922958 0.904863
O83   O     O_2   0.203627 0.524978 0.963356 -0.602786
O84   O     O_R   0.314398 0.562574 0.025261 -0.806997
H98   H     H_    0.305262 0.576681 0.128393 0.355447
C115  C     C_2   0.788934 0.946292 0.426896 0.979559
O85   O     O_2   0.845993 0.970444 0.461809 -0.583719
O86   O     O_R   0.780760 0.894845 0.510332 -0.750460
H99   H     H_    0.748360 0.864987 0.444091 0.237148
C116  C     C_2   0.756832 0.035420 0.922975 0.904929
O87   O     O_2   0.703631 0.024976 0.963374 -0.602752
O88   O     O_R   0.814413 0.062548 0.025291 -0.806945
H100  H     H_    0.805282 0.076654 0.128428 0.355462
C117  C     C_2   0.170240 0.434294 0.250724 0.902875
O89   O     O_2   0.153940 0.395715 0.153320 -0.582363
O90   O     O_R   0.122496 0.455371 0.332033 -0.776774
H101  H     H_    0.072597 0.446629 0.273023 0.347647
C118  C     C_2   0.204450 0.570743 0.674996 0.922009
O91   O     O_2   0.225374 0.616076 0.624959 -0.631309
O92   O     O_R   0.136317 0.567636 0.689168 -0.761415
H102  H     H_    0.104028 0.569230 0.583035 0.400267
C119  C     C_2   0.670216 0.934300 0.250719 0.902973
O93   O     O_2   0.653876 0.895767 0.153219 -0.582194
O94   O     O_R   0.622491 0.955374 0.332081 -0.776785
H103  H     H_    0.572585 0.946651 0.273073 0.347642
C120  C     C_2   0.704447 0.070747 0.675017 0.921980
O95   O     O_2   0.725368 0.116079 0.624972 -0.631325
O96   O     O_R   0.636314 0.067637 0.689186 -0.761378
H104  H     H_    0.604028 0.069230 0.583048 0.400258

loop_
_geom_bond_atom_site_label_1
_geom_bond_atom_site_label_2
_geom_bond_distance
_ccdc_geom_bond_type
C15   C19   1.563124 S    
C118  O92   1.374949 S    
O74   H89   1.012813 S    
P9    O41   1.751338 S    
C22   H34   1.104916 S    
C120  O95   1.220782 D    
P11   O43   1.751343 S    
P8    C63   1.893746 S    
O1    Ba1   2.878850 S    
C112  O79   1.220831 D    
P12   O44   1.748696 S    
C55   C59   1.407022 A    
C47   C49   1.392308 A    
C24   C28   1.529088 S    
C69   C87   1.430607 A    
O68   H78   1.013679 S    
C43   C87   1.424019 A    
C33   C37   1.417281 A    
C41   C53   1.422518 A    
Ba2   O45   3.038406 S    
C80   C84   1.401489 A    
C39   C51   1.407868 A    
P2    O18   1.750641 S    
O23   C31   1.421915 S    
O24   C32   1.421547 S    
C35   C39   1.417273 A    
P4    O8    1.581346 S    
C118  O91   1.220781 D    
C72   C86   1.433113 A    
C82   C90   1.420705 A    
C101  O57   1.208834 D    
O31   Ba3   2.811104 S    
C3    C111  1.516258 S    
C9    H13   1.107037 S    
C66   C70   1.429043 A    
P7    O48   1.587383 S    
C59   C91   1.404085 A    
P8    O47   1.597987 S    
O88   H100  1.008291 S    
C14   C18   1.542985 S    
C24   H36   1.104910 S    
C52   H56   1.075326 S    
C62   C66   1.434283 A    
O14   P13   1.548417 D    
C97   O49   1.222301 D    
O80   H92   1.013844 S    
O10   P13   1.759541 S    
P15   C92   1.864916 S    
C8    H8    1.108250 S    
C44   C56   1.420808 A    
C33   C93   1.408733 A    
C106  O68   1.397145 S    
C74   C80   1.388666 A    
C35   C95   1.408738 A    
P5    O25   1.585651 D    
C68   C72   1.429037 A    
P7    O27   1.585651 D    
C65   C73   1.397456 A    
P8    O28   1.584669 D    
C17   H25   1.089650 S    
C19   H27   1.089655 S    
C58   H82   1.082460 S    
C93   H85   1.081641 S    
C4    C32   1.559309 S    
C6    H94   1.099849 S    
C21   C25   1.527023 S    
C6    H6    1.108247 S    
C68   C76   1.403774 A    
H3    C31   1.111523 S    
H4    C32   1.115614 S    
P3    O7    1.591787 S    
C20   H28   1.101650 S    
C70   C88   1.433130 A    
O94   H103  1.012164 S    
O41   C5    1.404057 S    
C12   H48   1.108294 S    
C76   C78   1.388662 A    
C116  O87   1.204464 D    
C3    C107  1.500733 S    
C9    H9    1.109583 S    
C104  O64   1.391572 S    
C11   H11   1.109584 S    
C16   C116  1.457595 S    
P10   O34   1.551432 D    
P11   C36   1.900500 S    
C74   H62   1.063588 S    
P1    Ba1   3.482681 S    
P14   C89   1.871430 S    
C26   H38   1.110461 S    
P8    O40   1.834163 S    
C49   H53   1.079035 S    
O20   C24   1.389745 S    
C77   H57   1.075694 S    
O22   P13   1.769662 S    
C47   H51   1.076182 S    
C4    C112  1.513572 S    
C7    H95   1.094985 S    
C59   H83   1.082340 S    
C62   C94   1.419237 A    
C102  O59   1.223251 D    
O44   C8    1.399252 S    
O16   P15   1.548427 D    
C103  O61   1.208846 D    
C114  O84   1.404535 S    
C40   C52   1.405635 A    
C3    H75   1.114583 S    
C6    C10   1.522006 S    
C20   H20   1.111026 S    
C28   H44   1.110054 S    
C23   H35   1.106018 S    
C100  O55   1.222821 D    
C117  O90   1.384229 S    
C18   H26   1.101638 S    
C29   C101  1.507431 S    
Ba3   Ba4   4.759055 S    
C98   O51   1.222822 D    
C22   H30   1.111697 S    
P12   O32   1.751031 S    
C30   C102  1.511891 S    
C108  O71   1.220721 D    
C54   C58   1.403131 A    
C83   C87   1.417991 A    
C111  O78   1.398118 S    
O24   P15   1.769758 S    
O25   Ba1   2.865751 S    
C119  O94   1.384220 S    
C113  O82   1.396864 S    
C25   C97   1.500883 S    
O42   C6    1.399262 S    
C36   C40   1.415398 A    
Ba4   O47   3.038406 S    
C42   C54   1.420800 A    
C1    C29   1.568812 S    
P5    Ba1   3.476813 S    
P2    Ba2   3.475454 S    
C9    H45   1.109209 S    
C25   H37   1.112233 S    
C110  O75   1.220861 D    
C82   C86   1.417693 A    
C27   H39   1.112233 S    
O72   H80   1.013637 S    
H1    C29   1.111521 S    
C109  O73   1.222127 D    
C32   C104  1.511903 S    
C105  O66   1.399754 S    
P9    O33   1.549115 D    
C45   C51   1.392305 A    
P10   O30   1.751040 S    
C46   C52   1.390646 A    
P7    C64   1.939847 S    
P11   O35   1.549119 D    
O3    Ba3   2.878850 S    
C7    C11   1.525270 S    
C24   H32   1.111696 S    
C14   C114  1.457603 S    
C75   C77   1.388293 A    
P4    C56   1.869479 S    
C37   C49   1.407872 A    
C8    H96   1.099817 S    
C12   H12   1.109367 S    
O17   C21   1.390530 S    
O66   H77   1.011342 S    
P5    C62   1.939869 S    
C61   C65   1.424275 A    
C8    C12   1.522029 S    
O19   C23   1.390537 S    
C95   H87   1.081642 S    
P8    Ba4   3.484244 S    
C64   C68   1.434268 A    
O9    P14   1.761263 S    
C99   O54   1.396338 S    
O26   Ba2   2.881287 S    
C107  O70   1.399752 S    
C16   C120  1.477319 S    
C17   H17   1.110192 S    
C67   C71   1.425101 A    
P6    O26   1.584669 D    
C19   H19   1.110193 S    
C65   C69   1.425110 A    
Ba2   O46   2.845874 S    
C37   C69   1.416648 A    
C31   C103  1.507429 S    
O7    Ba4   2.861492 S    
C77   C81   1.405239 A    
P5    O46   1.587383 S    
C57   C89   1.404090 A    
C19   H23   1.115209 S    
C28   C100  1.503443 S    
O64   H72   1.013899 S    
C27   C99   1.500878 S    
C51   H55   1.079033 S    
C94   H86   1.074815 S    
P13   C90   1.864841 S    
O54   H67   1.013450 S    
C12   H16   1.109591 S    
C21   H33   1.106017 S    
O60   H70   1.013873 S    
C71   C85   1.430619 A    
C41   C85   1.424025 A    
P4    Ba4   3.475454 S    
C43   C55   1.422516 A    
P1    O1    1.584808 D    
C44   C48   1.398182 A    
C40   C72   1.418811 A    
P3    O3    1.584808 D    
P4    O20   1.750629 S    
C60   C92   1.398669 A    
O56   H68   1.013444 S    
C1    H73   1.114583 S    
C76   H64   1.063592 S    
O11   Ba3   2.815372 S    
C115  O86   1.396878 S    
P10   C33   1.868201 S    
Ba3   O47   2.860240 S    
P16   C91   1.871414 S    
P6    O38   1.834111 S    
O18   C22   1.389761 S    
O52   H66   1.013445 S    
C50   H54   1.075326 S    
C28   H40   1.110483 S    
C64   C96   1.419238 A    
C81   C89   1.417623 A    
O84   H98   1.008294 S    
C106  O67   1.220872 D    
C10   H14   1.109582 S    
C120  O96   1.374944 S    
C18   H18   1.111021 S    
C112  O80   1.397401 S    
C23   C27   1.527021 S    
P1    O5    1.591787 S    
O9    Ba1   2.815372 S    
O76   H90   1.013856 S    
C13   C17   1.563112 S    
O29   Ba1   2.811104 S    
P9    C34   1.900563 S    
C11   H47   1.109207 S    
C1    C105  1.500735 S    
O92   H102  0.988481 S    
C45   H49   1.076186 S    
C119  O93   1.203439 D    
P12   O36   1.551433 D    
O96   H104  0.988488 S    
C15   C115  1.517964 S    
P7    O39   1.812969 S    
C83   C91   1.417626 A    
C79   H59   1.075699 S    
C53   C57   1.407029 A    
P2    C54   1.869432 S    
C101  O58   1.402660 S    
C41   C45   1.401010 A    
C66   C74   1.403777 A    
O11   P16   1.761272 S    
C2    C30   1.559260 S    
C27   H43   1.106161 S    
Ba1   O45   2.860240 S    
C10   H46   1.108282 S    
O21   C29   1.421924 S    
C25   H41   1.106155 S    
C60   H84   1.082459 S    
O8    Ba3   2.847129 S    
C1    C109  1.516255 S    
Ba4   O48   2.845874 S    
Ba1   Ba2   4.759055 S    
H2    C30   1.115606 S    
C96   H88   1.074828 S    
O90   H101  1.012138 S    
C97   O50   1.396337 S    
C22   C26   1.529128 S    
C11   H15   1.107040 S    
C114  O83   1.204472 D    
O28   Ba4   2.881287 S    
P11   O31   1.748546 S    
C5    H5    1.103480 S    
C48   H52   1.073985 S    
C7    H7    1.103507 S    
C117  O89   1.203573 D    
C39   C71   1.416646 A    
O86   H99   1.009448 S    
O10   Ba2   2.810437 S    
C26   C98   1.503431 S    
C10   H10   1.109370 S    
O30   Ba2   2.815967 S    
C38   C50   1.405630 A    
C75   H63   1.071560 S    
C3    C31   1.568810 S    
Ba1   O46   3.041136 S    
C73   H61   1.071561 S    
C42   C86   1.421586 A    
O82   H97   1.009245 S    
P1    O17   1.746816 S    
C111  O77   1.222131 D    
C78   H58   1.079105 S    
P3    O19   1.746810 S    
P4    O4    1.585786 D    
C63   C95   1.405410 A    
C113  O81   1.220199 D    
P7    Ba3   3.476813 S    
Ba3   O48   3.041136 S    
C61   C93   1.405409 A    
C4    H76   1.111993 S    
C67   C75   1.397459 A    
C104  O63   1.223266 D    
C5    C9    1.525265 S    
O37   C14   1.440148 S    
P6    O45   1.597987 S    
O39   C16   1.440142 S    
P9    O29   1.748570 S    
C16   C20   1.542983 S    
O15   P16   1.545398 D    
C116  O88   1.404514 S    
C2    C106  1.507400 S    
O13   P14   1.545404 D    
C105  O65   1.220489 D    
C63   C67   1.424255 A    
C84   C88   1.417713 A    
C84   C92   1.420725 A    
C80   H60   1.079103 S    
C14   C118  1.477314 S    
P2    O2    1.585786 D    
O4    Ba4   2.863510 S    
C13   C117  1.472286 S    
O40   C15   1.440670 S    
O2    Ba2   2.863510 S    
C44   C88   1.421597 A    
O43   C7    1.404075 S    
C102  O60   1.391565 S    
P12   C35   1.868209 S    
C2    H74   1.112008 S    
C103  O62   1.402665 S    
O78   H91   1.012813 S    
O12   Ba4   2.810437 S    
C15   C119  1.472259 S    
P3    Ba3   3.482681 S    
O5    Ba2   2.861492 S    
C79   C83   1.405246 A    
C17   H21   1.115232 S    
C100  O56   1.397253 S    
P6    Ba2   3.484244 S    
C57   H81   1.082339 S    
C2    C110  1.513598 S    
C56   C60   1.403153 A    
C81   C85   1.418000 A    
C107  O69   1.220491 D    
C34   C94   1.419082 A    
C98   O52   1.397256 S    
C5    H93   1.094993 S    
O70   H79   1.011342 S    
O27   Ba3   2.865751 S    
C108  O72   1.396637 S    
C34   C38   1.415409 A    
C43   C47   1.401003 A    
O12   P15   1.759518 S    
O62   H71   1.009524 S    
P2    O6    1.581346 S    
O38   C13   1.440627 S    
C20   H24   1.110333 S    
P10   O42   1.748702 S    
C13   C113  1.517969 S    
O58   H69   1.009522 S    
P5    O37   1.812953 S    
C46   H50   1.073977 S    
C21   H29   1.110033 S    
P6    C61   1.893720 S    
O23   P16   1.786911 S    
C48   C50   1.390648 A    
O21   P14   1.786921 S    
C110  O76   1.397417 S    
O22   C30   1.421523 S    
P3    C55   1.880616 S    
C36   C96   1.419067 A    
P1    C53   1.880611 S    
C109  O74   1.398117 S    
C26   H42   1.110064 S    
C73   C79   1.388300 A    
C115  O85   1.220205 D    
C4    C108  1.507269 S    
C42   C46   1.398178 A    
C38   C70   1.418822 A    
O32   Ba4   2.815967 S    
C78   C82   1.401492 A    
O50   H65   1.013450 S    
C58   C90   1.398643 A    
O6    Ba1   2.847129 S    
C23   H31   1.110032 S    
C99   O53   1.222308 D    
C18   H22   1.110333 S    
