data_mof_unit_26819.cif
_audit_creation_date              2012-10-26T19:06:52-0400
_audit_creation_method            fapswitch 2.2
_symmetry_space_group_name_H-M    P1
_symmetry_Int_Tables_number       1
_space_group_crystal_system       triclinic
_cell_length_a                    12.477428
_cell_length_b                    13.397955
_cell_length_c                    27.566658
_cell_angle_alpha                 75.236798
_cell_angle_beta                  101.448286
_cell_angle_gamma                 117.3866
_cell_volume                      3939.03388757

loop_
_atom_site_label
_atom_site_type_symbol
_atom_type_description
_atom_site_fract_x
_atom_site_fract_y
_atom_site_fract_z
_atom_type_partial_charge
C1    C     C_R   0.854792 0.286471 0.504542 0.590966
C2    C     C_R   0.908576 0.554824 0.005650 0.005427
C3    C     C_3   0.085226 0.301443 0.368175 0.010343
C4    C     C_3   0.065725 0.238745 0.422674 -0.238402
C5    C     C_3   0.997052 0.109288 0.426030 -0.383096
C6    C     C_3   0.053542 0.341844 0.240492 0.008345
C7    C     C_3   0.101247 0.352388 0.191523 -0.245187
C8    C     C_3   0.028102 0.244660 0.168884 -0.482585
C9    C     C_3   0.614649 0.465843 0.090640 0.048003
C10   C     C_3   0.517572 0.411017 0.127674 -0.258651
C11   C     C_3   0.445983 0.480891 0.121531 -0.480827
C12   C     C_3   0.188103 0.822279 0.612974 -0.007098
C13   C     C_R   0.129624 0.658676 0.018963 0.023221
C14   C     C_3   0.069150 0.833758 0.595850 -0.276187
C15   C     C_3   0.093710 0.959430 0.582310 -0.371285
C16   C     C_R   0.001133 0.500942 0.592436 0.607045
C17   C     C_R   0.014726 0.601495 0.038041 -0.112487
C18   C     C_R   0.797634 0.482846 0.027145 0.411629
C19   C     C_R   0.790328 0.466515 0.078841 0.280197
C20   C     C_R   0.895690 0.517365 0.110849 -0.029287
C21   C     C_R   0.006767 0.589740 0.089850 -0.171085
C22   C     C_R   0.110362 0.649746 0.120618 -0.040926
C23   C     C_R   0.101431 0.630828 0.172619 0.424329
C24   C     C_R   0.970896 0.456960 0.731238 0.428511
C25   C     C_R   0.894235 0.496175 0.163545 0.438431
C26   C     C_R   0.059392 0.476687 0.280312 0.237596
C27   C     C_R   0.064005 0.467437 0.332984 0.167667
C28   C     C_R   0.145596 0.713405 0.491892 0.606043
C29   C     C_R   0.925107 0.556052 0.317525 0.295320
C30   C     C_R   0.923474 0.568216 0.265696 0.257219
C31   C     C_R   0.992068 0.530915 0.246802 0.131771
C32   C     C_R   0.919060 0.578541 0.953172 -0.010259
C33   C     C_R   0.033697 0.612109 0.936780 -0.109216
C34   C     C_R   0.140047 0.645492 0.970702 0.026589
C35   C     C_R   0.047043 0.566204 0.741281 0.152402
C36   C     C_R   0.820640 0.571788 0.916401 0.456453
C37   C     C_R   0.250612 0.640012 0.907964 0.377808
C38   C     C_R   0.227952 0.729692 0.048140 0.412342
C39   C     C_R   0.218748 0.727565 0.098142 0.298592
C40   C     C_R   0.000098 0.501945 0.407019 0.564988
C41   C     C_R   0.249836 0.657216 0.956463 0.310366
C42   C     C_R   0.277034 0.037303 0.466815 0.366284
C43   C     C_R   0.231191 0.835684 0.484401 -0.039502
C44   C     C_R   0.812254 0.079061 0.534937 0.219823
C45   C     C_R   0.732366 0.961952 0.540532 0.262722
C46   C     C_R   0.040893 0.610109 0.886536 -0.173213
C47   C     C_R   0.607879 0.933862 0.534382 0.300937
C48   C     C_R   0.565820 0.011135 0.500445 -0.037708
C49   C     C_R   0.650134 0.125410 0.484281 -0.110180
C50   C     C_R   0.440973 0.980105 0.485408 -0.076705
C51   C     C_R   0.400320 0.066115 0.466663 -0.077407
C52   C     C_R   0.945598 0.584383 0.802108 0.468923
C53   C     C_R   0.483447 0.175939 0.445326 0.320372
C54   C     C_R   0.606389 0.199224 0.448736 0.310192
C55   C     C_R   0.356023 0.866067 0.487490 0.330638
C56   C     C_R   0.192496 0.922648 0.475356 0.307153
C57   C     C_R   0.937961 0.591132 0.851224 -0.018999
C58   C     C_R   0.772631 0.162450 0.506129 -0.050272
C59   C     C_R   0.324112 0.303221 0.568107 0.390768
C60   C     C_R   0.771934 0.657971 0.436813 0.527621
C61   C     C_R   0.683208 0.696973 0.422788 -0.099392
C62   C     C_R   0.569835 0.633852 0.441320 0.212670
C63   C     C_R   0.547327 0.532426 0.478703 -0.073227
C64   C     C_R   0.150928 0.611298 0.822775 0.455897
C65   C     C_R   0.644549 0.497641 0.493159 0.042287
C66   C     C_R   0.436933 0.466588 0.504231 -0.126547
C67   C     C_R   0.422935 0.363194 0.538753 -0.033959
C68   C     C_R   0.830108 0.578204 0.866121 0.438602
C69   C     C_R   0.513562 0.326477 0.547656 0.422626
C70   C     C_R   0.624790 0.397609 0.529814 0.395287
C71   C     C_R   0.340379 0.498548 0.499049 0.021820
C72   C     C_R   0.243029 0.348666 0.565618 0.434439
C73   C     C_R   0.114443 0.651904 0.703685 -0.145161
C74   C     C_R   0.100460 0.630595 0.654584 0.186088
C75   C     C_R   0.948708 0.436220 0.682237 0.191825
C76   C     C_3   0.748925 0.319174 0.663155 0.038472
C77   C     C_3   0.683351 0.275053 0.711078 -0.265616
C78   C     C_3   0.547319 0.236565 0.698174 -0.445875
C79   C     C_R   0.149330 0.622901 0.872115 0.015093
C80   C     C_3   0.311602 0.896315 0.127802 0.039097
C81   C     C_3   0.379840 0.995847 0.086859 -0.246555
C82   C     C_3   0.395897 0.109810 0.095890 -0.476812
C83   C     C_3   0.903082 0.728550 0.222260 0.038959
C84   C     C_3   0.818143 0.772348 0.185406 -0.251374
C85   C     C_3   0.700890 0.738484 0.207936 -0.381693
C86   C     C_3   0.460249 0.741573 0.978873 0.094274
C87   C     C_3   0.545933 0.684577 0.987533 -0.238168
C88   C     C_3   0.670798 0.769238 0.970507 -0.435868
C89   C     C_3   0.381237 0.236417 0.373421 0.034438
C90   C     C_R   0.016403 0.521934 0.643957 -0.031554
C91   C     C_3   0.422372 0.346262 0.333657 -0.261264
C92   C     C_3   0.369742 0.322241 0.280805 -0.486152
C93   C     C_3   0.928164 0.077385 0.612345 0.029010
C94   C     C_3   0.875805 0.134895 0.636190 -0.258743
C95   C     C_3   0.886097 0.099066 0.693623 -0.445128
C96   C     C_3   0.493640 0.871753 0.601697 0.001958
C97   C     C_3   0.569487 0.867387 0.652466 -0.283980
C98   C     C_3   0.548769 0.927990 0.687172 -0.457953
C99   C     C_3   0.709523 0.768807 0.556292 0.041138
C100  C     C_3   0.692297 0.697119 0.609676 -0.232677
C101  C     C_R   0.998014 0.509028 0.351944 -0.072494
C102  C     C_3   0.600008 0.573495 0.610315 -0.469501
C103  C     C_3   0.672108 0.268853 0.369540 0.009373
C104  C     C_3   0.750325 0.209157 0.368753 -0.303570
C105  C     C_3   0.747701 0.193639 0.315457 -0.477102
C106  C     C_3   0.202815 0.351583 0.642581 0.009818
C107  C     C_3   0.257552 0.283950 0.684396 -0.297578
C108  C     C_3   0.282383 0.324341 0.734197 -0.453622
C109  C     C_3   0.414001 0.627346 0.380702 0.022317
C110  C     C_3   0.476868 0.691233 0.332095 -0.321721
C111  C     C_3   0.389925 0.656181 0.285874 -0.407962
Cu1   Cu    Cu3+1 0.098270 0.475420 0.511360 1.051488
Cu2   Cu    Cu3+1 0.901730 0.524580 0.488640 1.182799
F1    F     F_    0.347920 0.632719 0.897008 -0.591877
F2    F     F_    0.876470 0.717501 0.414360 -0.547508
F3    F     F_    0.732060 0.569637 0.832460 -0.535621
F4    F     F_    0.714532 0.372997 0.555638 -0.635954
F5    F     F_    0.698206 0.417174 0.999835 -0.561242
F6    F     F_    0.718522 0.569728 0.927707 -0.552273
F7    F     F_    0.328591 0.811704 0.026667 -0.653156
F8    F     F_    0.854967 0.592179 0.333516 -0.582701
F9    F     F_    0.073377 0.897507 0.473162 -0.613388
F10   F     F_    0.239736 0.119782 0.461719 -0.643825
F11   F     F_    0.918512 0.370587 0.769666 -0.612336
F12   F     F_    0.395458 0.787021 0.487159 -0.583248
F13   F     F_    0.501268 0.226650 0.579436 -0.611222
F14   F     F_    0.309193 0.204368 0.601160 -0.629240
H1    H     H_    0.177800 0.733229 0.713767 0.137399
H2    H     H_    0.506930 0.159575 0.680602 0.214314
H3    H     H_    0.377810 0.439608 0.149439 0.142673
H4    H     H_    0.397804 0.485190 0.083124 0.188027
H5    H     H_    0.251207 0.876959 0.583668 0.143718
H6    H     H_    0.234422 0.857945 0.647495 0.128707
H7    H     H_    0.023211 0.792598 0.562576 0.234589
H8    H     H_    0.007619 0.790084 0.626403 0.142884
H9    H     H_    0.122961 0.996397 0.617018 0.175719
H10   H     H_    0.010334 0.966776 0.563322 0.232944
H11   H     H_    0.165386 0.009138 0.556086 0.245111
H12   H     H_    0.355003 0.918610 0.165255 0.169181
H13   H     H_    0.216346 0.884977 0.125489 0.105717
H14   H     H_    0.470673 0.999953 0.086398 0.214967
H15   H     H_    0.328360 0.982048 0.049502 0.211310
H16   H     H_    0.306231 0.108070 0.096347 0.135768
H17   H     H_    0.443962 0.179786 0.065225 0.215120
H18   H     H_    0.450597 0.127802 0.132351 0.162401
H19   H     H_    0.987911 0.759653 0.204114 0.108800
H20   H     H_    0.925875 0.764992 0.257057 0.178477
H21   H     H_    0.336955 0.571318 0.472957 0.247288
H22   H     H_    0.865301 0.867189 0.175289 0.107076
H23   H     H_    0.795694 0.737180 0.150359 0.158614
H24   H     H_    0.649195 0.643874 0.216456 0.198636
H25   H     H_    0.643354 0.774257 0.180497 0.136749
H26   H     H_    0.721325 0.772700 0.243080 0.159875
H27   H     H_    0.498377 0.806128 0.003570 0.200773
H28   H     H_    0.460072 0.790733 0.939619 0.167294
H29   H     H_    0.556460 0.650206 0.028386 0.127713
H30   H     H_    0.507173 0.612254 0.966997 0.268791
H31   H     H_    0.663730 0.801702 0.929254 0.202475
H32   H     H_    0.701341 0.775957 0.395685 0.139109
H33   H     H_    0.731574 0.725832 0.979182 0.193201
H34   H     H_    0.711215 0.842368 0.990640 0.128894
H35   H     H_    0.283707 0.206002 0.376561 0.184552
H36   H     H_    0.388523 0.167570 0.360507 0.083717
H37   H     H_    0.392424 0.405700 0.342066 0.171198
H38   H     H_    0.522814 0.388945 0.334966 0.201255
H39   H     H_    0.405395 0.269107 0.270367 0.143873
H40   H     H_    0.396103 0.404324 0.253321 0.157004
H41   H     H_    0.269364 0.276514 0.279067 0.149560
H42   H     H_    0.022941 0.099864 0.628733 0.191523
H43   H     H_    0.699268 0.254733 0.638522 0.240619
H44   H     H_    0.881789 0.983477 0.624490 0.156051
H45   H     H_    0.925682 0.228968 0.625107 0.240687
H46   H     H_    0.778890 0.110258 0.622222 0.147928
H47   H     H_    0.849846 0.004531 0.704895 0.136099
H48   H     H_    0.832717 0.126474 0.710415 0.212379
H49   H     H_    0.982291 0.138553 0.709202 0.161997
H50   H     H_    0.399353 0.808399 0.607749 0.204802
H51   H     H_    0.492228 0.957178 0.588994 0.138682
H52   H     H_    0.544127 0.776673 0.671160 0.179614
H53   H     H_    0.666994 0.908538 0.646548 0.164662
H54   H     H_    0.744556 0.400811 0.642643 0.169536
H55   H     H_    0.578429 0.020187 0.670376 0.154258
H56   H     H_    0.602508 0.920587 0.724061 0.173439
H57   H     H_    0.451323 0.888514 0.693499 0.166080
H58   H     H_    0.760016 0.741557 0.537540 0.139133
H59   H     H_    0.622448 0.752172 0.532378 0.216554
H60   H     H_    0.780684 0.698917 0.628172 0.159432
H61   H     H_    0.662083 0.734872 0.632317 0.197275
H62   H     H_    0.510989 0.569466 0.591732 0.169652
H63   H     H_    0.588152 0.526942 0.649878 0.158259
H64   H     H_    0.633222 0.531597 0.591078 0.132530
H65   H     H_    0.699933 0.202036 0.734847 0.205343
H66   H     H_    0.703352 0.351129 0.342228 0.195385
H67   H     H_    0.577702 0.215911 0.355878 0.108597
H68   H     H_    0.844283 0.261635 0.382870 0.158732
H69   H     H_    0.716435 0.123683 0.393747 0.160399
H70   H     H_    0.652908 0.145700 0.299980 0.161426
H71   H     H_    0.799151 0.144203 0.316110 0.134299
H72   H     H_    0.789357 0.278313 0.290440 0.167334
H73   H     H_    0.125542 0.350460 0.657237 0.171448
H74   H     H_    0.269912 0.443327 0.634335 0.133884
H75   H     H_    0.195051 0.191261 0.689571 0.185196
H76   H     H_    0.717038 0.344824 0.732740 0.243982
H77   H     H_    0.344367 0.296714 0.673733 0.195462
H78   H     H_    0.345672 0.416800 0.729887 0.185435
H79   H     H_    0.324312 0.275358 0.763438 0.178115
H80   H     H_    0.196458 0.310135 0.746863 0.180022
H81   H     H_    0.327619 0.635178 0.376531 0.192118
H82   H     H_    0.388732 0.534006 0.386663 0.165019
H83   H     H_    0.511328 0.784956 0.329429 0.180912
H84   H     H_    0.554300 0.671703 0.332235 0.161795
H85   H     H_    0.360771 0.564470 0.285964 0.199096
H86   H     H_    0.435435 0.708043 0.251190 0.178799
H87   H     H_    0.530463 0.306575 0.671598 0.179905
H88   H     H_    0.309544 0.670908 0.285981 0.216703
H89   H     H_    0.149976 0.282736 0.354175 0.153447
H90   H     H_    0.997955 0.266489 0.344444 0.104860
H91   H     H_    0.154788 0.261005 0.445483 0.241682
H92   H     H_    0.012032 0.266745 0.438805 0.188607
H93   H     H_    0.902780 0.085919 0.408348 0.112930
H94   H     H_    0.993459 0.066017 0.466199 0.239644
H95   H     H_    0.042327 0.078360 0.406454 0.223964
H96   H     H_    0.956043 0.324902 0.232543 0.144979
H97   H     H_    0.057687 0.265989 0.267276 0.111459
H98   H     H_    0.503033 0.215184 0.732983 0.157114
H99   H     H_    0.096102 0.426296 0.163647 0.181215
H100  H     H_    0.197686 0.367526 0.198879 0.163736
H101  H     H_    0.033643 0.169211 0.195618 0.138735
H102  H     H_    0.065217 0.255190 0.133531 0.155638
H103  H     H_    0.931656 0.229689 0.159963 0.170442
H104  H     H_    0.569913 0.469415 0.051506 0.180727
H105  H     H_    0.674887 0.554911 0.097091 0.107111
H106  H     H_    0.453887 0.323454 0.121319 0.164457
H107  H     H_    0.561284 0.404624 0.166890 0.215702
H108  H     H_    0.507514 0.569007 0.128007 0.161352
N1    N     N_R   0.049457 0.590626 0.789444 -0.390439
N2    N     N_R   0.996310 0.552082 0.193112 -0.373318
N3    N     N_R   0.246290 0.438210 0.528570 -0.296332
N4    N     N_R   0.754320 0.561170 0.471730 -0.226948
O1    O     O_R   0.972510 0.318140 0.514280 -0.463811
O2    O     O_R   0.082990 0.479230 0.439860 -0.513607
O3    O     O_R   0.917010 0.520730 0.420680 -0.380354
O4    O     O_2   0.849391 0.569467 0.767280 -0.434035
O5    O     O_3   0.868581 0.328593 0.673229 -0.595927
O6    O     O_3   0.320523 0.796000 0.125369 -0.508799
O7    O     O_3   0.845805 0.607869 0.233218 -0.504937
O8    O     O_3   0.344140 0.658241 0.993603 -0.533724
O9    O     O_3   0.447691 0.261252 0.420355 -0.511945
O10   O     O_3   0.929161 0.113742 0.559059 -0.519153
O11   O     O_3   0.532289 0.838447 0.565957 -0.525314
O12   O     O_2   0.792826 0.418699 0.185469 -0.465259
O13   O     O_3   0.783179 0.884559 0.560397 -0.604671
O14   O     O_3   0.683004 0.294273 0.417624 -0.523970
O15   O     O_3   0.156336 0.299822 0.599303 -0.520082
O16   O     O_3   0.485239 0.676687 0.422625 -0.555710
O17   O     O_3   0.135863 0.421041 0.366002 -0.555844
O18   O     O_3   0.128711 0.440630 0.261870 -0.544922
O19   O     O_3   0.679106 0.398754 0.098014 -0.502243
O20   O     O_3   0.172590 0.709094 0.616911 -0.580356
O21   O     O_2   0.251989 0.619025 0.808272 -0.395199
O22   O     O_2   0.197004 0.689453 0.202775 -0.502232
O23   O     O_R   0.806530 0.359640 0.495100 -0.389369
O24   O     O_R   0.082990 0.479270 0.579320 -0.493451
O25   O     O_R   0.917010 0.520770 0.560140 -0.461016
O26   O     O_R   0.193470 0.640360 0.504900 -0.447977
O27   O     O_R   0.027490 0.681860 0.485720 -0.414335

loop_
_geom_bond_atom_site_label_1
_geom_bond_atom_site_label_2
_ccdc_geom_bond_type
C94   H46   S    
C5    H94   S    
C87   C88   S    
C63   C65   A    
C99   C100  S    
C16   C90   S    
C86   O8    S    
C2    C18   A    
C73   C74   A    
C106  O15   S    
C19   C20   A    
C96   O11   S    
C81   H15   S    
C95   H49   S    
C9    H104  S    
C78   H87   S    
C19   O19   S    
C97   C98   S    
C8    H101  S    
C7    C8    S    
C110  H83   S    
C74   O20   S    
C67   C69   A    
C105  H70   S    
C37   C79   A    
C9    O19   S    
C93   H42   S    
C26   C27   A    
C93   C94   S    
C76   H43   S    
C80   O6    S    
C9    H105  S    
C32   C36   A    
C100  H61   S    
C95   H47   S    
C111  H88   S    
C64   N1    A    
C61   H32   S    
C45   O13   S    
C46   C79   A    
C23   N2    A    
C97   H52   S    
C5    H93   S    
C14   H8    S    
C23   O22   S    
C70   F4    S    
C59   F14   S    
C88   H34   S    
C24   F11   S    
C102  H62   S    
C28   O27   A    
C2    C32   A    
C18   C19   A    
C98   H56   S    
C36   F6    S    
C95   H48   S    
C110  C111  S    
C104  C105  S    
C47   O11   S    
C13   C34   A    
C75   O5    S    
C103  C104  S    
C75   C90   A    
C94   H45   S    
C40   C101  S    
C39   O6    S    
C16   O24   A    
C8    H103  S    
C35   C73   A    
C55   F12   S    
C44   C58   A    
Cu1   O1    S    
C29   F8    S    
C107  C108  S    
Cu1   O2    S    
C12   O20   S    
C88   H31   S    
C96   H50   S    
C89   C91   S    
C30   O7    S    
C9    C10   S    
C18   F5    S    
C40   O2    A    
C42   C51   A    
C15   H11   S    
C38   F7    S    
C84   H22   S    
C78   H98   S    
C81   H14   S    
C66   C67   A    
C31   N2    S    
C63   C66   A    
C26   C31   A    
C21   C22   A    
C41   O8    S    
C2    C17   A    
C37   C41   A    
C33   C46   A    
C69   C70   A    
C34   C41   A    
C108  H80   S    
C109  H82   S    
C77   H76   S    
Cu1   Cu2   S    
C93   O10   S    
C42   F10   S    
C33   C34   A    
C6    H97   S    
C45   C47   A    
C1    O1    A    
C11   H108  S    
C62   O16   S    
C111  H85   S    
C10   H107  S    
C24   C35   A    
C71   N3    A    
C102  H63   S    
C100  H60   S    
C38   C39   A    
C76   C77   S    
C107  H75   S    
C82   H17   S    
C52   C57   A    
C52   O4    S    
C91   C92   S    
C86   C87   S    
C82   H16   S    
C97   H53   S    
C15   H9    S    
C14   H7    S    
C50   C51   A    
C3    H89   S    
C77   C78   S    
Cu2   N4    S    
C27   C101  A    
C17   C21   A    
C49   C58   A    
C87   H30   S    
C60   C61   A    
C51   C53   A    
Cu2   O25   S    
C56   F9    S    
C98   H55   S    
C109  H81   S    
C99   O13   S    
C86   H28   S    
C85   H24   S    
C66   C71   A    
C29   C30   A    
C92   H39   S    
C83   H19   S    
C8    H102  S    
C92   H41   S    
C59   C67   A    
C47   C48   A    
C25   N2    A    
C3    H90   S    
C4    H92   S    
C96   C97   S    
C62   C63   A    
C100  C102  S    
C102  H64   S    
C104  H69   S    
C29   C101  A    
C94   C95   S    
C60   N4    A    
C85   H26   S    
C106  C107  S    
C84   C85   S    
C42   C56   A    
C13   C38   A    
C68   F3    S    
C83   H20   S    
C108  H79   S    
C105  H71   S    
C103  H67   S    
C12   C14   S    
C69   F13   S    
C105  H72   S    
Cu1   N3    S    
C12   H6    S    
C6    O18   S    
C46   C57   A    
C103  O14   S    
C64   C79   A    
C72   N3    A    
C91   H37   S    
C83   C84   S    
C57   C68   A    
C3    C4    S    
C80   H12   S    
C11   H3    S    
C89   H35   S    
C99   H58   S    
C82   H18   S    
C44   C45   A    
C52   N1    A    
C106  H73   S    
C6    H96   S    
C27   O17   S    
C43   C55   A    
C5    H95   S    
C93   H44   S    
C10   H106  S    
C12   H5    S    
C76   O5    S    
C87   H29   S    
C77   H65   S    
C78   H2    S    
C22   C23   A    
C111  H86   S    
C72   O15   S    
C80   C81   S    
C11   H4    S    
C36   C68   A    
C24   C75   A    
C53   C54   A    
C6    C7    S    
C37   F1    S    
C7    H99   S    
C73   H1    S    
C59   C72   A    
C28   C43   S    
C4    H91   S    
C50   C55   A    
C89   O9    S    
C13   C17   A    
Cu2   O27   S    
C32   C33   A    
C74   C90   A    
C110  H84   S    
C86   H27   S    
C53   O9    S    
C107  H77   S    
C80   H13   S    
C1    C58   S    
C108  H78   S    
C106  H74   S    
C25   O12   S    
C92   H40   S    
C30   C31   A    
C26   O18   S    
C7    H100  S    
C48   C49   A    
C22   C39   A    
C83   O7    S    
C48   C50   A    
C54   O14   S    
C104  H68   S    
C109  O16   S    
C71   H21   S    
Cu2   O23   S    
C88   H33   S    
C98   H57   S    
C61   C62   A    
C3    O17   S    
C85   H25   S    
C10   C11   S    
C28   O26   A    
Cu1   O24   S    
C1    O23   A    
C16   O25   A    
C64   O21   S    
C43   C56   A    
C4    C5    S    
C20   C21   A    
C91   H38   S    
C81   C82   S    
Cu2   O3    S    
C20   C25   A    
C44   O10   S    
C14   C15   S    
C65   N4    A    
C60   F2    S    
C35   N1    S    
C103  H66   S    
C96   H51   S    
C65   C70   A    
C109  C110  S    
Cu1   O26   S    
C89   H36   S    
C99   H59   S    
C40   O3    A    
C76   H54   S    
C49   C54   A    
C15   H10   S    
C84   H23   S    
