data_mof_unit_59638.cif
_audit_creation_date              2012-12-10T17:13:37-0500
_audit_creation_method            fapswitch 2.2
_symmetry_space_group_name_H-M    P1
_symmetry_Int_Tables_number       1
_space_group_crystal_system       triclinic
_cell_length_a                    27.529009
_cell_length_b                    10.706351
_cell_length_c                    10.054809
_cell_angle_alpha                 89.195673
_cell_angle_beta                  89.359649
_cell_angle_gamma                 90.661214
_cell_volume                      2962.82663436

loop_
_atom_site_label
_atom_site_type_symbol
_atom_type_description
_atom_site_fract_x
_atom_site_fract_y
_atom_site_fract_z
_atom_type_partial_charge
C1    C     C_R   0.497906 0.262297 0.500927 0.895052
C2    C     C_R   0.974000 0.451551 0.591580 0.039472
C3    C     C_R   0.974262 0.545563 0.366510 0.043683
C4    C     C_R   0.406299 0.501139 0.500698 0.907863
C5    C     C_R   0.949017 0.488734 0.475401 0.085220
C6    C     C_R   0.949303 0.374129 0.685339 -0.238863
C7    C     C_R   0.899642 0.352181 0.676835 -0.143941
C8    C     C_R   0.873461 0.403549 0.571620 -0.022590
C9    C     C_R   0.898269 0.468694 0.468357 -0.056872
C10   C     C_R   0.872213 0.515219 0.359074 -0.019181
C11   C     C_R   0.821543 0.503751 0.359899 0.489102
C12   C     C_R   0.273773 0.417646 0.495683 0.209515
C13   C     C_R   0.822834 0.392926 0.567574 0.513388
C14   C     C_R   0.727825 0.554913 0.547751 -0.167213
C15   C     C_R   0.677814 0.572403 0.559189 0.140858
C16   C     C_R   0.502456 0.736992 0.498850 0.917143
C17   C     C_R   0.665447 0.388017 0.422864 -0.271199
C18   C     C_R   0.715515 0.370147 0.412984 0.221192
C19   C     C_R   0.746634 0.455679 0.475348 0.251450
C20   C     C_R   0.023435 0.486551 0.606374 -0.048464
C21   C     C_R   0.049824 0.526350 0.490810 0.047841
C22   C     C_R   0.025571 0.554073 0.370003 0.064540
C23   C     C_R   0.253140 0.536879 0.502523 0.164758
C24   C     C_R   0.047837 0.483421 0.731187 0.203694
C25   C     C_R   0.103924 0.594112 0.261098 -0.147205
C26   C     C_R   0.947213 0.590067 0.257248 -0.234317
C27   C     C_R   0.897017 0.575922 0.254353 -0.137641
C28   C     C_R   0.593882 0.499932 0.499128 0.865986
C29   C     C_R   0.053635 0.587774 0.256243 -0.231865
C30   C     C_2   0.497984 0.933752 0.387443 -0.190273
C31   C     C_2   0.510030 0.867993 0.495053 -0.327628
C32   C     C_2   0.500936 0.067565 0.391670 -0.255205
C33   C     C_2   0.488695 0.130332 0.501781 0.078042
C34   C     C_R   0.100936 0.537691 0.495717 -0.053353
C35   C     C_2   0.513281 0.595192 0.926678 0.323151
C36   C     C_2   0.500029 0.599769 0.073039 -0.146897
C37   C     C_R   0.176029 0.521091 0.617144 0.561101
C38   C     C_R   0.178652 0.572421 0.385396 0.492257
C39   C     C_R   0.282483 0.645219 0.511940 0.141971
C40   C     C_R   0.333311 0.633131 0.507625 0.129866
C41   C     C_R   0.324314 0.405047 0.499381 0.083879
C42   C     C_3   0.352422 0.227694 0.626452 -0.777590
C43   C     C_3   0.259888 0.772702 0.531716 -0.348063
C44   C     C_3   0.264453 0.813990 0.675787 -0.827565
C45   C     C_R   0.125213 0.516476 0.616050 -0.090376
C46   C     C_3   0.734540 0.260487 0.335768 -0.386522
C47   C     C_3   0.725261 0.137935 0.411716 -0.849259
C48   C     C_3   0.234843 0.269849 0.351398 -0.740369
C49   C     C_3   0.478775 0.074775 0.740840 -0.795087
C50   C     C_3   0.556569 0.799143 0.946502 -0.876477
C51   C     C_3   0.459611 0.419727 0.892964 -0.217933
C52   C     C_3   0.412271 0.491157 0.916825 -0.816967
C53   C     C_3   0.660075 0.684980 0.634060 -0.431807
C54   C     C_3   0.667127 0.667283 0.783525 -0.811470
C55   C     C_3   0.033127 0.399666 0.957641 -0.814346
C56   C     C_R   0.098486 0.494423 0.732962 -0.152152
C57   C     C_3   0.375711 0.794629 0.380460 -0.791232
C58   C     C_R   0.127930 0.569130 0.379914 -0.006793
C59   C     C_R   0.353870 0.513006 0.502398 -0.208988
C60   C     C_R   0.646448 0.487728 0.495239 -0.095435
H1    H     H_    0.123942 0.617902 0.170680 0.191808
H2    H     H_    0.518868 0.426615 0.109250 0.167564
H3    H     H_    0.117012 0.490948 0.827272 0.196065
H4    H     H_    0.752716 0.620100 0.593714 0.146771
H5    H     H_    0.881811 0.296085 0.753896 0.189988
H6    H     H_    0.968113 0.327672 0.764945 0.177246
H7    H     H_    0.374746 0.275676 0.434631 0.230325
H8    H     H_    0.383664 0.273551 0.675627 0.250146
H9    H     H_    0.360133 0.126899 0.615313 0.248101
H10   H     H_    0.319566 0.236272 0.690667 0.244218
H11   H     H_    0.245897 0.745431 0.743572 0.285395
H12   H     H_    0.963630 0.640204 0.174286 0.147630
H13   H     H_    0.303190 0.822694 0.704122 0.265551
H14   H     H_    0.247136 0.906374 0.687810 0.243225
H15   H     H_    0.277414 0.843486 0.464791 0.223293
H16   H     H_    0.220821 0.772868 0.506212 0.203210
H17   H     H_    0.743410 0.140221 0.509801 0.288676
H18   H     H_    0.685682 0.121415 0.427230 0.251464
H19   H     H_    0.740172 0.059225 0.353906 0.254257
H20   H     H_    0.716419 0.256872 0.237639 0.211780
H21   H     H_    0.774134 0.269649 0.315465 0.219057
H22   H     H_    0.251893 0.237630 0.548533 0.251149
H23   H     H_    0.641015 0.323292 0.374313 0.157285
H24   H     H_    0.208110 0.191382 0.352519 0.233654
H25   H     H_    0.269378 0.237301 0.306096 0.244613
H26   H     H_    0.220061 0.346970 0.289703 0.271606
H27   H     H_    0.436571 0.002756 0.584683 0.244823
H28   H     H_    0.480615 0.977065 0.778932 0.242918
H29   H     H_    0.454167 0.127274 0.807209 0.236164
H30   H     H_    0.515897 0.116423 0.744362 0.251735
H31   H     H_    0.562686 0.672661 0.790532 0.265609
H32   H     H_    0.576243 0.868831 0.882506 0.246492
H33   H     H_    0.581812 0.763525 0.023305 0.256570
H34   H     H_    0.877697 0.613388 0.169689 0.189272
H35   H     H_    0.525589 0.847667 0.993836 0.245064
H36   H     H_    0.409472 0.572200 0.847404 0.272387
H37   H     H_    0.380610 0.427883 0.901670 0.237131
H38   H     H_    0.410101 0.525168 0.020337 0.248181
H39   H     H_    0.452501 0.354666 0.811163 0.227347
H40   H     H_    0.467748 0.356608 0.977212 0.136248
H41   H     H_    0.645886 0.584870 0.820697 0.268323
H42   H     H_    0.706094 0.653713 0.806464 0.266647
H43   H     H_    0.654589 0.751591 0.836142 0.248487
H44   H     H_    0.680806 0.769251 0.599375 0.209511
H45   H     H_    0.037893 0.605387 0.160288 0.159106
H46   H     H_    0.621345 0.704545 0.614353 0.195243
H47   H     H_    0.987089 0.523752 0.853922 0.235704
H48   H     H_    0.006206 0.405979 0.040323 0.245140
H49   H     H_    0.069659 0.417719 0.999136 0.253507
H50   H     H_    0.031623 0.303724 0.917188 0.245849
H51   H     H_    0.393074 0.735755 0.571530 0.228980
H52   H     H_    0.392937 0.887934 0.392346 0.235999
H53   H     H_    0.342720 0.806100 0.319124 0.250221
H54   H     H_    0.401521 0.733247 0.327553 0.256488
H55   H     H_    0.486235 0.890228 0.296054 0.174630
H56   H     H_    0.525044 0.911414 0.582556 0.184804
H57   H     H_    0.516544 0.114286 0.304258 0.164484
H58   H     H_    0.491423 0.688201 0.118138 0.161675
N1    N     N_R   0.201425 0.545983 0.502236 -0.326122
N2    N     N_2   0.363423 0.742405 0.510212 -0.306547
N3    N     N_R   0.798118 0.446017 0.464728 -0.353079
N4    N     N_2   0.500520 0.501330 0.852150 -0.121529
N5    N     N_2   0.500540 0.501360 0.147810 -0.211193
N6    N     N_2   0.344855 0.283505 0.496565 -0.306302
N7    N     N_2   0.242864 0.310565 0.485975 -0.292500
N8    N     N_2   0.459525 0.076085 0.607189 -0.311965
N9    N     N_2   0.539184 0.697628 0.865487 -0.284914
N10   N     N_2   0.022189 0.491360 0.855168 -0.320626
O1    O     O_R   0.499990 0.319060 0.613040 -0.618175
O2    O     O_R   0.571240 0.499960 0.613080 -0.623200
O3    O     O_R   0.571250 0.500000 0.386950 -0.606128
O4    O     O_2   0.200023 0.499127 0.731312 -0.574107
O5    O     O_2   0.798285 0.333263 0.667033 -0.563807
O6    O     O_2   0.205160 0.600291 0.274939 -0.576619
O7    O     O_2   0.795695 0.552207 0.258635 -0.565858
O8    O     O_R   0.500010 0.319100 0.386900 -0.639519
O9    O     O_R   0.428750 0.500000 0.613050 -0.621425
O10   O     O_R   0.428760 0.500040 0.386920 -0.608348
O11   O     O_R   0.499990 0.680900 0.613100 -0.620954
O12   O     O_R   0.500010 0.680940 0.386960 -0.616057
Zn1   Zn    Zn3+2 0.499990 0.499970 0.650990 0.922904
Zn2   Zn    Zn3+2 0.500010 0.500030 0.349010 0.927366

loop_
_geom_bond_atom_site_label_1
_geom_bond_atom_site_label_2
_ccdc_geom_bond_type
C10   C27   A    
C46   H20   S    
C8    C13   A    
C22   C29   A    
C26   H12   S    
C15   C60   A    
C54   H41   S    
C35   C36   S    
C47   H19   S    
C32   H57   S    
H7    N6    S    
C1    C33   S    
C7    C8    A    
C2    C6    A    
C53   C54   S    
C16   C31   S    
C49   N8    S    
C12   C23   A    
C26   C27   A    
H31   N9    S    
C15   C53   S    
C41   N6    S    
O12   Zn2   S    
H47   N10   S    
C1    O1    A    
C23   N1    S    
C30   C31   D    
C50   H35   S    
C57   H52   S    
O1    Zn1   S    
C53   H44   S    
C52   H37   S    
C42   H10   S    
N5    Zn2   S    
C44   H11   S    
C18   C19   A    
O2    Zn1   S    
O8    Zn2   S    
C4    O9    A    
C38   C58   A    
C53   H46   S    
C20   C24   A    
C45   C56   A    
C8    C9    A    
C1    O8    A    
C36   H58   S    
C9    C10   A    
C49   H30   S    
C48   N7    S    
C40   C59   A    
C21   C22   A    
C55   H49   S    
C43   H15   S    
C49   H28   S    
C29   H45   S    
C11   N3    A    
C18   C46   S    
H2    N5    S    
C30   H55   S    
C28   C60   S    
C25   C29   A    
C42   N6    S    
C51   C52   S    
C54   H43   S    
C36   N5    D    
C41   C59   A    
O10   Zn2   S    
C39   C40   A    
C39   C43   S    
C12   N7    S    
C2    C20   A    
C42   H9    S    
C48   H24   S    
H51   N2    S    
C17   H23   S    
C35   N9    S    
C43   C44   S    
H22   N7    S    
C5    C9    A    
C12   C41   A    
C11   O7    S    
C7    H5    S    
C46   H21   S    
C13   N3    A    
C51   H39   S    
C37   N1    A    
C14   H4    S    
C17   C18   A    
C56   H3    S    
C35   N4    D    
C34   C45   A    
C25   H1    S    
C55   N10   S    
C44   H14   S    
C57   H54   S    
O3    Zn2   S    
C57   N2    S    
C38   N1    A    
C50   H32   S    
C40   N2    S    
C55   H50   S    
C48   H26   S    
C2    C5    A    
C25   C58   A    
C47   H17   S    
C37   C45   A    
C31   H56   S    
C16   O12   A    
C34   C58   A    
C51   H40   S    
O9    Zn1   S    
C46   C47   S    
C19   N3    S    
C14   C15   A    
C13   O5    S    
C14   C19   A    
C54   H42   S    
C3    C26   A    
C49   H29   S    
C3    C5    A    
C57   H53   S    
C50   H33   S    
C6    C7    A    
C21   C34   A    
C24   C56   A    
N4    Zn1   S    
C37   O4    S    
C55   H48   S    
C28   O3    A    
C32   C33   D    
C27   H34   S    
C30   C32   S    
O11   Zn1   S    
C23   C39   A    
C4    C59   S    
C52   H38   S    
C33   N8    S    
C52   H36   S    
C28   O2    A    
C38   O6    S    
C42   H8    S    
C44   H13   S    
C10   C11   A    
C17   C60   A    
C4    O10   A    
C16   O11   A    
C6    H6    S    
C20   C21   A    
C24   N10   S    
C51   N4    S    
C48   H25   S    
C43   H16   S    
C3    C22   A    
C50   N9    S    
C47   H18   S    
H27   N8    S    
