data_mof_unit_61081.cif
_audit_creation_date              2012-12-11T14:24:16-0500
_audit_creation_method            fapswitch 2.2
_symmetry_space_group_name_H-M    P1
_symmetry_Int_Tables_number       1
_space_group_crystal_system       triclinic
_cell_length_a                    6.951148
_cell_length_b                    17.486911
_cell_length_c                    18.87773
_cell_angle_alpha                 105.202874
_cell_angle_beta                  90.417338
_cell_angle_gamma                 90.862214
_cell_volume                      2213.95928742

loop_
_atom_site_label
_atom_site_type_symbol
_atom_type_description
_atom_site_fract_x
_atom_site_fract_y
_atom_site_fract_z
_atom_type_partial_charge
O1    O     O_R   0.494360 0.416740 0.414860 -0.535277
O2    O     O_R   0.818980 0.432970 0.557290 -0.525577
O3    O     O_R   0.994290 0.583260 0.585140 -0.537936
C1    C     C_R   0.650285 0.415944 0.580606 0.721719
O4    O     O_R   0.823740 0.407570 0.413690 -0.542564
O5    O     O_R   0.999090 0.557670 0.440510 -0.522450
C2    C     C_R   0.651376 0.386976 0.385351 0.691682
O6    O     O_R   0.489560 0.442330 0.559490 -0.520849
O7    O     O_3   0.662450 0.549280 0.508970 -0.361759
V1    V     V_3+5 0.935350 0.490860 0.498340 1.403283
O8    O     O_R   0.329100 0.567030 0.442710 -0.526355
C3    C     C_R   0.160653 0.584011 0.419340 0.715081
O9    O     O_R   0.324330 0.592430 0.586310 -0.537562
C4    C     C_R   0.155904 0.615012 0.613505 0.746262
V2    V     V_3+5 0.435960 0.509140 0.501660 1.405782
O10   O     O_3   0.158990 0.450720 0.491030 -0.361259
C5    C     C_2   0.276953 0.788987 0.785875 -0.124177
C6    C     C_2   0.111544 0.817216 0.819591 -0.313810
H1    H     H_    0.412722 0.816407 0.808800 0.137331
H2    H     H_    0.973811 0.790891 0.798508 0.127906
C7    C     C_2   0.291372 0.721396 0.718442 -0.135844
C8    C     C_2   0.139647 0.682317 0.679968 -0.309589
H3    H     H_    0.435521 0.703720 0.699917 0.134127
H4    H     H_    0.994677 0.699256 0.697226 0.131923
C9    C     C_1   0.111451 0.863922 0.132634 -0.215796
C10   C     C_1   0.118903 0.821336 0.176186 -0.000955
C11   C     C_1   0.128016 0.771094 0.228056 -0.002105
C12   C     C_1   0.135756 0.728782 0.271842 -0.002260
C13   C     C_1   0.144864 0.678545 0.323716 -0.001282
C14   C     C_1   0.152308 0.635971 0.367278 -0.216772
C15   C     C_1   0.642067 0.364000 0.632639 -0.215108
C16   C     C_1   0.637551 0.321417 0.676214 0.000178
C17   C     C_1   0.633440 0.271188 0.728115 -0.000969
C18   C     C_1   0.630236 0.228878 0.771939 -0.001202
C19   C     C_1   0.626129 0.178647 0.823839 -0.000461
C20   C     C_1   0.621624 0.136059 0.867409 -0.213180
C21   C     C_2   0.703702 0.188346 0.237477 -0.136985
C22   C     C_2   0.635130 0.187829 0.170723 -0.264415
H5    H     H_    0.741340 0.132488 0.248575 0.115251
H6    H     H_    0.623444 0.241772 0.153665 0.112800
C23   C     C_2   0.738795 0.261710 0.297498 -0.156266
C24   C     C_2   0.618551 0.323852 0.316140 -0.014323
H7    H     H_    0.858429 0.259799 0.334275 0.112749
O11   O     O_R   0.774180 0.057760 0.940580 -0.522131
O12   O     O_R   0.439830 0.092440 0.086330 -0.535463
O13   O     O_R   0.264640 0.942310 0.059470 -0.523294
C25   C     C_R   0.611432 0.114497 0.112812 0.731613
O14   O     O_R   0.444740 0.067040 0.942730 -0.526753
O15   O     O_R   0.269590 0.916730 0.914840 -0.534663
C26   C     C_R   0.613429 0.084094 0.919424 0.714213
O16   O     O_R   0.769230 0.083340 0.085210 -0.533894
O17   O     O_3   0.601340 0.950770 0.991070 -0.364187
V3    V     V_3+5 0.328370 0.009130 0.001660 1.414251
O18   O     O_R   0.939550 0.907490 0.913620 -0.542752
C27   C     C_R   0.107418 0.884890 0.886383 0.743367
O19   O     O_R   0.934640 0.932890 0.057220 -0.525660
C28   C     C_R   0.103090 0.915905 0.080589 0.718150
V4    V     V_3+5 0.827780 0.990750 0.998250 1.408866
O20   O     O_3   0.104690 0.049230 0.008930 -0.359837
C29   C     C_3   0.427495 0.327684 0.275822 -0.295194
C30   C     C_3   0.277729 0.267675 0.288026 -0.705502
H8    H     H_    0.326979 0.205954 0.267358 0.231807
H9    H     H_    0.245967 0.279150 0.347438 0.218897
H10   H     H_    0.143159 0.273744 0.258136 0.206575
H11   H     H_    0.363434 0.387252 0.295412 0.163370
H12   H     H_    0.445117 0.323452 0.217121 0.159236

loop_
_geom_bond_atom_site_label_1
_geom_bond_atom_site_label_2
_ccdc_geom_bond_type
O5    V1    S    
C30   H10   S    
O2    C1    A    
O8    C3    A    
C21   C22   D    
O1    V2    S    
C23   C24   D    
C19   C20   T    
O9    V2    S    
C1    O6    A    
C16   C17   S    
C4    C8    S    
O14   C26   A    
C5    C6    D    
V3    O20   S    
C29   H12   S    
O4    V1    S    
C21   H5    S    
O3    V1    S    
V1    O10   S    
O9    C4    A    
O17   V3    S    
C22   H6    S    
C23   H7    S    
C22   C25   S    
C13   C14   T    
O3    C4    A    
O17   V4    S    
C6    C27   S    
O1    C2    A    
C21   C23   S    
O15   V3    S    
O13   V3    S    
C7    C8    D    
C12   C13   S    
C5    H1    S    
O19   V4    S    
C29   H11   S    
C17   C18   T    
O6    V2    S    
C6    H2    S    
O12   C25   A    
C7    H3    S    
O5    C3    A    
O14   V3    S    
O18   V4    S    
C8    H4    S    
V4    O20   S    
C1    C15   S    
C30   H8    S    
O12   V3    S    
V2    O10   S    
O2    V1    S    
C9    C28   S    
C20   C26   S    
O19   C28   A    
O4    C2    A    
C18   C19   S    
O7    V1    S    
C2    C24   S    
C24   C29   S    
C11   C12   T    
O16   V4    S    
O18   C27   A    
C10   C11   S    
O11   C26   A    
C3    C14   S    
C9    C10   T    
O15   C27   A    
O8    V2    S    
O13   C28   A    
C30   H9    S    
C25   O16   A    
C15   C16   T    
O7    V2    S    
O11   V4    S    
C29   C30   S    
C5    C7    S    
