data_mof_unit_54328.cif
_audit_creation_date              2012-12-10T19:07:37-0500
_audit_creation_method            fapswitch 2.2
_symmetry_space_group_name_H-M    P1
_symmetry_Int_Tables_number       1
_space_group_crystal_system       triclinic
_cell_length_a                    10.797944
_cell_length_b                    10.821693
_cell_length_c                    9.545702
_cell_angle_alpha                 89.946281
_cell_angle_beta                  90.330814
_cell_angle_gamma                 90.29197
_cell_volume                      1115.40116952

loop_
_atom_site_label
_atom_site_type_symbol
_atom_type_description
_atom_site_fract_x
_atom_site_fract_y
_atom_site_fract_z
_atom_type_partial_charge
C1    C     C_R   0.498291 0.262316 0.500057 0.785195
C2    C     C_R   0.937143 0.548099 0.605506 0.133163
C3    C     C_3   0.930634 0.681512 0.645661 -0.481117
C4    C     C_3   0.070919 0.682898 0.646314 -0.453348
C5    C     C_R   0.496002 0.063458 0.626006 0.160763
C6    C     C_R   0.487451 0.129105 0.500361 -0.147031
C7    C     C_R   0.462611 0.064401 0.375531 -0.190997
C8    C     C_R   0.462456 0.935547 0.375360 -0.202339
C9    C     C_R   0.487287 0.870710 0.499973 -0.123828
C10   C     C_R   0.496403 0.936069 0.625464 0.131795
C11   C     C_3   0.593073 0.928733 0.737755 -0.486039
C12   C     C_R   0.262580 0.498635 0.499717 0.810851
C13   C     C_3   0.593437 0.069428 0.738323 -0.205833
C14   C     C_R   0.560013 0.591154 0.074096 0.258097
C15   C     C_R   0.430320 0.417691 0.074056 -0.056525
C16   C     C_R   0.430012 0.417968 0.925118 -0.067416
C17   C     C_R   0.559875 0.591239 0.926790 0.263677
C18   C     C_3   0.694477 0.621569 0.922453 -0.517286
C19   C     C_3   0.694636 0.621286 0.081267 -0.481762
C20   C     C_R   0.498262 0.737644 0.499881 0.808395
C21   C     C_R   0.737535 0.495751 0.500232 0.780144
C22   C     C_R   0.064505 0.549983 0.605556 0.137506
C23   C     C_R   0.129647 0.490475 0.500687 -0.140530
C24   C     C_R   0.066178 0.415240 0.404484 -0.178894
C25   C     C_R   0.936008 0.409378 0.405334 -0.025518
C26   C     C_R   0.871004 0.484540 0.502009 -0.188607
Cu1   Cu    Cu3+1 0.499990 0.499980 0.640670 0.947815
Cu2   Cu    Cu3+1 0.500010 0.500020 0.359330 0.941756
H1    H     H_    0.118236 0.361593 0.329412 0.189455
H2    H     H_    0.681271 0.888762 0.699300 0.169901
H3    H     H_    0.681913 0.110812 0.701175 0.118631
H4    H     H_    0.375970 0.349394 0.129583 0.156081
H5    H     H_    0.375173 0.350148 0.868943 0.172926
H6    H     H_    0.750923 0.545969 0.877298 0.228556
H7    H     H_    0.711322 0.714745 0.877763 0.185890
H8    H     H_    0.751007 0.545267 0.126523 0.229558
H9    H     H_    0.712216 0.714023 0.127471 0.197978
H10   H     H_    0.889073 0.740229 0.562216 0.195054
H11   H     H_    0.892145 0.695292 0.751675 0.200906
H12   H     H_    0.111508 0.742494 0.563205 0.196845
H13   H     H_    0.111770 0.695724 0.752512 0.209355
H14   H     H_    0.448531 0.112753 0.277346 0.187180
H15   H     H_    0.448289 0.887368 0.277105 0.178621
H16   H     H_    0.556500 0.885080 0.834715 0.219366
N1    N     N_R   0.500790 0.500930 0.147930 -0.195460
N2    N     N_R   0.500790 0.500890 0.852020 -0.197930
O1    O     O_R   0.500000 0.319640 0.618810 -0.586757
O2    O     O_R   0.500010 0.319680 0.381230 -0.593125
O3    O     O_R   0.319650 0.499970 0.618810 -0.575383
O4    O     O_R   0.319660 0.500010 0.381230 -0.581390
O5    O     O_R   0.499990 0.680320 0.618770 -0.574304
O6    O     O_R   0.500000 0.680360 0.381190 -0.582294
O7    O     O_R   0.680340 0.499990 0.618770 -0.574422
O8    O     O_R   0.680350 0.500030 0.381190 -0.594695
C27   C     C_2   0.547845 0.125233 0.872888 0.406968
H17   H     H_    0.604999 0.192863 0.927123 0.073083
O9    O     O_2   0.448103 0.095120 0.922574 -0.563811
C28   C     C_2   0.871107 0.323913 0.307303 0.351185
H18   H     H_    0.774265 0.300700 0.321759 0.090447
O10   O     O_2   0.925886 0.276445 0.209735 -0.550502

loop_
_geom_bond_atom_site_label_1
_geom_bond_atom_site_label_2
_ccdc_geom_bond_type
C2    C22   A    
C12   O4    A    
C23   C24   A    
Cu1   O7    S    
C1    O2    A    
C4    H12   S    
C6    C7    A    
C16   H5    S    
C20   O5    A    
C4    C22   S    
C18   H7    S    
C9    C20   S    
C5    C13   S    
Cu1   O1    S    
C14   C17   A    
C8    H15   S    
C27   H17   S    
C10   C11   S    
C12   O3    A    
C28   H18   S    
C3    H11   S    
C11   H16   S    
C2    C26   A    
C24   C25   A    
C21   O7    A    
Cu2   O6    S    
C12   C23   S    
C21   O8    A    
C18   H6    S    
Cu1   N2    S    
C5    C10   A    
C21   C26   S    
Cu1   O5    S    
C17   C18   S    
C14   N1    A    
C2    C3    S    
C19   H8    S    
C27   O9    D    
C5    C6    A    
Cu2   N1    S    
C7    C8    A    
C25   C28   S    
C15   N1    A    
C28   O10   D    
C1    C6    S    
C9    C10   A    
Cu1   O3    S    
C11   C13   S    
C17   N2    A    
C11   H2    S    
C20   O6    A    
C18   C19   S    
C4    H13   S    
C7    H14   S    
C16   N2    A    
Cu1   Cu2   S    
Cu2   O8    S    
C24   H1    S    
C1    O1    A    
C19   H9    S    
C25   C26   A    
C22   C23   A    
Cu2   O4    S    
C14   C19   S    
C13   H3    S    
Cu2   O2    S    
C3    C4    S    
C15   C16   A    
C3    H10   S    
C8    C9    A    
C13   C27   S    
C15   H4    S    
