data_mof_unit_26050.cif
_audit_creation_date              2012-12-11T15:09:34-0500
_audit_creation_method            fapswitch 2.2
_symmetry_space_group_name_H-M    P1
_symmetry_Int_Tables_number       1
_space_group_crystal_system       triclinic
_cell_length_a                    20.949744
_cell_length_b                    7.126481
_cell_length_c                    13.992378
_cell_angle_alpha                 90.163327
_cell_angle_beta                  98.194882
_cell_angle_gamma                 89.7577
_cell_volume                      2067.67837778

loop_
_atom_site_label
_atom_site_type_symbol
_atom_type_description
_atom_site_fract_x
_atom_site_fract_y
_atom_site_fract_z
_atom_type_partial_charge
O1    O     O_R   0.447130 0.507140 0.597350 -0.544654
O2    O     O_R   0.552870 0.007140 0.402650 -0.532883
O3    O     O_R   0.578910 0.181280 0.586990 -0.533250
O4    O     O_R   0.421090 0.681280 0.413010 -0.543122
C1    C     C_R   0.604496 0.344314 0.607376 0.744223
C2    C     C_R   0.395507 0.844623 0.392617 0.745472
O5    O     O_R   0.449230 0.177860 0.608640 -0.535413
O6    O     O_R   0.550770 0.677860 0.391360 -0.547241
O7    O     O_R   0.422260 0.000770 0.424450 -0.530747
O8    O     O_R   0.577740 0.500770 0.575550 -0.541179
C3    C     C_R   0.432316 0.346466 0.634051 0.694983
C4    C     C_R   0.567659 0.845922 0.365909 0.694581
O9    O     O_3   0.491310 0.336980 0.439550 -0.375080
O10   O     O_3   0.508690 0.836980 0.560450 -0.375700
V1    V     V_3+5 0.501610 0.064760 0.511210 1.505128
V2    V     V_3+5 0.498390 0.564760 0.488790 1.468831
C5    C     C_R   0.617414 0.928385 0.122008 -0.120193
C6    C     C_R   0.383020 0.321844 0.881513 -0.119732
H1    H     H_    0.594136 0.959049 0.049424 0.189968
H2    H     H_    0.406482 0.309605 0.955507 0.189272
C7    C     C_R   0.607487 0.856248 0.288028 -0.163773
C8    C     C_R   0.392486 0.353919 0.712072 -0.164613
C9    C     C_R   0.918663 0.867414 0.306071 -0.181046
C10   C     C_R   0.081537 0.327853 0.695097 -0.180367
C11   C     C_R   0.881249 0.910112 0.379547 0.341794
C12   C     C_R   0.119490 0.269165 0.624880 0.342435
C13   C     C_R   0.814499 0.934359 0.355418 -0.004237
C14   C     C_R   0.186431 0.253106 0.650341 -0.004253
C15   C     C_R   0.783000 0.893792 0.260499 -0.076367
C16   C     C_R   0.217353 0.317010 0.741952 -0.075767
C17   C     C_R   0.821165 0.882525 0.184315 -0.028440
C18   C     C_R   0.178953 0.344869 0.816882 -0.028974
C19   C     C_R   0.714534 0.880703 0.238190 -0.010655
C20   C     C_R   0.285631 0.337828 0.763213 -0.011406
C21   C     C_R   0.684852 0.910114 0.142079 0.000291
C22   C     C_R   0.315442 0.332704 0.860476 -0.000697
C23   C     C_R   0.722136 0.913429 0.066504 0.279710
C24   C     C_R   0.278064 0.345933 0.935736 0.279768
C25   C     C_R   0.790136 0.897154 0.086771 0.226441
C26   C     C_R   0.209947 0.354445 0.914631 0.225266
C27   C     C_R   0.674985 0.826470 0.307661 0.310624
C28   C     C_R   0.324730 0.376476 0.690751 0.312190
C29   C     C_R   0.579206 0.911158 0.195151 -0.116049
C30   C     C_R   0.421163 0.322689 0.807771 -0.116118
C31   C     C_R   0.889519 0.865991 0.208687 -0.139448
C32   C     C_R   0.110499 0.353347 0.791658 -0.139573
C33   C     C_1   0.166597 0.856849 0.168296 -0.136896
C34   C     C_1   0.833425 0.357450 0.831639 -0.142564
C35   C     C_1   0.218999 0.854766 0.219417 0.036979
C36   C     C_1   0.781023 0.354921 0.780527 0.041139
C37   C     C_1   0.280738 0.853630 0.279455 0.054975
C38   C     C_1   0.719273 0.353102 0.720516 0.058880
C39   C     C_1   0.333104 0.851437 0.330678 -0.129381
C40   C     C_1   0.666901 0.350650 0.669313 -0.130650
O11   O     O_R   0.922300 0.202240 0.924350 -0.531582
O12   O     O_R   0.077700 0.702240 0.075650 -0.522828
O13   O     O_R   0.050780 0.535130 0.891350 -0.538179
O14   O     O_R   0.949220 0.035130 0.108650 -0.541323
C41   C     C_R   0.067905 0.367434 0.866045 0.826982
C42   C     C_R   0.932046 0.868824 0.133947 0.827212
O15   O     O_R   0.921100 0.531560 0.912990 -0.529358
O16   O     O_R   0.078900 0.031560 0.087010 -0.538546
O17   O     O_R   0.947120 0.708470 0.097370 -0.535893
O18   O     O_R   0.052880 0.208470 0.902630 -0.539294
C43   C     C_R   0.895882 0.363709 0.893429 0.719812
C44   C     C_R   0.104128 0.863434 0.106542 0.720881
O19   O     O_3   0.008710 0.375800 0.060400 -0.374934
O20   O     O_3   0.991290 0.875800 0.939600 -0.374898
V3    V     V_3+5 0.998380 0.648080 0.988790 1.540777
V4    V     V_3+5 0.001620 0.148080 0.011210 1.513615
C45   C     C_1   0.510466 0.941985 0.172196 0.314859
N1    N     N_1   0.455450 0.966703 0.153859 -0.339400
C46   C     C_1   0.490160 0.299866 0.832482 0.313162
N2    N     N_1   0.545381 0.281528 0.852229 -0.337549
O21   O     O_3   0.690603 0.922121 0.972730 -0.641289
H3    H     H_    0.715855 0.851221 0.929886 0.306744
O22   O     O_3   0.309502 0.360990 0.029352 -0.641923
H4    H     H_    0.283293 0.439911 0.067446 0.306049
O23   O     O_3   0.703309 0.732837 0.389708 -0.643583
H5    H     H_    0.670388 0.687888 0.428068 0.293477
O24   O     O_3   0.295580 0.448771 0.603346 -0.641811
H6    H     H_    0.328082 0.485262 0.562320 0.294047
C47   C     C_1   0.987797 0.838771 0.329110 0.278151
N3    N     N_1   0.042920 0.815954 0.347340 -0.314988
C48   C     C_1   0.012177 0.348654 0.670419 0.278717
N4    N     N_1   0.956875 0.365260 0.650877 -0.315215
C49   C     C_1   0.781276 0.031794 0.425272 0.470669
N5    N     N_1   0.754956 0.110080 0.480979 -0.342787
C50   C     C_1   0.220746 0.140978 0.587202 0.467616
N6    N     N_1   0.247940 0.050976 0.536886 -0.339239
O25   O     O_3   0.907830 0.936671 0.475230 -0.628768
H7    H     H_    0.955232 0.922453 0.483490 0.310327
O26   O     O_3   0.093337 0.219134 0.531619 -0.628708
H8    H     H_    0.045811 0.229481 0.522574 0.309926
O27   O     O_3   0.826498 0.903120 0.011948 -0.649396
H9    H     H_    0.806534 0.994282 0.963128 0.292769
O28   O     O_3   0.173528 0.364325 0.989338 -0.649870
H10   H     H_    0.194277 0.285476 0.043356 0.293083

loop_
_geom_bond_atom_site_label_1
_geom_bond_atom_site_label_2
_ccdc_geom_bond_type
C16   C18   A    
C49   N5    T    
C31   C42   S    
O26   H8    S    
C9    C31   A    
C32   C41   S    
C13   C15   A    
C46   N2    T    
O27   H9    S    
C20   C28   A    
O2    C4    A    
C2    O7    A    
O28   H10   S    
C33   C35   T    
O22   H4    S    
O5    C3    A    
C41   O18   A    
C9    C47   S    
C42   O17   A    
C21   C23   A    
C10   C12   A    
O13   C41   A    
O14   C42   A    
C15   C19   A    
O16   V4    S    
C5    H1    S    
C7    C29   A    
C8    C30   A    
O17   V3    S    
C17   C25   A    
O20   V3    S    
C35   C37   S    
O1    C3    A    
C36   C38   S    
C14   C50   S    
O18   V4    S    
C34   C43   S    
C10   C48   S    
C33   C44   S    
C20   C22   A    
C12   O26   S    
C34   C36   T    
C23   O21   S    
O6    V2    S    
C28   O24   S    
O11   C43   A    
C38   C40   T    
O24   H6    S    
C11   O25   S    
O16   C44   A    
C1    C40   S    
O4    C2    A    
C26   O28   S    
C16   C20   A    
O14   V4    S    
C48   N4    T    
C4    C7    S    
O19   V3    S    
O4    V2    S    
O21   H3    S    
C5    C29   A    
C6    C30   A    
C47   N3    T    
O6    C4    A    
O1    V2    S    
C13   C49   S    
O2    V1    S    
C25   O27   S    
C7    C27   A    
O20   V4    S    
C2    C39   S    
O25   H7    S    
O3    V1    S    
O15   V3    S    
C29   C45   S    
C18   C32   A    
O3    C1    A    
C27   O23   S    
C24   O22   S    
C11   C13   A    
C3    C8    S    
C12   C14   A    
O19   V4    S    
C19   C27   A    
C22   C24   A    
O7    V1    S    
C10   C32   A    
C45   N1    T    
C15   C17   A    
O8    V2    S    
C24   C26   A    
C8    C28   A    
O12   C44   A    
O5    V1    S    
C19   C21   A    
C14   C16   A    
C6    H2    S    
C18   C26   A    
C30   C46   S    
O11   V4    S    
C37   C39   T    
O23   H5    S    
O15   C43   A    
C1    O8    A    
C9    C11   A    
C23   C25   A    
O12   V3    S    
C17   C31   A    
O9    V2    S    
O10   V1    S    
C5    C21   A    
O13   V3    S    
C50   N6    T    
C6    C22   A    
