data_mof_unit_23429.cif
_audit_creation_date              2012-10-26T20:38:30-0400
_audit_creation_method            fapswitch 2.2
_symmetry_space_group_name_H-M    P1
_symmetry_Int_Tables_number       1
_space_group_crystal_system       triclinic
_cell_length_a                    15.84804
_cell_length_b                    10.999201
_cell_length_c                    9.904128
_cell_angle_alpha                 111.604822
_cell_angle_beta                  96.921641
_cell_angle_gamma                 93.005916
_cell_volume                      1584.66658233

loop_
_atom_site_label
_atom_site_type_symbol
_atom_type_description
_atom_site_fract_x
_atom_site_fract_y
_atom_site_fract_z
_atom_type_partial_charge
C1    C     C_R   0.491410 0.253227 0.439528 0.515061
C2    C     C_3   0.031105 0.602031 0.475653 0.034160
C3    C     C_3   0.018840 0.386645 0.396912 -0.157115
C4    C     C_3   0.980591 0.610163 0.602646 -0.153180
C5    C     C_1   0.250987 0.499188 0.507363 0.023380
C6    C     C_1   0.748784 0.499374 0.492498 0.001446
C7    C     C_3   0.033867 0.506098 0.633591 -0.013094
C8    C     C_3   0.965519 0.490738 0.366144 -0.013900
C9    C     C_3   0.083785 0.499379 0.507551 0.034296
C10   C     C_3   0.915749 0.497446 0.492211 0.036543
C11   C     C_1   0.175634 0.499081 0.509721 0.008625
C12   C     C_R   0.505672 0.746758 0.560489 0.514709
C13   C     C_1   0.824040 0.498497 0.490176 -0.002269
C14   C     C_2   0.480029 0.110907 0.402226 -0.011345
C15   C     C_2   0.508828 0.888901 0.595966 -0.013127
C16   C     C_2   0.934291 0.275850 0.548187 0.207473
C17   C     C_2   0.064555 0.720807 0.450636 0.207093
C18   C     C_R   0.926232 0.486086 0.217748 0.034218
C19   C     C_R   0.938654 0.383559 0.088275 -0.085411
C20   C     C_R   0.903205 0.381887 0.951228 -0.080891
C21   C     C_R   0.855016 0.482156 0.942205 -0.080900
C22   C     C_R   0.841936 0.584091 0.070481 -0.122283
C23   C     C_2   0.470625 0.067117 0.510469 -0.093154
C24   C     C_R   0.877368 0.586178 0.207796 -0.105469
C25   C     C_R   0.071363 0.510479 0.782793 0.033917
C26   C     C_R   0.060046 0.615070 0.911375 -0.079958
C27   C     C_R   0.092343 0.615429 0.049274 -0.078116
C28   C     C_R   0.135738 0.511326 0.060140 -0.063700
C29   C     C_R   0.147281 0.406975 0.932857 -0.064991
C30   C     C_R   0.115872 0.406919 0.794626 -0.076792
C31   C     C_2   0.555230 0.979107 0.742062 0.216063
C32   C     C_2   0.480642 0.023518 0.246502 0.276616
C33   C     C_2   0.403141 0.424779 0.838492 0.273145
C34   C     C_2   0.471903 0.928982 0.491704 -0.083397
C35   C     C_2   0.563254 0.636639 0.180727 0.267218
C36   C     C_2   0.501774 0.522743 0.084131 0.143120
C37   C     C_2   0.484151 0.502403 0.923905 0.153471
C38   C     C_R   0.340200 0.499466 0.502080 0.550743
C39   C     C_R   0.659726 0.500226 0.497875 0.552573
C40   C     C_3   0.968275 0.394779 0.523908 0.033409
Cu1   Cu    Cu3+1 0.514700 0.521810 0.644910 0.991608
Cu2   Cu    Cu3+1 0.485300 0.478190 0.355090 0.976464
H1    H     H_    0.036043 0.294211 0.316028 0.099055
H2    H     H_    0.913578 0.303098 0.852051 0.143861
H3    H     H_    0.827995 0.480969 0.835925 0.151070
H4    H     H_    0.804471 0.661648 0.063528 0.119156
H5    H     H_    0.866910 0.665898 0.306327 0.100184
H6    H     H_    0.025739 0.695933 0.905965 0.104025
H7    H     H_    0.082976 0.695993 0.147678 0.142345
H8    H     H_    0.160001 0.511213 0.167062 0.147400
H9    H     H_    0.180739 0.326174 0.941280 0.135328
H10   H     H_    0.125510 0.325605 0.696908 0.099487
H11   H     H_    0.565550 0.944220 0.831363 0.141959
H12   H     H_    0.963182 0.702628 0.683165 0.099539
H13   H     H_    0.521710 0.053501 0.181701 0.130869
H14   H     H_    0.401336 0.348755 0.731297 0.125168
H15   H     H_    0.611329 0.628946 0.262799 0.138289
H16   H     H_    0.440299 0.855942 0.388392 0.220628
H17   H     H_    0.466810 0.136949 0.619973 0.167803
H18   H     H_    0.595031 0.600693 0.922607 0.225271
H19   H     H_    0.424163 0.363845 0.065621 0.226546
H20   H     H_    0.977969 0.209120 0.566963 0.089191
H21   H     H_    0.020423 0.786268 0.430078 0.092556
H22   H     H_    0.976306 0.305488 0.092394 0.100802
N1    N     N_2   0.463210 0.445420 0.137360 -0.358191
N2    N     N_2   0.536790 0.554580 0.862640 -0.350155
O1    O     O_R   0.507840 0.332340 0.577400 -0.513599
O2    O     O_2   0.140925 0.744824 0.453506 -0.507648
O3    O     O_2   0.585831 0.089893 0.763103 -0.508861
O4    O     O_2   0.431738 0.923145 0.186425 -0.463864
O5    O     O_2   0.336429 0.445476 0.889025 -0.526010
O6    O     O_2   0.561234 0.742533 0.167550 -0.505160
O7    O     O_R   0.492160 0.667660 0.422600 -0.495841
O8    O     O_R   0.483020 0.295500 0.332650 -0.503864
O9    O     O_R   0.516980 0.704500 0.667350 -0.492520
O10   O     O_R   0.391490 0.518400 0.622350 -0.487600
O11   O     O_R   0.608510 0.481600 0.377650 -0.524204
O12   O     O_R   0.366660 0.481570 0.377600 -0.480576
O13   O     O_R   0.633340 0.518430 0.622400 -0.488082
O14   O     O_2   0.857925 0.252993 0.546456 -0.500619

loop_
_geom_bond_atom_site_label_1
_geom_bond_atom_site_label_2
_ccdc_geom_bond_type
Cu1   Cu2   S    
C19   C20   A    
Cu1   O1    S    
C38   O10   A    
C23   H17   S    
C3    H1    S    
C26   C27   A    
C18   C24   A    
C1    O8    A    
C39   O11   A    
C36   C37   S    
C5    C11   T    
C10   C40   S    
C18   C19   A    
C28   H8    S    
C35   C36   S    
Cu2   O7    S    
Cu2   N1    S    
C7    C40   S    
C15   C34   D    
C26   H6    S    
C33   H14   S    
H18   N2    S    
C21   C22   A    
C2    C17   S    
C16   H20   S    
C4    C7    S    
C12   O7    A    
C20   H2    S    
C21   H3    S    
Cu2   O8    S    
C3    C8    S    
C36   N1    D    
C32   O4    D    
C38   O12   A    
C25   C26   A    
C33   C37   S    
C16   O14   D    
C39   O13   A    
C14   C23   D    
C2    C4    S    
C29   C30   A    
C3    C9    S    
Cu1   O9    S    
C12   C15   S    
C19   H22   S    
C23   C34   S    
C37   N2    D    
C31   H11   S    
C9    C11   S    
C16   C40   S    
C22   H4    S    
C35   O6    D    
Cu2   O12   S    
C22   C24   A    
C4    C10   S    
C29   H9    S    
C25   C30   A    
C7    C9    S    
C30   H10   S    
C28   C29   A    
C17   O2    D    
C32   H13   S    
C4    H12   S    
C3    C40   S    
C24   H5    S    
C2    C8    S    
C14   C32   S    
C10   C13   S    
Cu1   O13   S    
C15   C31   S    
Cu1   N2    S    
C7    C25   S    
C35   H15   S    
C17   H21   S    
C6    C13   T    
C1    O1    A    
C8    C18   S    
C33   O5    D    
H19   N1    S    
C31   O3    D    
C20   C21   A    
Cu2   O11   S    
C8    C10   S    
C12   O9    A    
C27   C28   A    
C34   H16   S    
C6    C39   S    
C1    C14   S    
C5    C38   S    
C2    C9    S    
C27   H7    S    
Cu1   O10   S    
