data_mof_unit_48509.cif
_audit_creation_date              2012-12-11T14:24:42-0500
_audit_creation_method            fapswitch 2.2
_symmetry_space_group_name_H-M    P1
_symmetry_Int_Tables_number       1
_space_group_crystal_system       triclinic
_cell_length_a                    18.972283
_cell_length_b                    11.100282
_cell_length_c                    18.688921
_cell_angle_alpha                 90.076687
_cell_angle_beta                  90.962397
_cell_angle_gamma                 90.039134
_cell_volume                      3935.2838998

loop_
_atom_site_label
_atom_site_type_symbol
_atom_type_description
_atom_site_fract_x
_atom_site_fract_y
_atom_site_fract_z
_atom_type_partial_charge
C1    C     C_R   0.731423 0.377088 0.147088 0.550851
C2    C     C_R   0.270043 0.375088 0.854321 0.527765
C3    C     C_R   0.231424 0.877086 0.147086 0.538664
C4    C     C_R   0.770046 0.875081 0.854321 0.539536
C5    C     C_3   0.449286 0.096726 0.033794 -0.160090
C6    C     C_3   0.500324 0.047191 0.977040 -0.131400
C7    C     C_3   0.949336 0.596757 0.033764 -0.158695
C8    C     C_3   0.000366 0.547188 0.977013 -0.131952
C9    C     C_R   0.755038 0.904956 0.929157 -0.008678
C10   C     C_R   0.253024 0.916170 0.075743 -0.009399
C11   C     C_R   0.255038 0.404954 0.929161 -0.007294
C12   C     C_R   0.753023 0.416195 0.075752 -0.009742
C13   C     C_R   0.695324 0.860495 0.965388 0.016220
C14   C     C_R   0.304415 0.852907 0.035620 0.023961
C15   C     C_R   0.195331 0.360477 0.965399 0.017383
C16   C     C_R   0.804433 0.352965 0.035641 0.022405
C17   C     C_R   0.697717 0.854360 0.041222 0.018574
C18   C     C_R   0.298834 0.853183 0.959845 0.032101
C19   C     C_R   0.197733 0.354328 0.041234 0.019239
C20   C     C_R   0.798864 0.353236 0.959867 0.031243
C21   C     C_R   0.811644 0.952651 0.042560 -0.147361
C22   C     C_R   0.205342 0.002086 0.967602 -0.116648
C23   C     C_R   0.311648 0.452644 0.042564 -0.147983
C24   C     C_R   0.705340 0.502090 0.967605 -0.117603
C25   C     C_R   0.812493 0.949241 0.969403 -0.149421
C26   C     C_R   0.206632 0.994093 0.040668 -0.144404
C27   C     C_R   0.312494 0.449236 0.969406 -0.148356
C28   C     C_R   0.706620 0.494096 0.040670 -0.144068
C29   C     C_R   0.634108 0.819310 0.928988 -0.107293
C30   C     C_R   0.360365 0.787853 0.068052 -0.086898
C31   C     C_R   0.134113 0.319293 0.929005 -0.107538
C32   C     C_R   0.860384 0.287930 0.068087 -0.087185
C33   C     C_R   0.082315 0.256728 0.965500 -0.145397
C34   C     C_R   0.902983 0.213402 0.027603 -0.131286
C35   C     C_R   0.582301 0.756760 0.965477 -0.145709
C36   C     C_R   0.402961 0.713343 0.027550 -0.130749
C37   C     C_R   0.589167 0.738451 0.038811 -0.135313
C38   C     C_R   0.393354 0.705946 0.953948 -0.135304
C39   C     C_R   0.089192 0.238402 0.038833 -0.134691
C40   C     C_R   0.893386 0.205990 0.954002 -0.135435
C41   C     C_R   0.645549 0.788157 0.076680 -0.092365
C42   C     C_R   0.341324 0.773861 0.920220 -0.086435
C43   C     C_R   0.145577 0.288107 0.076700 -0.092917
C44   C     C_R   0.841369 0.273918 0.920258 -0.085440
C45   C     C_R   0.532824 0.155427 0.144613 0.541981
C46   C     C_R   0.466319 0.154916 0.855941 0.552683
C47   C     C_R   0.032853 0.655426 0.144595 0.555530
C48   C     C_R   0.966345 0.654918 0.855925 0.540044
C49   C     C_R   0.752977 0.913153 0.079209 -0.011137
C50   C     C_R   0.250758 0.932730 0.926076 0.012709
C51   C     C_R   0.252987 0.413132 0.079218 -0.013477
C52   C     C_R   0.750773 0.432755 0.926088 0.013139
C53   C     C_R   0.456461 0.157061 0.560118 -0.003241
C54   C     C_R   0.476807 0.159153 0.410524 -0.007900
C55   C     C_R   0.023202 0.659196 0.589502 -0.008013
C56   C     C_R   0.043523 0.657227 0.439897 -0.002984
C57   C     C_R   0.474807 0.051180 0.521822 0.028796
C58   C     C_R   0.466298 0.050310 0.446975 0.040727
C59   C     C_R   0.033647 0.550396 0.552876 0.040400
C60   C     C_R   0.025129 0.551293 0.478031 0.028956
C61   C     C_R   0.456042 0.264429 0.445431 -0.170777
C62   C     C_R   0.440312 0.260696 0.519255 -0.163251
C63   C     C_R   0.059766 0.760825 0.480936 -0.163486
C64   C     C_R   0.044024 0.764516 0.554767 -0.170574
C65   C     C_R   0.505607 0.948109 0.552946 -0.118821
C66   C     C_R   0.462999 0.939445 0.410484 -0.081797
C67   C     C_R   0.036872 0.439546 0.589196 -0.081948
C68   C     C_R   0.994304 0.448165 0.446744 -0.118645
C69   C     C_R   0.006401 0.339365 0.558009 -0.125010
C70   C     C_R   0.982793 0.346271 0.487503 -0.166524
C71   C     C_R   0.517144 0.846280 0.511993 -0.166356
C72   C     C_R   0.493433 0.839290 0.441508 -0.124889
C73   C     C_R   0.754953 0.920468 0.572294 -0.000850
C74   C     C_R   0.262126 0.951196 0.411869 -0.012206
C75   C     C_R   0.238002 0.451055 0.588135 -0.012529
C76   C     C_R   0.745062 0.420663 0.427706 -0.000288
C77   C     C_R   0.810543 0.963443 0.530191 0.040898
C78   C     C_R   0.221176 0.043826 0.440782 0.032169
C79   C     C_R   0.279087 0.543589 0.559305 0.032024
C80   C     C_R   0.689530 0.463775 0.469835 0.041017
C81   C     C_R   0.794349 0.043994 0.475760 0.042121
C82   C     C_R   0.209468 0.039381 0.514606 0.030794
C83   C     C_R   0.290702 0.539175 0.485451 0.030907
C84   C     C_R   0.705834 0.544439 0.524302 0.041731
C85   C     C_R   0.672832 0.978375 0.478691 -0.150906
C86   C     C_R   0.316031 0.919528 0.527494 -0.147769
C87   C     C_R   0.183952 0.419568 0.472485 -0.147492
C88   C     C_R   0.827255 0.478504 0.521367 -0.151103
C89   C     C_R   0.742525 0.966640 0.149874 0.552490
C90   C     C_R   0.258245 0.970826 0.851816 0.540309
C91   C     C_R   0.242530 0.466625 0.149883 0.547979
C92   C     C_R   0.758251 0.470841 0.851825 0.544224
C93   C     C_R   0.685536 0.932282 0.547333 -0.159846
C94   C     C_R   0.311721 0.892645 0.455317 -0.148399
C95   C     C_R   0.188289 0.392626 0.544630 -0.148668
C96   C     C_R   0.814491 0.432350 0.452682 -0.159751
C97   C     C_R   0.880992 0.923179 0.536849 -0.082270
C98   C     C_R   0.178647 0.118276 0.396858 -0.067005
C99   C     C_R   0.321715 0.618100 0.603280 -0.066935
C100  C     C_R   0.619054 0.423438 0.463221 -0.082326
C101  C     C_R   0.932949 0.973787 0.494807 -0.127969
C102  C     C_R   0.113143 0.153987 0.420816 -0.114978
C103  C     C_R   0.387180 0.653968 0.579262 -0.115133
C104  C     C_R   0.567168 0.474108 0.505364 -0.128050
C105  C     C_R   0.916863 0.066251 0.448599 -0.122533
C106  C     C_R   0.093785 0.124120 0.489820 -0.161987
C107  C     C_R   0.406441 0.624064 0.510192 -0.162027
C108  C     C_R   0.583348 0.566797 0.551555 -0.122197
C109  C     C_R   0.849358 0.112682 0.446988 -0.081281
C110  C     C_R   0.141929 0.073764 0.537698 -0.115656
C111  C     C_R   0.358222 0.573602 0.462318 -0.115723
C112  C     C_R   0.650892 0.613218 0.553132 -0.081502
C113  C     C_R   0.728681 0.027997 0.440576 -0.016287
C114  C     C_R   0.262608 0.987002 0.559160 -0.004706
C115  C     C_R   0.237458 0.486916 0.440857 -0.004103
C116  C     C_R   0.771465 0.528281 0.559511 -0.017097
C117  C     C_R   0.728286 0.373693 0.357002 0.528432
C118  C     C_R   0.266015 0.386693 0.650399 0.527717
C119  C     C_R   0.234005 0.886745 0.349588 0.526268
C120  C     C_R   0.771697 0.873655 0.642996 0.529323
C121  C     C_R   0.525878 0.157031 0.348343 0.513575
C122  C     C_R   0.440729 0.153093 0.638291 0.544691
C123  C     C_R   0.059264 0.653227 0.361715 0.544737
C124  C     C_R   0.974135 0.657029 0.651679 0.514132
C125  C     C_R   0.726282 0.031915 0.361911 0.570570
C126  C     C_R   0.269274 0.015789 0.635350 0.551410
C127  C     C_R   0.230766 0.515771 0.364701 0.550906
C128  C     C_R   0.773768 0.531940 0.638175 0.571317
C129  C     C_3   0.547911 0.225324 0.967619 0.115377
C130  C     C_3   0.498073 0.274301 0.023527 0.138180
C131  C     C_3   0.047982 0.725296 0.967577 0.115968
C132  C     C_3   0.998154 0.774310 0.023487 0.137922
C133  C     C_3   0.563139 0.113470 0.013653 -0.091882
C134  C     C_3   0.435151 0.210069 0.987054 -0.107953
C135  C     C_3   0.063194 0.613441 0.013620 -0.094559
C136  C     C_3   0.935220 0.710102 0.987023 -0.105573
C137  C     C_3   0.511361 0.163124 0.069831 0.038080
C138  C     C_3   0.486866 0.160487 0.931123 0.028123
C139  C     C_3   0.011423 0.663129 0.069798 0.035543
C140  C     C_3   0.986922 0.660484 0.931093 0.030694
Cr1   Cr    Cr6+3 0.772820 0.169820 0.252640 0.989274
Cr2   Cr    Cr6+3 0.227180 0.169820 0.747360 0.985342
Cr3   Cr    Cr6+3 0.272820 0.669820 0.252640 0.984285
Cr4   Cr    Cr6+3 0.727180 0.669820 0.747360 0.990258
Cr5   Cr    Cr6+3 0.615040 0.323610 0.249150 0.995874
Cr6   Cr    Cr6+3 0.384960 0.323610 0.750850 1.007057
Cr7   Cr    Cr6+3 0.115040 0.823610 0.249150 1.003616
Cr8   Cr    Cr6+3 0.884960 0.823610 0.750850 0.999537
Cr9   Cr    Cr6+3 0.616720 0.011130 0.250660 1.002478
Cr10  Cr    Cr6+3 0.383280 0.011130 0.749340 0.990957
Cr11  Cr    Cr6+3 0.116720 0.511130 0.250660 0.992503
Cr12  Cr    Cr6+3 0.883280 0.511130 0.749340 1.001077
H1    H     H_    0.616130 0.075336 0.025379 0.138805
H2    H     H_    0.382082 0.245790 0.974319 0.130741
H3    H     H_    0.116180 0.575288 0.025347 0.138933
H4    H     H_    0.882158 0.745856 0.974288 0.130617
H5    H     H_    0.528729 0.947027 0.605882 0.152595
H6    H     H_    0.445609 0.934247 0.355007 0.126924
H7    H     H_    0.054249 0.434362 0.644668 0.127306
H8    H     H_    0.971139 0.447042 0.393819 0.152537
H9    H     H_    0.997964 0.259271 0.589686 0.112428
H10   H     H_    0.953359 0.275210 0.464240 0.108497
H11   H     H_    0.546635 0.775279 0.535074 0.108717
H12   H     H_    0.501766 0.759147 0.409734 0.111795
H13   H     H_    0.621120 0.972380 0.454199 0.168071
H14   H     H_    0.358285 0.881047 0.559187 0.163223
H15   H     H_    0.141579 0.381282 0.440771 0.163177
H16   H     H_    0.878941 0.472329 0.545882 0.168157
H17   H     H_    0.895175 0.847623 0.569938 0.157209
H18   H     H_    0.191289 0.132903 0.341199 0.121751
H19   H     H_    0.309144 0.632788 0.658972 0.122826
H20   H     H_    0.604815 0.347760 0.430112 0.157442
H21   H     H_    0.643053 0.899442 0.579321 0.112681
H22   H     H_    0.344164 0.821449 0.434350 0.156183
H23   H     H_    0.155723 0.321580 0.565548 0.156032
H24   H     H_    0.856909 0.399292 0.420676 0.112781
H25   H     H_    0.986122 0.945299 0.498050 0.117921
H26   H     H_    0.076173 0.198286 0.384837 0.105909
H27   H     H_    0.424198 0.698401 0.615240 0.106400
H28   H     H_    0.513987 0.445473 0.502235 0.117981
H29   H     H_    0.956656 0.101029 0.413379 0.101349
H30   H     H_    0.040962 0.136639 0.506595 0.116386
H31   H     H_    0.459244 0.636622 0.493342 0.116382
H32   H     H_    0.543608 0.601785 0.586790 0.101684
H33   H     H_    0.838916 0.187487 0.412029 0.145008
H34   H     H_    0.121248 0.051344 0.589203 0.149057
H35   H     H_    0.378817 0.551169 0.410750 0.148740
H36   H     H_    0.661386 0.688028 0.588155 0.145376
H37   H     H_    0.408679 0.044662 0.062522 0.123205
H38   H     H_    0.499844 0.953641 0.956456 0.154578
H39   H     H_    0.908719 0.544711 0.062490 0.125893
H40   H     H_    0.999872 0.453636 0.956430 0.154561
H41   H     H_    0.856504 0.991327 0.070550 0.153748
H42   H     H_    0.168164 0.064261 0.943623 0.165257
H43   H     H_    0.356505 0.491329 0.070553 0.153113
H44   H     H_    0.668153 0.564246 0.943620 0.165208
H45   H     H_    0.625277 0.834696 0.872512 0.137787
H46   H     H_    0.373364 0.795227 0.124307 0.134522
H47   H     H_    0.125276 0.334689 0.872529 0.134393
H48   H     H_    0.873377 0.295321 0.124343 0.136950
H49   H     H_    0.861303 0.974714 0.944848 0.163758
H50   H     H_    0.167623 0.043987 0.069778 0.139808
H51   H     H_    0.361303 0.474702 0.944849 0.164058
H52   H     H_    0.667595 0.543970 0.069770 0.140724
H53   H     H_    0.037975 0.219740 0.936151 0.115914
H54   H     H_    0.941387 0.157010 0.054052 0.113574
H55   H     H_    0.537959 0.719777 0.936126 0.116225
H56   H     H_    0.441372 0.656948 0.053986 0.113303
H57   H     H_    0.052325 0.183062 0.066969 0.107649
H58   H     H_    0.925454 0.145613 0.922867 0.108691
H59   H     H_    0.552291 0.683130 0.066948 0.108108
H60   H     H_    0.425425 0.645589 0.922801 0.107759
H61   H     H_    0.649950 0.767852 0.133152 0.132218
H62   H     H_    0.333557 0.760485 0.863343 0.127940
H63   H     H_    0.149989 0.267796 0.133173 0.126105
H64   H     H_    0.833615 0.260535 0.863384 0.134946
O1    O     O_R   0.788190 0.043000 0.172520 -0.518428
O2    O     O_R   0.211810 0.043000 0.827480 -0.521535
O3    O     O_R   0.288190 0.543000 0.172520 -0.518624
O4    O     O_R   0.711810 0.543000 0.827480 -0.520979
O5    O     O_R   0.556550 0.253260 0.323480 -0.518947
O6    O     O_R   0.443450 0.253260 0.676520 -0.487990
O7    O     O_R   0.056550 0.753260 0.323480 -0.488760
O8    O     O_R   0.943450 0.753260 0.676520 -0.518252
O9    O     O_R   0.545830 0.051610 0.330160 -0.536369
O10   O     O_R   0.454170 0.051610 0.669840 -0.540594
O11   O     O_R   0.045830 0.551610 0.330160 -0.541353
O12   O     O_R   0.954170 0.551610 0.669840 -0.535934
O13   O     O_R   0.681920 0.959720 0.327070 -0.491354
O14   O     O_R   0.318080 0.959720 0.672930 -0.519903
O15   O     O_R   0.181920 0.459720 0.327070 -0.521464
O16   O     O_R   0.818080 0.459720 0.672930 -0.489766
O17   O     O_3   0.668190 0.168190 0.250820 -0.272320
O18   O     O_3   0.331810 0.168190 0.749180 -0.272816
O19   O     O_3   0.168190 0.668190 0.250820 -0.270116
O20   O     O_3   0.831810 0.668190 0.749180 -0.275130
O21   O     O_R   0.766240 0.292300 0.176860 -0.508646
O22   O     O_R   0.233760 0.292300 0.823140 -0.511455
O23   O     O_R   0.266240 0.792300 0.176860 -0.512024
O24   O     O_R   0.733760 0.792300 0.823140 -0.508058
O25   O     O_R   0.670310 0.409160 0.168720 -0.522616
O26   O     O_R   0.329690 0.409160 0.831280 -0.532424
O27   O     O_R   0.170310 0.909160 0.168720 -0.531504
O28   O     O_R   0.829690 0.909160 0.831280 -0.523088
O29   O     O_R   0.556160 0.251900 0.173380 -0.505175
O30   O     O_R   0.443840 0.251900 0.826620 -0.497486
O31   O     O_R   0.056160 0.751900 0.173380 -0.499864
O32   O     O_R   0.943840 0.751900 0.826620 -0.502935
O33   O     O_R   0.545410 0.050140 0.168240 -0.520105
O34   O     O_R   0.454590 0.050140 0.831760 -0.520666
O35   O     O_R   0.045410 0.550140 0.168240 -0.513419
O36   O     O_R   0.954590 0.550140 0.831760 -0.527407
O37   O     O_R   0.681530 0.958350 0.176970 -0.504415
O38   O     O_R   0.318470 0.958350 0.823030 -0.505412
O39   O     O_R   0.181530 0.458350 0.176970 -0.505308
O40   O     O_R   0.818470 0.458350 0.823030 -0.504332
O41   O     O_R   0.788610 0.044480 0.334450 -0.517827
O42   O     O_R   0.211390 0.044480 0.665550 -0.532661
O43   O     O_R   0.288610 0.544480 0.334450 -0.534850
O44   O     O_R   0.711390 0.544480 0.665550 -0.515510
O45   O     O_R   0.766630 0.293670 0.326970 -0.546669
O46   O     O_R   0.233370 0.293670 0.673030 -0.524376
O47   O     O_R   0.266630 0.793670 0.326970 -0.525596
O48   O     O_R   0.733370 0.793670 0.673030 -0.545687
O49   O     O_R   0.670730 0.410640 0.330640 -0.517793
O50   O     O_R   0.329270 0.410640 0.669360 -0.525933
O51   O     O_R   0.170730 0.910640 0.330640 -0.526765
O52   O     O_R   0.829270 0.910640 0.669360 -0.516396
H65   H     H_    0.453929 0.348544 0.416284 0.118442
H66   H     H_    0.420311 0.340654 0.545231 0.151600
H67   H     H_    0.079833 0.840786 0.455092 0.151510
H68   H     H_    0.046159 0.848639 0.584043 0.118861
N1    N     N_3   0.601110 0.294971 0.930807 -0.620093
H69   H     H_    0.574958 0.361635 0.901209 0.244341
H70   H     H_    0.625086 0.237637 0.894110 0.222601
N2    N     N_3   0.497273 0.398626 0.048460 -0.646653
H71   H     H_    0.548821 0.421449 0.063635 0.259994
H72   H     H_    0.467403 0.401097 0.094865 0.218628
N3    N     N_3   0.101184 0.794893 0.930736 -0.620966
H73   H     H_    0.075037 0.861559 0.901136 0.242498
H74   H     H_    0.125134 0.737528 0.894036 0.217432
N4    N     N_3   0.997371 0.898646 0.048405 -0.646705
H75   H     H_    0.048921 0.921443 0.063597 0.259804
H76   H     H_    0.967481 0.901152 0.094798 0.220759

loop_
_geom_bond_atom_site_label_1
_geom_bond_atom_site_label_2
_ccdc_geom_bond_type
C99   C103  A    
Cr6   O18   S    
C133  C137  S    
C55   C59   A    
Cr11  O11   S    
C73   C93   A    
C136  C140  S    
C47   O31   A    
C75   C95   A    
C135  C139  S    
N4    H75   S    
C84   C112  A    
C71   H11   S    
Cr10  O10   S    
C128  O44   A    
C79   C99   A    
C5    C6    S    
Cr10  O38   S    
C123  O11   A    
C100  C104  A    
C121  O9    A    
C39   H57   S    
Cr2   O42   S    
C95   H23   S    
C37   H59   S    
C131  C140  S    
C11   C15   A    
C50   C90   S    
C66   C72   A    
C12   C16   A    
C88   H16   S    
C87   C115  A    
C59   C60   A    
C128  O16   A    
C8    C135  S    
C130  C134  S    
C70   H10   S    
C126  O42   A    
C56   C123  S    
Cr3   O23   S    
Cr12  O40   S    
C109  H33   S    
C98   C102  A    
C123  O7    A    
C32   C34   A    
C48   O36   A    
C41   H61   S    
C78   C82   A    
C11   C27   A    
C16   C20   A    
C62   H66   S    
C129  C133  S    
C44   H64   S    
Cr1   O45   S    
C5    C137  S    
Cr12  O20   S    
C54   C61   A    
Cr5   O29   S    
C29   C35   A    
Cr10  O14   S    
C30   C36   A    
C8    C140  S    
C85   H13   S    
C97   H17   S    
C5    H37   S    
C48   O32   A    
C76   C96   A    
C91   O39   A    
C8    H40   S    
C93   H21   S    
N3    H74   S    
C34   C40   A    
C69   C70   A    
C29   H45   S    
Cr5   O5    S    
C26   H50   S    
Cr1   O17   S    
C122  O6    A    
C73   C77   A    
C103  C107  A    
C67   C69   A    
C68   H8    S    
C75   C79   A    
C88   C116  A    
C100  H20   S    
C21   C49   A    
C7    C8    S    
C132  C139  S    
C33   H53   S    
C27   H51   S    
Cr4   O4    S    
C25   H49   S    
C53   C122  S    
C18   C42   A    
C114  C126  S    
Cr9   O37   S    
Cr4   O24   S    
C36   H56   S    
C63   H67   S    
Cr2   O2    S    
C9    C13   A    
C64   H68   S    
C45   O33   A    
C85   C93   A    
C46   O34   A    
C124  O8    A    
C87   C95   A    
C77   C97   A    
C47   O35   A    
Cr1   O1    S    
C90   O38   A    
C84   C116  A    
C1    C12   S    
C2    C11   S    
C127  O15   A    
C20   C44   A    
Cr10  O34   S    
C87   H15   S    
C48   C140  S    
C83   C115  A    
Cr3   O43   S    
C46   O30   A    
C10   C14   A    
C17   C49   A    
C1    O21   A    
Cr9   O17   S    
C132  C136  S    
Cr11  O19   S    
Cr6   O26   S    
C2    O26   A    
C125  O13   A    
C30   H46   S    
C54   C121  S    
C74   C78   A    
C102  H26   S    
C127  O43   A    
C130  N2    S    
Cr12  O36   S    
C129  C130  S    
C105  C109  A    
C110  H34   S    
C107  C111  A    
C76   C80   A    
C67   H7    S    
C15   C31   A    
C16   C32   A    
N4    H76   S    
C13   C17   A    
Cr9   O13   S    
C85   C113  A    
C71   C72   A    
C57   C58   A    
N1    H70   S    
C37   C41   A    
C61   C62   A    
C90   O2    A    
Cr3   O3    S    
C63   C64   A    
C98   H18   S    
C40   C44   A    
N2    H71   S    
C23   H43   S    
Cr8   O28   S    
Cr1   O41   S    
Cr5   O49   S    
C105  H29   S    
C4    C9    S    
C4    O28   A    
C117  O49   A    
Cr12  O16   S    
C24   C52   A    
C132  N4    S    
C88   C96   A    
C120  O52   A    
Cr5   O17   S    
C74   C94   A    
C129  N1    S    
C86   H14   S    
C80   C84   A    
C31   H47   S    
C9    C25   A    
C15   C19   A    
C12   C28   A    
C13   C29   A    
C6    C133  S    
C54   C58   A    
Cr6   O6    S    
C24   H44   S    
C122  O10   A    
C40   H58   S    
C21   C25   A    
C51   C91   S    
N3    H73   S    
C131  N3    S    
C22   C50   A    
C117  O45   A    
C73   C120  S    
C7    H39   S    
C75   C118  S    
C61   H65   S    
C19   C43   A    
Cr9   O33   S    
Cr4   O20   S    
C24   C28   A    
C65   H5    S    
C45   O29   A    
C53   C57   A    
Cr11  O35   S    
C56   C60   A    
C134  C138  S    
C81   C113  A    
C77   C81   A    
C72   H12   S    
C92   O40   A    
C35   H55   S    
C81   C109  A    
C83   C111  A    
C52   C92   S    
Cr3   O47   S    
C131  C132  S    
Cr4   O48   S    
C104  C108  A    
Cr7   O7    S    
C18   C50   A    
Cr2   O22   S    
C55   C124  S    
C96   H24   S    
C126  O14   A    
C57   C65   A    
C4    O24   A    
Cr6   O30   S    
C111  H35   S    
C76   C117  S    
Cr8   O52   S    
C36   C38   A    
C32   H48   S    
Cr10  O18   S    
C79   C83   A    
C134  H2    S    
C103  H27   S    
C101  H25   S    
C108  C112  A    
C7    C136  S    
C113  C125  S    
C60   C68   A    
C22   C26   A    
C47   C139  S    
C121  O5    A    
Cr2   O46   S    
C130  C137  S    
C3    O23   A    
Cr7   O19   S    
Cr9   O9    S    
C14   C18   A    
C43   H63   S    
C135  H3    S    
C34   H54   S    
C74   C119  S    
C33   C39   A    
C133  H1    S    
C82   C110  A    
C35   C37   A    
C69   H9    S    
C38   C42   A    
C131  C135  S    
C136  H4    S    
C99   H19   S    
C125  O41   A    
Cr8   O32   S    
C115  C127  S    
C92   O4    A    
Cr3   O19   S    
Cr6   O50   S    
C106  H30   S    
C86   C94   A    
Cr12  O12   S    
C58   C66   A    
C119  O47   A    
C129  C138  S    
C120  O48   A    
C78   C98   A    
C31   C33   A    
Cr7   O27   S    
C46   C138  S    
C59   C67   A    
C10   C26   A    
Cr7   O31   S    
C118  O50   A    
C80   C100  A    
C14   C30   A    
C108  H32   S    
C124  O12   A    
C101  C105  A    
C5    C134  S    
Cr11  O15   S    
C28   H52   S    
C82   C114  A    
Cr7   O51   S    
C2    O22   A    
C39   C43   A    
C65   C71   A    
C107  H31   S    
Cr8   O20   S    
C6    C138  S    
C42   H62   S    
C53   C62   A    
C23   C51   A    
C118  O46   A    
C38   H60   S    
C119  O51   A    
C55   C64   A    
C6    H38   S    
C45   C137  S    
N1    H69   S    
C56   C63   A    
Cr5   O25   S    
C3    O27   A    
C1    O25   A    
C94   H22   S    
N2    H72   S    
C23   C27   A    
C66   H6    S    
Cr11  O39   S    
C106  C110  A    
Cr1   O21   S    
C49   C89   S    
C112  H36   S    
C86   C114  A    
C21   H41   S    
Cr8   O8    S    
C20   C52   A    
C3    C10   S    
C7    C139  S    
C104  H28   S    
C102  C106  A    
C91   O3    A    
Cr4   O44   S    
C17   C41   A    
C89   O1    A    
C19   C51   A    
Cr2   O18   S    
C68   C70   A    
C116  C128  S    
C22   H42   S    
C89   O37   A    
C97   C101  A    
