data_mof_unit_34096.cif
_audit_creation_date              2012-10-26T19:09:31-0400
_audit_creation_method            fapswitch 2.2
_symmetry_space_group_name_H-M    P1
_symmetry_Int_Tables_number       1
_space_group_crystal_system       triclinic
_cell_length_a                    10.929287
_cell_length_b                    9.524306
_cell_length_c                    19.363855
_cell_angle_alpha                 90.002381
_cell_angle_beta                  93.227289
_cell_angle_gamma                 90.000263
_cell_volume                      2012.46197045

loop_
_atom_site_label
_atom_site_type_symbol
_atom_type_description
_atom_site_fract_x
_atom_site_fract_y
_atom_site_fract_z
_atom_type_partial_charge
C1    C     C_R   0.262596 0.500098 0.504757 0.580499
C2    C     C_R   0.063232 0.628985 0.506678 0.222367
C3    C     C_R   0.871515 0.500549 0.491409 -0.068902
C4    C     C_R   0.128486 0.500551 0.508594 -0.068899
C5    C     C_R   0.420685 0.074208 0.456134 0.388747
C6    C     C_R   0.577852 0.925655 0.544683 0.386954
C7    C     C_R   0.579313 0.074216 0.543867 0.388757
C8    C     C_R   0.422147 0.925647 0.455317 0.386940
C9    C     C_R   0.555480 0.631808 0.257801 0.206588
C10   C     C_R   0.481936 0.378821 0.749725 0.204370
C11   C     C_R   0.444582 0.631819 0.742214 0.206587
C12   C     C_R   0.737404 0.500098 0.495244 0.580488
C13   C     C_R   0.518120 0.378809 0.250272 0.204372
C14   C     C_R   0.552778 0.640329 0.184982 -0.006998
C15   C     C_R   0.485792 0.386902 0.822595 -0.005362
C16   C     C_R   0.447317 0.640338 0.815034 -0.007027
C17   C     C_R   0.514361 0.386885 0.177403 -0.005352
C18   C     C_R   0.526381 0.518820 0.145271 -0.016067
C19   C     C_R   0.473788 0.518838 0.854738 -0.016113
C20   C     C_R   0.526969 0.503161 0.291015 0.013674
C21   C     C_R   0.473068 0.503173 0.708988 0.013690
C22   C     C_3   0.580848 0.778655 0.149489 -0.219594
C23   C     C_R   0.487290 0.528600 0.930338 0.322450
C24   C     C_3   0.719070 0.793560 0.141063 -0.265680
C25   C     C_3   0.747244 0.920266 0.096557 -0.440688
C26   C     C_3   0.503362 0.254165 0.866257 -0.221738
C27   C     C_3   0.639066 0.212972 0.873940 -0.267115
C28   C     C_3   0.659148 0.091048 0.924337 -0.449427
C29   C     C_3   0.419268 0.778669 0.850535 -0.219515
C30   C     C_3   0.281035 0.793664 0.858908 -0.265503
C31   C     C_3   0.252900 0.920111 0.903600 -0.440744
C32   C     C_3   0.496799 0.254158 0.133727 -0.221803
C33   C     C_3   0.361066 0.213150 0.125904 -0.267271
C34   C     C_R   0.512940 0.528586 0.069675 0.322429
C35   C     C_3   0.341055 0.091053 0.075598 -0.449437
C36   C     C_R   0.509139 0.500271 0.367343 0.583688
C37   C     C_R   0.490866 0.500276 0.632657 0.583683
C38   C     C_R   0.063025 0.372454 0.507257 0.223146
C39   C     C_R   0.936770 0.628984 0.493326 0.222371
C40   C     C_R   0.936975 0.372452 0.492749 0.223143
Cl1   Cl    Cl    0.132106 0.209781 0.531710 -0.327207
Cl2   Cl    Cl    0.677653 0.837179 0.604754 -0.376480
Cl3   Cl    Cl    0.686073 0.162256 0.600133 -0.360003
Cl4   Cl    Cl    0.322343 0.837162 0.395247 -0.376454
Cl5   Cl    Cl    0.866531 0.792661 0.471650 -0.316376
Cl6   Cl    Cl    0.867894 0.209773 0.468299 -0.327217
Cl7   Cl    Cl    0.133472 0.792665 0.528355 -0.316400
Cl8   Cl    Cl    0.606495 0.781815 0.306036 -0.486775
Cl9   Cl    Cl    0.477546 0.209646 0.711473 -0.496856
Cl10  Cl    Cl    0.393587 0.781842 0.693992 -0.486821
Cl11  Cl    Cl    0.522366 0.209635 0.288515 -0.496834
Cl12  Cl    Cl    0.313916 0.162238 0.399874 -0.359903
Cu1   Cu    Cu3+1 0.500000 0.640660 0.500000 1.235918
Cu2   Cu    Cu3+1 0.500000 0.359340 0.500000 1.231987
H1    H     H_    0.702231 0.907994 0.044083 0.152711
H2    H     H_    0.757989 0.063538 0.928987 0.163441
H3    H     H_    0.671904 0.182060 0.822838 0.230969
H4    H     H_    0.694604 0.303838 0.893474 0.192515
H5    H     H_    0.467436 0.267790 0.918320 0.144829
H6    H     H_    0.448655 0.166046 0.843326 0.188172
H7    H     H_    0.297724 0.907393 0.956093 0.152969
H8    H     H_    0.285768 0.018164 0.879881 0.164845
H9    H     H_    0.152405 0.928407 0.908400 0.165303
H10   H     H_    0.232248 0.805923 0.807373 0.230404
H11   H     H_    0.245071 0.697927 0.883532 0.190967
H12   H     H_    0.714612 0.018211 0.120488 0.165128
H13   H     H_    0.469265 0.786096 0.901922 0.137150
H14   H     H_    0.453305 0.869396 0.821134 0.208808
H15   H     H_    0.371126 0.120677 0.023706 0.145280
H16   H     H_    0.393337 0.997572 0.094577 0.155110
H17   H     H_    0.242182 0.063727 0.070816 0.163408
H18   H     H_    0.327980 0.182498 0.176985 0.230891
H19   H     H_    0.305711 0.304030 0.106217 0.192431
H20   H     H_    0.532906 0.267730 0.081707 0.144873
H21   H     H_    0.551347 0.165968 0.156705 0.188249
H22   H     H_    0.847724 0.928420 0.091664 0.165321
H23   H     H_    0.767955 0.805441 0.192595 0.230361
H24   H     H_    0.754884 0.697938 0.116263 0.190910
H25   H     H_    0.530801 0.786122 0.098118 0.137129
H26   H     H_    0.546893 0.869395 0.178915 0.208916
H27   H     H_    0.629393 0.120963 0.976257 0.145425
H28   H     H_    0.606638 0.997595 0.905531 0.154918
N1    N     N_R   0.500000 0.852070 0.500000 -0.274131
N2    N     N_R   0.500000 0.147930 0.500000 -0.281227
N3    N     N_R   0.613136 0.528403 0.031501 -0.241587
N4    N     N_R   0.387097 0.529301 0.968513 -0.241560
N5    N     N_R   0.600458 0.528517 0.962799 -0.234362
N6    N     N_R   0.399774 0.529404 0.037215 -0.234377
O1    O     O_R   0.319640 0.618740 0.500000 -0.439920
O2    O     O_R   0.680360 0.381260 0.500000 -0.443952
O3    O     O_R   0.680360 0.618740 0.500000 -0.439915
O4    O     O_R   0.319640 0.381260 0.500000 -0.443942
O5    O     O_R   0.499980 0.618820 0.400140 -0.437733
O6    O     O_R   0.500020 0.381180 0.599860 -0.436637
O7    O     O_R   0.500020 0.618820 0.599860 -0.437733
O8    O     O_R   0.499980 0.381180 0.400140 -0.436643

loop_
_geom_bond_atom_site_label_1
_geom_bond_atom_site_label_2
_ccdc_geom_bond_type
C30   H10   S    
Cu1   O7    S    
C8    N1    A    
C14   C18   A    
C12   O3    A    
C2    C4    A    
C32   H21   S    
Cu2   N2    S    
C28   H2    S    
Cu1   Cu2   S    
C15   C19   A    
C26   C27   S    
C12   O2    A    
C22   H25   S    
Cu2   O2    S    
C10   C15   A    
C32   H20   S    
C30   C31   S    
N4    N6    A    
C37   O7    A    
C31   H7    S    
C3    C12   S    
C33   H18   S    
C13   Cl11  S    
C36   O5    A    
C35   H16   S    
C23   N4    A    
Cu1   O3    S    
C5    Cl12  S    
C7    Cl3   S    
C26   H5    S    
Cu2   O8    S    
C39   Cl5   S    
C7    N2    A    
C35   H17   S    
C29   H13   S    
C31   H8    S    
C2    C39   A    
N3    N5    A    
C10   C21   A    
C28   H28   S    
C31   H9    S    
C24   C25   S    
C38   Cl1   S    
C27   H3    S    
C5    N2    A    
C15   C26   S    
C16   C29   S    
Cu1   O5    S    
C11   C21   A    
C34   N3    A    
C19   C23   S    
C9    C14   A    
Cu2   O4    S    
C29   C30   S    
C29   H14   S    
C11   C16   A    
C36   O8    A    
C9    C20   A    
C17   C18   A    
C34   N6    A    
C18   C34   S    
C24   H24   S    
C4    C38   A    
C3    C40   A    
C1    O4    A    
Cu1   O1    S    
C22   C24   S    
C40   Cl6   S    
C33   H19   S    
C1    O1    A    
C6    N1    A    
C13   C20   A    
C28   H27   S    
C25   H12   S    
C8    Cl4   S    
C27   H4    S    
C5    C8    A    
C6    C7    A    
C2    Cl7   S    
C13   C17   A    
Cu1   N1    S    
C25   H22   S    
C32   C33   S    
C1    C4    S    
C22   H26   S    
C11   Cl10  S    
C38   C40   A    
C14   C22   S    
C16   C19   A    
C33   C35   S    
C25   H1    S    
C37   O6    A    
Cu2   O6    S    
C30   H11   S    
C3    C39   A    
C20   C36   S    
C24   H23   S    
C21   C37   S    
C35   H15   S    
C9    Cl8   S    
C6    Cl2   S    
C27   C28   S    
C17   C32   S    
C23   N5    A    
C10   Cl9   S    
C26   H6    S    
