data_mof_unit_57908.cif
_audit_creation_date              2012-12-10T20:53:10-0500
_audit_creation_method            fapswitch 2.2
_symmetry_space_group_name_H-M    P1
_symmetry_Int_Tables_number       1
_space_group_crystal_system       triclinic
_cell_length_a                    18.34931
_cell_length_b                    18.349384
_cell_length_c                    18.349391
_cell_angle_alpha                 59.903695
_cell_angle_beta                  59.903729
_cell_angle_gamma                 59.903773
_cell_volume                      4359.11544657

loop_
_atom_site_label
_atom_site_type_symbol
_atom_type_description
_atom_site_fract_x
_atom_site_fract_y
_atom_site_fract_z
_atom_type_partial_charge
C1    C     C_R   0.389922 0.110128 0.110182 0.781480
C2    C     C_R   0.339537 0.829444 0.850202 -0.142598
C3    C     C_R   0.912349 0.556896 0.033116 0.075669
C4    C     C_R   0.443095 0.966888 0.087647 0.075667
C5    C     C_R   0.556903 0.033112 0.912352 0.075669
C6    C     C_R   0.946068 0.945858 0.553802 -0.151967
C7    C     C_R   0.053932 0.054142 0.446198 -0.151968
C8    C     C_R   0.945858 0.553802 0.946068 -0.151966
C9    C     C_R   0.054142 0.446198 0.053932 -0.151966
C10   C     C_R   0.553801 0.946069 0.945858 -0.151975
C11   C     C_R   0.446198 0.053932 0.054142 -0.151973
C12   C     C_R   0.170547 0.149772 0.660473 -0.142580
C13   C     C_R   0.829452 0.850235 0.339519 -0.142578
C14   C     C_R   0.126634 0.615283 0.262748 -0.139148
C15   C     C_R   0.873373 0.384712 0.737256 -0.139151
C16   C     C_R   0.615249 0.262739 0.126651 -0.139066
C17   C     C_R   0.384779 0.737264 0.873326 -0.139016
C18   C     C_R   0.262729 0.126653 0.615235 -0.139031
C19   C     C_R   0.737269 0.873356 0.384755 -0.139047
C20   C     C_R   0.048994 0.591836 0.309497 0.153151
C21   C     C_R   0.610078 0.889872 0.889817 0.781477
C22   C     C_R   0.951011 0.408164 0.690503 0.153146
C23   C     C_R   0.591837 0.309497 0.048990 0.153181
C24   C     C_R   0.408163 0.690502 0.951005 0.153199
C25   C     C_R   0.309496 0.048983 0.591836 0.153176
C26   C     C_R   0.690504 0.951019 0.408164 0.153172
C27   C     C_R   0.994249 0.614880 0.263434 -0.191600
C28   C     C_R   0.005756 0.385126 0.736563 -0.191600
C29   C     C_R   0.614921 0.263443 0.994219 -0.191704
C30   C     C_R   0.385046 0.736551 0.005793 -0.191762
C31   C     C_R   0.263453 0.994197 0.614935 -0.191739
C32   C     C_R   0.110128 0.110182 0.389922 0.781476
C33   C     C_R   0.736550 0.005797 0.385077 -0.191720
C34   C     C_R   0.017615 0.660014 0.171236 -0.122628
C35   C     C_R   0.982394 0.339994 0.828761 -0.122626
C36   C     C_R   0.660060 0.171246 0.017581 -0.122651
C37   C     C_R   0.339901 0.828747 0.982434 -0.122656
C38   C     C_R   0.171256 0.017550 0.660076 -0.122637
C39   C     C_R   0.828748 0.982443 0.339939 -0.122642
C40   C     C_R   0.095414 0.682739 0.124736 0.250303
C41   C     C_R   0.904597 0.317264 0.875264 0.250303
C42   C     C_R   0.682750 0.124738 0.095400 0.250322
C43   C     C_R   0.889872 0.889817 0.610078 0.781476
C44   C     C_R   0.317238 0.875259 0.904598 0.250338
C45   C     C_R   0.124738 0.095378 0.682754 0.250330
C46   C     C_R   0.875263 0.904621 0.317251 0.250323
C47   C     C_R   0.972257 0.593094 0.462791 -0.253590
C48   C     C_R   0.027744 0.406906 0.537209 -0.253593
C49   C     C_R   0.593095 0.462791 0.972246 -0.253570
C50   C     C_R   0.406906 0.537209 0.027751 -0.253570
C51   C     C_R   0.462791 0.972248 0.593094 -0.253586
C52   C     C_R   0.537210 0.027755 0.406906 -0.253580
C53   C     C_R   0.946398 0.551965 0.555563 -0.062503
C54   C     C_R   0.110183 0.389922 0.110128 0.781481
C55   C     C_R   0.053603 0.448034 0.444437 -0.062502
C56   C     C_R   0.551966 0.555563 0.946391 -0.062515
C57   C     C_R   0.448035 0.444436 0.053607 -0.062513
C58   C     C_R   0.555563 0.946395 0.551965 -0.062507
C59   C     C_R   0.444437 0.053607 0.448034 -0.062509
C60   C     C_R   0.974690 0.457414 0.593340 -0.002091
C61   C     C_R   0.025311 0.542586 0.406660 -0.002093
C62   C     C_R   0.457414 0.593340 0.974689 -0.002101
C63   C     C_R   0.542586 0.406660 0.025307 -0.002098
C64   C     C_R   0.593340 0.974696 0.457414 -0.002092
C65   C     C_R   0.889817 0.610078 0.889872 0.781482
C66   C     C_R   0.406660 0.025307 0.542585 -0.002092
C67   C     C_R   0.109825 0.390558 0.389643 0.789816
C68   C     C_R   0.890175 0.609442 0.610357 0.789816
C69   C     C_R   0.390558 0.389643 0.109826 0.789821
C70   C     C_R   0.609442 0.610357 0.890173 0.789820
C71   C     C_R   0.389643 0.109826 0.390557 0.789818
C72   C     C_R   0.610357 0.890174 0.609442 0.789817
C73   C     C_R   0.931771 0.175713 0.388408 -0.135002
C74   C     C_R   0.068229 0.824287 0.611594 -0.135002
C75   C     C_R   0.175719 0.388417 0.931767 -0.135001
C76   C     C_R   0.149766 0.660514 0.170564 -0.142606
C77   C     C_R   0.824282 0.611585 0.068232 -0.135003
C78   C     C_R   0.388398 0.931776 0.175709 -0.135000
C79   C     C_R   0.611600 0.068226 0.824289 -0.135000
C80   C     C_R   0.845805 0.207955 0.386391 -0.126901
C81   C     C_R   0.154193 0.792046 0.613612 -0.126905
C82   C     C_R   0.207963 0.386405 0.845800 -0.126890
C83   C     C_R   0.792038 0.613598 0.154199 -0.126889
C84   C     C_R   0.386375 0.845814 0.207949 -0.126906
C85   C     C_R   0.613621 0.154188 0.792049 -0.126899
C86   C     C_R   0.792475 0.154207 0.439486 -0.164248
C87   C     C_R   0.850244 0.339483 0.829439 -0.142599
C88   C     C_R   0.207523 0.845795 0.560517 -0.164245
C89   C     C_R   0.154215 0.439500 0.792469 -0.164243
C90   C     C_R   0.845786 0.560502 0.207529 -0.164239
C91   C     C_R   0.439468 0.792484 0.154200 -0.164241
C92   C     C_R   0.560527 0.207518 0.845797 -0.164246
C93   C     C_R   0.824795 0.067994 0.494942 -0.164699
C94   C     C_R   0.175204 0.932007 0.505060 -0.164688
C95   C     C_R   0.067999 0.494952 0.824791 -0.164744
C96   C     C_R   0.932001 0.505049 0.175209 -0.164739
C97   C     C_R   0.494930 0.824801 0.067989 -0.164673
C98   C     C_R   0.660485 0.170558 0.149778 -0.142597
C99   C     C_R   0.505067 0.175201 0.932009 -0.164702
C100  C     C_R   0.912563 0.033034 0.497243 0.079553
C101  C     C_R   0.087437 0.966966 0.502758 0.079552
C102  C     C_R   0.033038 0.497248 0.912561 0.079555
C103  C     C_R   0.966963 0.502753 0.087439 0.079554
C104  C     C_R   0.497237 0.912566 0.033032 0.079550
C105  C     C_R   0.502762 0.087435 0.966967 0.079553
C106  C     C_R   0.966886 0.087649 0.443101 0.075669
C107  C     C_R   0.033114 0.912351 0.556900 0.075668
C108  C     C_R   0.087652 0.443105 0.966883 0.075670
H1    H     H_    0.274571 0.820334 0.561661 0.130877
H2    H     H_    0.334658 0.566767 0.048843 0.183135
H3    H     H_    0.433233 0.951157 0.665341 0.183114
H4    H     H_    0.566768 0.048847 0.334659 0.183120
H5    H     H_    0.969655 0.221052 0.347241 0.131535
H6    H     H_    0.030345 0.778949 0.652760 0.131536
H7    H     H_    0.221057 0.347250 0.969652 0.131529
H8    H     H_    0.778945 0.652753 0.030346 0.131532
H9    H     H_    0.347232 0.969659 0.221048 0.131541
H10   H     H_    0.652766 0.030342 0.778950 0.131539
H11   H     H_    0.820215 0.275259 0.343995 0.140222
H12   H     H_    0.725426 0.179668 0.438344 0.130877
H13   H     H_    0.179783 0.724743 0.656010 0.140223
H14   H     H_    0.275269 0.344012 0.820208 0.140216
H15   H     H_    0.724733 0.655993 0.179789 0.140216
H16   H     H_    0.343974 0.820226 0.275251 0.140222
H17   H     H_    0.656022 0.179777 0.724746 0.140221
H18   H     H_    0.779757 0.029790 0.536238 0.134273
H19   H     H_    0.220242 0.970210 0.463764 0.134274
H20   H     H_    0.029796 0.536248 0.779753 0.134261
H21   H     H_    0.970204 0.463752 0.220246 0.134260
H22   H     H_    0.536225 0.779763 0.029787 0.134278
H23   H     H_    0.820323 0.561641 0.274579 0.130877
H24   H     H_    0.463771 0.220238 0.970212 0.134276
H25   H     H_    0.209802 0.678301 0.134849 0.148929
H26   H     H_    0.790210 0.321692 0.865158 0.148934
H27   H     H_    0.678247 0.134836 0.209829 0.148903
H28   H     H_    0.321795 0.865169 0.790139 0.148880
H29   H     H_    0.134817 0.209829 0.678225 0.148895
H30   H     H_    0.865180 0.790182 0.321760 0.148901
H31   H     H_    0.169293 0.598059 0.297604 0.130196
H32   H     H_    0.830713 0.401932 0.702402 0.130199
H33   H     H_    0.597994 0.297589 0.169329 0.130168
H34   H     H_    0.179678 0.438361 0.725419 0.130877
H35   H     H_    0.402060 0.702418 0.830634 0.130144
H36   H     H_    0.297570 0.169344 0.597967 0.130155
H37   H     H_    0.702425 0.830671 0.402012 0.130164
H38   H     H_    0.934102 0.597256 0.298811 0.127053
H39   H     H_    0.065901 0.402754 0.701183 0.127051
H40   H     H_    0.597327 0.298827 0.934055 0.127069
H41   H     H_    0.402618 0.701164 0.065971 0.127081
H42   H     H_    0.298845 0.934026 0.597350 0.127076
H43   H     H_    0.701160 0.065963 0.402670 0.127073
H44   H     H_    0.975407 0.677104 0.135995 0.170321
H45   H     H_    0.561674 0.274565 0.820337 0.130875
H46   H     H_    0.024602 0.322908 0.863999 0.170321
H47   H     H_    0.677183 0.136013 0.975352 0.170334
H48   H     H_    0.322752 0.863976 0.024677 0.170338
H49   H     H_    0.136031 0.975308 0.677211 0.170337
H50   H     H_    0.863975 0.024678 0.322814 0.170336
H51   H     H_    0.438321 0.725438 0.179660 0.130874
H52   H     H_    0.951171 0.665341 0.433233 0.183117
H53   H     H_    0.048829 0.334659 0.566767 0.183114
H54   H     H_    0.665342 0.433233 0.951154 0.183132
I1    I     I_    0.130754 0.750517 0.985667 -0.342471
I2    I     I_    0.869262 0.249488 0.014334 -0.342475
I3    I     I_    0.750539 0.985671 0.130731 -0.342446
I4    I     I_    0.249439 0.014324 0.869271 -0.342421
I5    I     I_    0.985671 0.130694 0.750547 -0.342456
I6    I     I_    0.014331 0.869300 0.249464 -0.342475
O1    O     O_3   0.250000 0.250000 0.250000 -0.486830
O2    O     O_R   0.865800 0.694910 0.573470 -0.642273
O3    O     O_R   0.305090 0.426530 0.134200 -0.642265
O4    O     O_R   0.694910 0.573470 0.865800 -0.642264
O5    O     O_R   0.426530 0.134200 0.305090 -0.642269
O6    O     O_R   0.573470 0.865800 0.694910 -0.642273
O7    O     O_R   0.134190 0.426530 0.134200 -0.635696
O8    O     O_R   0.865810 0.573470 0.865800 -0.635695
O9    O     O_R   0.426530 0.134200 0.134190 -0.635692
O10   O     O_R   0.573470 0.865800 0.865810 -0.635690
O11   O     O_R   0.134200 0.134190 0.426530 -0.635690
O12   O     O_3   0.750000 0.750000 0.750000 -0.486830
O13   O     O_R   0.865800 0.865810 0.573470 -0.635690
O14   O     O_R   0.426530 0.305080 0.134210 -0.638875
O15   O     O_R   0.573470 0.694920 0.865790 -0.638878
O16   O     O_R   0.305080 0.134210 0.426530 -0.638875
O17   O     O_R   0.694920 0.865790 0.573470 -0.638873
O18   O     O_R   0.134210 0.426530 0.305080 -0.638870
O19   O     O_R   0.865790 0.573470 0.694920 -0.638869
O20   O     O_R   0.305080 0.134200 0.134200 -0.634568
O21   O     O_R   0.694920 0.865800 0.865800 -0.634568
O22   O     O_R   0.134200 0.134200 0.305080 -0.634569
O23   O     O_R   0.865800 0.865800 0.694920 -0.634569
O24   O     O_R   0.134200 0.305080 0.134200 -0.634566
O25   O     O_R   0.865800 0.694920 0.865800 -0.634568
O26   O     O_R   0.134200 0.305090 0.426530 -0.642274
Zn1   Zn    Zn3+2 0.206620 0.206630 0.380140 0.963060
Zn2   Zn    Zn3+2 0.793380 0.793370 0.619860 0.963060
Zn3   Zn    Zn3+2 0.206630 0.380140 0.206620 0.963063
Zn4   Zn    Zn3+2 0.793370 0.619860 0.793380 0.963062
Zn5   Zn    Zn3+2 0.380140 0.206620 0.206630 0.963063
Zn6   Zn    Zn3+2 0.619860 0.793380 0.793370 0.963063
Zn7   Zn    Zn3+2 0.206620 0.206620 0.206620 0.970701
Zn8   Zn    Zn3+2 0.793380 0.793380 0.793380 0.970701

loop_
_geom_bond_atom_site_label_1
_geom_bond_atom_site_label_2
_ccdc_geom_bond_type
C25   C31   A    
C48   C55   A    
C101  C107  A    
C84   H16   S    
C49   C63   A    
O9    Zn5   S    
O5    Zn5   S    
C36   C42   A    
C1    C11   S    
C35   H46   S    
C67   O18   A    
C58   C72   S    
C29   H40   S    
O1    Zn1   S    
O11   Zn1   S    
C94   H19   S    
C9    C108  A    
C29   C36   A    
C33   C39   A    
C82   C89   A    
C46   I6    S    
C99   H24   S    
C34   C40   A    
C23   C29   A    
O1    Zn3   S    
C86   C93   A    
C97   H22   S    
O12   Zn8   S    
C42   C98   A    
C59   C66   A    
C22   C60   S    
C13   C46   A    
C52   H4    S    
C89   H34   S    
C74   H6    S    
C79   H10   S    
C4    C104  A    
O20   Zn7   S    
C50   H2    S    
C73   H5    S    
C69   O3    A    
C20   C61   S    
C19   C26   A    
C53   C68   S    
C70   O4    A    
C93   H18   S    
O7    Zn3   S    
C38   C45   A    
C80   C86   A    
C74   C107  A    
C25   C66   S    
C68   O2    A    
C95   H20   S    
C85   C92   A    
C15   C22   A    
C94   C101  A    
C2    C44   A    
C11   C105  A    
C51   H3    S    
O24   Zn7   S    
O18   Zn3   S    
O4    Zn4   S    
C92   H45   S    
O23   Zn8   S    
C72   O6    A    
C5    C79   A    
C77   H8    S    
C91   H51   S    
O12   Zn2   S    
C95   C102  A    
C9    C103  A    
C69   O14   A    
O1    Zn5   S    
C48   C60   A    
C23   C63   S    
O26   Zn1   S    
C80   H11   S    
C43   O23   A    
C8    C65   S    
C27   C34   A    
C22   C28   A    
C71   O5    A    
C2    C17   A    
C87   H26   S    
C18   C25   A    
C1    O9    A    
C41   C87   A    
C53   C60   A    
C57   C63   A    
C65   O25   A    
C47   H52   S    
C10   C21   S    
C58   C64   A    
C99   C105  A    
C88   C94   A    
C17   C24   A    
C13   C19   A    
O19   Zn4   S    
C97   C104  A    
C14   C20   A    
C78   H9    S    
C28   C35   A    
C40   I1    S    
C3    C8    A    
C52   C64   A    
C31   H42   S    
C34   H44   S    
C30   H41   S    
C5    C105  A    
C48   H53   S    
C98   H27   S    
C43   O13   A    
C2    H28   S    
O25   Zn8   S    
C40   C76   A    
C30   C37   A    
C81   H13   S    
C51   C66   A    
C14   C76   A    
C54   O7    A    
C89   C95   A    
C4    C78   A    
O12   Zn6   S    
C52   C59   A    
C26   C33   A    
C21   O21   A    
C6    C107  A    
C7    C106  A    
C32   O22   A    
C75   C82   A    
C51   C58   A    
C19   H37   S    
C91   C97   A    
C4    C11   A    
C102  C108  A    
C45   I5    S    
C93   C100  A    
C49   H54   S    
C54   O24   A    
C39   C46   A    
C90   H23   S    
C21   O10   A    
C84   C91   A    
C37   H48   S    
C16   C23   A    
C56   C70   S    
C6    C43   S    
C39   H50   S    
C33   H43   S    
C50   C62   A    
C56   C62   A    
C96   C103  A    
C75   H7    S    
C88   H1    S    
C74   C81   A    
C67   O26   A    
C79   C85   A    
C15   C87   A    
C15   H32   S    
C1    O20   A    
C3    C103  A    
C83   C90   A    
O10   Zn6   S    
C28   H39   S    
C24   C62   S    
C7    C32   S    
C85   H17   S    
C50   C57   A    
C100  C106  A    
C71   O16   A    
O14   Zn5   S    
C38   H49   S    
O8    Zn4   S    
C12   C45   A    
C47   C61   A    
C55   C67   S    
C76   H25   S    
C42   I3    S    
O22   Zn7   S    
C90   C96   A    
C20   C27   A    
C26   C64   S    
O21   Zn8   S    
O13   Zn2   S    
O16   Zn1   S    
O6    Zn6   S    
O15   Zn6   S    
C31   C38   A    
C47   C53   A    
C17   H35   S    
C57   C69   S    
C13   H30   S    
C37   C44   A    
C18   H36   S    
C16   H33   S    
C5    C10   A    
C65   O8    A    
C49   C56   A    
O2    Zn2   S    
C16   C98   A    
C73   C106  A    
C27   H38   S    
C55   C61   A    
C10   C104  A    
C73   C80   A    
C6    C100  A    
C35   C41   A    
C24   C30   A    
C72   O17   A    
C81   C88   A    
O12   Zn4   S    
C44   I4    S    
O1    Zn7   S    
C68   O19   A    
C78   C84   A    
C70   O15   A    
C75   C108  A    
C14   H31   S    
C36   H47   S    
O3    Zn3   S    
C7    C101  A    
C41   I2    S    
C12   C18   A    
C77   C83   A    
C12   H29   S    
C86   H12   S    
C9    C54   S    
O17   Zn2   S    
C32   O11   A    
C83   H15   S    
C8    C102  A    
C82   H14   S    
C92   C99   A    
C59   C71   S    
C96   H21   S    
C3    C77   A    
