data_mof_unit_52513.cif
_audit_creation_date              2012-12-10T17:32:58-0500
_audit_creation_method            fapswitch 2.2
_symmetry_space_group_name_H-M    P1
_symmetry_Int_Tables_number       1
_space_group_crystal_system       triclinic
_cell_length_a                    12.403453
_cell_length_b                    13.229071
_cell_length_c                    14.280816
_cell_angle_alpha                 95.018492
_cell_angle_beta                  107.82134
_cell_angle_gamma                 117.116634
_cell_volume                      1913.07111042

loop_
_atom_site_label
_atom_site_type_symbol
_atom_type_description
_atom_site_fract_x
_atom_site_fract_y
_atom_site_fract_z
_atom_type_partial_charge
C1    C     C_R   0.650633 0.715095 0.509200 0.843614
C2    C     C_R   0.843684 0.499336 0.923367 0.060591
C3    C     C_R   0.812765 0.542904 0.999610 0.084759
C4    C     C_R   0.938824 0.463507 0.950453 0.035384
C5    C     C_R   0.015666 0.486329 0.055461 0.065010
C6    C     C_R   0.978039 0.525015 0.130126 0.126238
C7    C     C_R   0.879575 0.553633 0.101288 -0.245248
C8    C     C_R   0.955402 0.400975 0.875394 -0.199240
C9    C     C_R   0.049453 0.368001 0.901408 -0.216676
C10   C     C_R   0.133933 0.399540 0.002503 0.148042
C11   C     C_R   0.121810 0.463227 0.080140 0.094243
C12   C     C_R   0.617806 0.516455 0.686933 0.852828
C13   C     C_R   0.230749 0.367633 0.026845 -0.165653
C14   C     C_R   0.314882 0.396629 0.128002 -0.158683
C15   C     C_R   0.218910 0.503761 0.179017 -0.201471
C16   C     C_R   0.152920 0.953344 0.383514 0.176364
C17   C     C_R   0.252443 0.159927 0.468279 -0.097054
C18   C     C_R   0.747242 0.929625 0.591484 0.157274
C19   C     C_R   0.861603 0.038853 0.634739 -0.207850
C20   C     C_R   0.969124 0.064806 0.609025 0.123320
C21   C     C_R   0.955105 0.986989 0.524558 0.106539
C22   C     C_R   0.839670 0.873942 0.481566 0.017184
C23   C     C_R   0.345227 0.284582 0.484580 0.811389
C24   C     C_R   0.053187 0.015470 0.483406 0.058998
C25   C     C_R   0.047302 0.926906 0.414755 0.135020
C26   C     C_R   0.932298 0.816690 0.373359 -0.178613
C27   C     C_R   0.826983 0.794289 0.400507 -0.148092
C28   C     C_R   0.150224 0.131805 0.501208 -0.206102
C29   C     C_R   0.257297 0.070247 0.413374 -0.212816
C30   C     C_R   0.741044 0.841454 0.522376 -0.152024
C31   C     C_R   0.244184 0.621680 0.696655 -0.267202
C32   C     C_R   0.651976 0.349658 0.353932 0.021970
C33   C     C_R   0.721869 0.305336 0.323769 -0.228409
C34   C     C_R   0.381473 0.482727 0.313061 0.782364
C35   C     C_R   0.854630 0.349172 0.382057 0.154164
C36   C     C_R   0.922040 0.445638 0.470726 -0.081875
C37   C     C_R   0.843448 0.482822 0.504364 0.210359
C38   C     C_R   0.062517 0.503737 0.530840 -0.035372
C39   C     C_R   0.110195 0.564036 0.633935 0.132917
C40   C     C_R   0.026208 0.575523 0.672745 -0.295583
C41   C     C_R   0.907937 0.559866 0.606418 0.170393
C42   C     C_R   0.159350 0.508205 0.494435 0.020242
C43   C     C_R   0.333042 0.623173 0.656596 0.125235
C44   C     C_R   0.682751 0.525135 0.794683 -0.085651
C45   C     C_R   0.307665 0.463537 0.204747 -0.067257
C46   C     C_R   0.713365 0.572696 0.972011 0.157465
C47   C     C_R   0.648640 0.562606 0.869851 -0.189318
C48   C     C_R   0.780174 0.495180 0.821949 -0.219492
Cu1   Cu    Cu3+1 0.416420 0.526630 0.522910 0.963995
Cu2   Cu    Cu3+1 0.583580 0.473370 0.477090 0.959516
H1    H     H_    0.854714 0.582432 0.160609 0.174990
H2    H     H_    0.238891 0.317452 0.967886 0.140432
H3    H     H_    0.336767 0.092063 0.387495 0.153334
H4    H     H_    0.920069 0.749182 0.315597 0.170717
H5    H     H_    0.141477 0.202722 0.533970 0.190689
H6    H     H_    0.870891 0.102070 0.694790 0.162978
H7    H     H_    0.735650 0.712732 0.357456 0.180405
H8    H     H_    0.435796 0.664895 0.706085 0.146809
H9    H     H_    0.230102 0.569068 0.237504 0.190194
H10   H     H_    0.066230 0.621862 0.752777 0.182174
H11   H     H_    0.280589 0.667563 0.776101 0.154300
H12   H     H_    0.132265 0.465983 0.416619 0.142721
H13   H     H_    0.548446 0.311613 0.308186 0.134565
H14   H     H_    0.670395 0.232083 0.256184 0.165750
H15   H     H_    0.384021 0.365668 0.146202 0.156788
H16   H     H_    0.056962 0.318431 0.841554 0.135489
H17   H     H_    0.572715 0.585605 0.849579 0.172475
H18   H     H_    0.807745 0.471993 0.762674 0.163442
H19   H     H_    0.892597 0.370603 0.795496 0.151005
N1    N     N_R   0.290690 0.566960 0.557640 -0.179060
N2    N     N_R   0.709100 0.433710 0.442970 -0.194152
O1    O     O_R   0.545970 0.684450 0.528810 -0.543206
O2    O     O_R   0.687130 0.639470 0.490120 -0.558571
O3    O     O_R   0.519670 0.535100 0.660030 -0.594306
O4    O     O_R   0.660830 0.490120 0.621340 -0.568412
O5    O     O_R   0.312870 0.360530 0.509880 -0.590010
O6    O     O_R   0.454030 0.315550 0.471190 -0.583780
O7    O     O_R   0.339170 0.509880 0.378660 -0.583445
O8    O     O_R   0.480330 0.464900 0.339970 -0.596555
N3    N     N_3   0.151807 0.862560 0.319318 -0.607018
H20   H     H_    0.086582 0.845280 0.245147 0.220958
H21   H     H_    0.244432 0.892624 0.316559 0.227170
I1    I     I_    0.599515 0.909471 0.647165 -0.362918
N4    N     N_3   0.094013 0.164317 0.675659 -0.603994
H22   H     H_    0.116000 0.151991 0.749013 0.234312
H23   H     H_    0.085438 0.239523 0.678912 0.206877
N5    N     N_3   0.908875 0.279625 0.358495 -0.589853
H24   H     H_    0.954702 0.310820 0.308536 0.223458
H25   H     H_    0.973620 0.278508 0.424948 0.223472
I2    I     I_    0.914782 0.716111 0.670629 -0.360313
I3    I     I_    0.652286 0.632400 0.078263 -0.465492
N6    N     N_3   0.027243 0.523500 0.234348 -0.628169
H26   H     H_    0.947131 0.469016 0.251213 0.228358
H27   H     H_    0.071106 0.608714 0.280630 0.239653

loop_
_geom_bond_atom_site_label_1
_geom_bond_atom_site_label_2
_ccdc_geom_bond_type
C19   H6    S    
N5    H24   S    
C40   H10   S    
C12   O3    A    
C17   C29   A    
C31   H11   S    
C35   C36   A    
C23   O5    A    
C4    C8    A    
Cu2   O8    S    
C8    H19   S    
C17   C23   S    
C31   C43   A    
C36   C37   A    
N4    H23   S    
C38   C42   A    
C3    C7    A    
C5    C6    A    
C42   N1    A    
Cu1   O7    S    
C18   C19   A    
C9    H16   S    
N6    H26   S    
C43   H8    S    
C35   N5    S    
N4    H22   S    
C19   C20   A    
C8    C9    A    
Cu1   O1    S    
C18   C30   A    
C14   C45   A    
C9    C10   A    
C42   H12   S    
C44   C47   A    
C41   I2    S    
C21   C22   A    
C11   C15   A    
C26   H4    S    
C47   H17   S    
C28   H5    S    
C32   N2    A    
C1    O1    A    
C24   C25   A    
N3    H21   S    
C27   H7    S    
Cu2   O2    S    
C39   C40   A    
N3    H20   S    
C46   I3    S    
C2    C48   A    
C16   C29   A    
C48   H18   S    
C16   N3    S    
C2    C4    A    
Cu2   N2    S    
C34   O8    A    
C13   H2    S    
N6    H27   S    
C18   I1    S    
C26   C27   A    
Cu1   O5    S    
C34   C45   S    
C23   O6    A    
C40   C41   A    
C43   N1    A    
C22   C27   A    
C20   N4    S    
C12   O4    A    
C15   C45   A    
Cu2   O6    S    
C16   C25   A    
C46   C47   A    
C22   C30   A    
C17   C28   A    
C15   H9    S    
C24   C28   A    
C32   H13   S    
C4    C5    A    
C10   C13   A    
C5    C11   A    
C6    C7    A    
C3    C46   A    
Cu1   N1    S    
C1    O2    A    
C32   C33   A    
C37   N2    A    
C2    C3    A    
C25   C26   A    
C7    H1    S    
C12   C44   S    
Cu2   O4    S    
C34   O7    A    
C38   C39   A    
C29   H3    S    
C33   H14   S    
C6    N6    S    
C36   C38   A    
C1    C30   S    
C33   C35   A    
C14   H15   S    
C31   C39   A    
C37   C41   A    
C10   C11   A    
C20   C21   A    
Cu1   Cu2   S    
C21   C24   A    
N5    H25   S    
Cu1   O3    S    
C13   C14   A    
C44   C48   A    
