data_mof_unit_59214.cif
_audit_creation_date              2013-03-05T15:50:48-0500
_audit_creation_method            fapswitch 2.2
_symmetry_space_group_name_H-M    P1
_symmetry_Int_Tables_number       1
_space_group_crystal_system       triclinic
_cell_length_a                    14.298094
_cell_length_b                    14.77292
_cell_length_c                    33.26218
_cell_angle_alpha                 97.536076
_cell_angle_beta                  90.358802
_cell_angle_gamma                 118.827259
_cell_volume                      6082.40318228

loop_
_atom_site_label
_atom_site_type_symbol
_atom_site_description
_atom_site_fract_x
_atom_site_fract_y
_atom_site_fract_z
_atom_type_partial_charge
O1    O     O_R   0.318160 0.824460 0.443680 -0.541261
O2    O     O_R   0.525040 0.857250 0.449830 -0.463770
C1    C     C_R   0.617589 0.910614 0.436983 0.565462
O3    O     O_R   0.684760 0.998800 0.456360 -0.535891
O4    O     O_R   0.647540 0.166310 0.470260 -0.504382
C2    C     C_R   0.593977 0.205148 0.456370 0.544275
O5    O     O_R   0.500960 0.181750 0.467450 -0.509798
O6    O     O_R   0.331100 0.981120 0.457080 -0.479000
C3    C     C_R   0.292690 0.892028 0.434921 0.535061
O7    O     O_R   0.315560 0.821140 0.532010 -0.532396
O8    O     O_R   0.522630 0.854180 0.531710 -0.499942
C4    C     C_R   0.614108 0.904581 0.551351 0.546152
O9    O     O_R   0.682160 0.995480 0.544690 -0.521643
O10   O     O_R   0.645130 0.163230 0.552140 -0.509484
C5    C     C_R   0.590499 0.200859 0.570801 0.545818
O11   O     O_R   0.498360 0.178430 0.555780 -0.482795
O12   O     O_R   0.328690 0.978040 0.538950 -0.464555
C6    C     C_R   0.288322 0.886378 0.548449 0.556670
Cr1   Cr    Cr6+3 0.424820 0.846020 0.489780 1.003796
Cr2   Cr    Cr6+3 0.657880 0.078580 0.505700 0.998595
Cr3   Cr    Cr6+3 0.417280 0.075360 0.504550 1.028460
O13   O     O_3   0.499990 0.999990 0.500010 -0.236404
C7    C     C_R   0.737239 0.444192 0.104727 0.014704
C8    C     C_R   0.645407 0.412064 0.127065 0.124956
C9    C     C_R   0.653247 0.399746 0.167735 -0.156463
C10   C     C_R   0.749045 0.414403 0.185917 0.028929
C11   C     C_R   0.837275 0.436426 0.162793 0.135538
C12   C     C_R   0.830537 0.450749 0.122367 -0.155763
C13   C     C_R   0.760233 0.324004 0.242106 -0.113128
C14   C     C_R   0.751874 0.311361 0.282883 -0.171940
C15   C     C_R   0.737860 0.382327 0.311207 0.044750
C16   C     C_R   0.740544 0.471528 0.298994 0.190617
C17   C     C_R   0.748798 0.483150 0.257814 -0.092550
C18   C     C_R   0.754883 0.407862 0.229331 0.016286
C19   C     C_R   0.602102 0.328304 0.363145 0.152576
C20   C     C_R   0.569232 0.287924 0.399475 -0.122184
C21   C     C_R   0.740775 0.296955 0.412328 -0.145524
C22   C     C_R   0.775054 0.339252 0.376762 -0.169814
C23   C     C_R   0.705748 0.353085 0.351537 0.052182
C24   C     C_R   0.636470 0.268019 0.423362 -0.003113
H1    H     H_    0.854419 0.357521 0.368027 0.100149
H2    H     H_    0.193282 0.743998 0.102070 0.126613
C25   C     C_R   0.232044 0.874377 0.395357 -0.013927
C26   C     C_R   0.221332 0.956188 0.381259 0.136186
C27   C     C_R   0.195737 0.947164 0.339451 -0.116845
C28   C     C_R   0.174271 0.857253 0.312696 0.021427
C29   C     C_R   0.167999 0.769848 0.327522 0.154040
C30   C     C_R   0.197577 0.779587 0.368973 -0.147486
C31   C     C_R   0.191304 0.806032 0.164783 0.128343
C32   C     C_R   0.167198 0.789325 0.122372 -0.115347
C33   C     C_R   0.069585 0.885419 0.131326 -0.106211
C34   C     C_R   0.090081 0.901470 0.173614 0.130865
C35   C     C_R   0.147508 0.857861 0.190407 0.039397
C36   C     C_1   0.155366 0.858948 0.233765 -0.034818
C37   C     C_1   0.162191 0.857628 0.269742 -0.029745
C38   C     C_R   0.103397 0.825452 0.105684 -0.048663
C39   C     C_R   0.640683 0.884415 0.394958 -0.012209
C40   C     C_R   0.570757 0.790745 0.369302 0.120784
C41   C     C_R   0.580093 0.783821 0.326774 0.127296
C42   C     C_R   0.663523 0.868457 0.311133 0.035136
C43   C     C_R   0.739740 0.958006 0.336960 0.119807
C44   C     C_R   0.727668 0.963916 0.378732 -0.140392
C45   C     C_R   0.768864 0.927911 0.172305 -0.139441
C46   C     C_R   0.783156 0.913048 0.130990 -0.137369
C47   C     C_R   0.626092 0.740886 0.123299 -0.120252
C48   C     C_R   0.613965 0.753398 0.164878 0.148260
C49   C     C_R   0.686449 0.847370 0.189363 0.061628
C50   C     C_1   0.679921 0.858403 0.232289 -0.006868
C51   C     C_1   0.672648 0.862909 0.268199 0.002176
C52   C     C_R   0.713764 0.817944 0.106449 -0.007883
C53   C     C_R   0.627107 0.255856 0.613410 -0.002880
C54   C     C_R   0.570064 0.298704 0.636261 0.140916
C55   C     C_R   0.589436 0.320580 0.679067 -0.118893
C56   C     C_R   0.667791 0.307107 0.698538 0.033022
C57   C     C_R   0.734547 0.279533 0.675427 0.147348
C58   C     C_R   0.712286 0.252101 0.633202 -0.142148
C59   C     C_R   0.758089 0.331265 0.845395 -0.086935
C60   C     C_R   0.766066 0.353333 0.888393 0.146090
C61   C     C_R   0.599040 0.359812 0.883752 -0.160695
C62   C     C_R   0.592114 0.336761 0.841515 -0.137273
C63   C     C_R   0.673855 0.327140 0.822250 -0.005044
C64   C     C_1   0.674029 0.319079 0.778677 -0.049481
C65   C     C_1   0.672982 0.314427 0.742224 -0.016525
C66   C     C_R   0.688990 0.375609 0.907542 0.017814
C67   C     C_R   0.068710 0.755097 0.907213 -0.011422
C68   C     C_R   0.052923 0.825239 0.886220 0.107046
C69   C     C_R   0.062615 0.821172 0.844089 0.096371
C70   C     C_R   0.097481 0.754859 0.823496 0.032712
C71   C     C_R   0.126381 0.694937 0.845022 0.165806
C72   C     C_R   0.114066 0.696288 0.886948 0.101440
C73   C     C_R   0.205236 0.787860 0.762293 0.169338
C74   C     C_R   0.209837 0.794727 0.720380 0.121875
C75   C     C_R   0.116172 0.769199 0.696326 0.018741
C76   C     C_R   0.016726 0.731054 0.713319 0.098874
C77   C     C_R   0.012300 0.720178 0.754352 -0.111215
C78   C     C_R   0.105567 0.751658 0.779179 0.052101
C79   C     C_R   0.176196 0.898894 0.649893 -0.109984
C80   C     C_R   0.220843 0.931656 0.613773 0.118430
C81   C     C_R   0.155292 0.749647 0.584711 -0.126181
C82   C     C_R   0.111244 0.716131 0.621114 0.141325
C83   C     C_R   0.127503 0.793182 0.654496 0.040483
C84   C     C_R   0.216968 0.856627 0.581866 0.009859
H3    H     H_    0.186666 0.956986 0.675682 0.102126
C85   C     C_R   0.664605 0.746493 0.911060 -0.000259
C86   C     C_R   0.567015 0.666005 0.890405 0.117923
C87   C     C_R   0.542754 0.670527 0.849780 -0.095996
C88   C     C_R   0.613484 0.753012 0.830085 0.024294
C89   C     C_R   0.707317 0.836207 0.851644 0.124054
C90   C     C_R   0.729516 0.832975 0.891899 -0.126288
C91   C     C_R   0.588984 0.836608 0.774729 -0.141392
C92   C     C_R   0.606645 0.857525 0.734954 0.130517
C93   C     C_R   0.615817 0.784892 0.705500 0.010656
C94   C     C_R   0.605106 0.691856 0.716253 -0.157819
C95   C     C_R   0.596670 0.675549 0.756915 0.135890
C96   C     C_R   0.592672 0.750898 0.786531 0.022652
C97   C     C_R   0.554311 0.734101 0.632202 -0.141109
C98   C     C_R   0.554616 0.763252 0.594065 -0.129380
C99   C     C_R   0.717035 0.927104 0.616155 -0.128403
C100  C     C_R   0.716866 0.897457 0.654255 -0.090575
C101  C     C_R   0.631677 0.803932 0.663163 0.045885
C102  C     C_R   0.632388 0.862686 0.586544 0.022342
H4    H     H_    0.582093 0.892296 0.797430 0.119007
H5    H     H_    0.471020 0.607961 0.832656 0.131230
H6    H     H_    0.488890 0.660891 0.638470 0.094890
H7    H     H_    0.489297 0.711103 0.571539 0.122600
O14   O     O_R   0.828710 0.851830 0.052170 -0.523716
O15   O     O_R   0.005980 0.823990 0.047210 -0.506710
C103  C     C_R   0.051223 0.780814 0.064063 0.532042
O16   O     O_R   0.031900 0.688850 0.050170 -0.519612
O17   O     O_R   0.830940 0.518420 0.048680 -0.516058
C104  C     C_R   0.743494 0.485392 0.066008 0.550183
O18   O     O_R   0.668160 0.499860 0.053480 -0.474501
O19   O     O_R   0.689170 0.693840 0.050110 -0.500436
C105  C     C_R   0.742594 0.788925 0.066329 0.542385
O20   O     O_R   0.803860 0.812940 0.962540 -0.520261
O21   O     O_R   0.982950 0.787950 0.964120 -0.461663
C106  C     C_R   0.022212 0.732629 0.947102 0.557601
O22   O     O_R   0.007050 0.649970 0.960540 -0.511205
O23   O     O_R   0.807910 0.482370 0.965590 -0.477366
C107  C     C_R   0.712121 0.436816 0.949219 0.530901
O24   O     O_R   0.643310 0.460980 0.963840 -0.534236
O25   O     O_R   0.666140 0.657800 0.967020 -0.481017
C108  C     C_R   0.710796 0.739731 0.949895 0.552759
Cr4   Cr    Cr6+3 0.903360 0.812540 0.006510 1.011002
Cr5   Cr    Cr6+3 0.914630 0.587050 0.006280 1.007118
Cr6   Cr    Cr6+3 0.673560 0.582680 0.008540 1.020683
O26   O     O_3   0.830520 0.660760 0.007110 -0.239100
N1    N     N_2   0.546030 0.394815 0.109448 -0.489872
H8    H     H_    0.498135 0.406883 0.130112 0.232099
C109  C     C_3   0.487290 0.296586 0.082408 -0.290394
H9    H     H_    0.414277 0.291950 0.068244 0.131710
H10   H     H_    0.462875 0.230117 0.099678 0.126712
H11   H     H_    0.536788 0.290217 0.057738 0.157820
H12   H     H_    0.488485 0.265630 0.407494 0.131689
N2    N     N_2   0.934516 0.448951 0.180414 -0.529432
H13   H     H_    0.974151 0.423090 0.160216 0.238642
C110  C     C_3   0.005049 0.553027 0.201634 -0.286108
H14   H     H_    0.079401 0.556748 0.213895 0.149185
H15   H     H_    0.966152 0.573263 0.227400 0.184578
H16   H     H_    0.026713 0.611026 0.180438 0.170178
H17   H     H_    0.794553 0.282834 0.430285 0.124677
N3    N     N_2   0.252470 0.765701 0.182633 -0.532620
H18   H     H_    0.300918 0.811129 0.208512 0.251830
C111  C     C_3   0.295216 0.709312 0.157260 -0.329560
H19   H     H_    0.335842 0.681472 0.176930 0.145940
H20   H     H_    0.354514 0.761372 0.137869 0.148986
H21   H     H_    0.229455 0.639466 0.138276 0.144354
N4    N     N_2   0.137103 0.675559 0.299952 -0.520343
H22   H     H_    0.184248 0.682679 0.275954 0.244478
C112  C     C_3   0.092498 0.576838 0.315254 -0.320718
H23   H     H_    0.053583 0.511729 0.289460 0.150863
H24   H     H_    0.030671 0.570258 0.336540 0.164818
H25   H     H_    0.156786 0.569186 0.330683 0.115766
H26   H     H_    0.199302 0.715179 0.380385 0.120599
N5    N     N_2   0.236690 0.045594 0.409303 -0.480078
H27   H     H_    0.196650 0.027143 0.435248 0.250624
C113  C     C_3   0.238042 0.134262 0.394646 -0.322322
H28   H     H_    0.259226 0.198097 0.420577 0.131380
H29   H     H_    0.157708 0.111894 0.380563 0.131581
H30   H     H_    0.299503 0.164523 0.372490 0.143306
N6    N     N_2   0.043832 0.953091 0.198688 -0.513957
H31   H     H_    0.034680 0.938597 0.228279 0.260745
C114  C     C_3   0.085392 0.062442 0.195565 -0.320418
H32   H     H_    0.042140 0.094254 0.215172 0.134778
H33   H     H_    0.073429 0.072595 0.163792 0.142282
H34   H     H_    0.172076 0.107283 0.205835 0.137480
H35   H     H_    0.018071 0.911492 0.118870 0.148517
H36   H     H_    0.901263 0.473398 0.105632 0.130945
H37   H     H_    0.193406 0.010269 0.327052 0.109033
H38   H     H_    0.851683 0.973287 0.118863 0.127253
H39   H     H_    0.825069 0.000177 0.191312 0.111892
N7    N     N_2   0.825644 0.041465 0.320145 -0.511911
H40   H     H_    0.806956 0.055206 0.292390 0.246463
C115  C     C_3   0.903364 0.135141 0.346331 -0.324323
H41   H     H_    0.965317 0.187551 0.327825 0.129474
H42   H     H_    0.944358 0.115047 0.369238 0.148505
H43   H     H_    0.863675 0.177619 0.361493 0.138179
H44   H     H_    0.783023 0.034077 0.398744 0.147064
N8    N     N_2   0.493849 0.703866 0.386576 -0.508821
H45   H     H_    0.502902 0.638295 0.381613 0.226190
C116  C     C_3   0.383972 0.681795 0.381826 -0.264248
H46   H     H_    0.339219 0.616035 0.356724 0.100867
H47   H     H_    0.379666 0.751654 0.375408 0.173882
H48   H     H_    0.345353 0.658590 0.410327 0.160346
N9    N     N_2   0.532129 0.669210 0.182034 -0.522061
H49   H     H_    0.465160 0.622368 0.162203 0.229432
C117  C     C_3   0.568731 0.607559 0.200800 -0.300692
H50   H     H_    0.500278 0.543772 0.213188 0.129781
H51   H     H_    0.630277 0.656136 0.226290 0.174881
H52   H     H_    0.603247 0.572632 0.178013 0.145589
H53   H     H_    0.571719 0.666769 0.104926 0.131502
N10   N     N_2   0.506494 0.692565 0.299594 -0.520632
H54   H     H_    0.476959 0.623382 0.311174 0.242900
C118  C     C_3   0.423720 0.702024 0.278213 -0.294435
H55   H     H_    0.372515 0.628216 0.257316 0.138302
H56   H     H_    0.458922 0.766338 0.259739 0.171782
H57   H     H_    0.372756 0.717310 0.300018 0.136426
N11   N     N_2   0.850980 0.356252 0.912675 -0.494982
H58   H     H_    0.828081 0.325111 0.939233 0.247351
C119  C     C_3   0.930800 0.335625 0.893483 -0.331291
H59   H     H_    0.991382 0.345070 0.917102 0.131115
H60   H     H_    0.973056 0.392461 0.872405 0.152445
H61   H     H_    0.892787 0.254343 0.876963 0.125334
H62   H     H_    0.818011 0.319564 0.829430 0.105807
N12   N     N_2   0.820266 0.273420 0.694554 -0.529640
H63   H     H_    0.840494 0.221806 0.678258 0.237679
C120  C     C_3   0.913173 0.373712 0.708634 -0.316657
H64   H     H_    0.949518 0.414363 0.682396 0.138327
H65   H     H_    0.973369 0.361718 0.724923 0.124349
H66   H     H_    0.891225 0.423594 0.729953 0.161349
H67   H     H_    0.759419 0.223504 0.616063 0.127102
N13   N     N_2   0.494131 0.317839 0.615835 -0.489715
H68   H     H_    0.518612 0.348454 0.589269 0.258414
C121  C     C_3   0.435132 0.360534 0.639022 -0.330246
H69   H     H_    0.378959 0.367396 0.618025 0.126449
H70   H     H_    0.490936 0.439651 0.655670 0.131982
H71   H     H_    0.386820 0.307453 0.660507 0.141709
H72   H     H_    0.525516 0.331802 0.823774 0.114966
H73   H     H_    0.537363 0.372898 0.897481 0.122463
H74   H     H_    0.542849 0.346595 0.697838 0.102466
N14   N     N_2   0.027165 0.899785 0.907479 -0.468502
H75   H     H_    0.978762 0.918378 0.891369 0.258126
C122  C     C_3   0.117853 0.991115 0.929875 -0.286929
H76   H     H_    0.089701 0.041138 0.947647 0.125323
H77   H     H_    0.175432 0.037116 0.908619 0.121412
H78   H     H_    0.159270 0.968029 0.951427 0.146088
N15   N     N_2   0.146121 0.636003 0.907656 -0.524298
H79   H     H_    0.085125 0.570128 0.916697 0.288767
C123  C     C_3   0.238904 0.695484 0.936508 -0.310277
H80   H     H_    0.222135 0.740661 0.962041 0.152239
H81   H     H_    0.308080 0.750003 0.921127 0.149709
H82   H     H_    0.260444 0.641396 0.949096 0.135167
N16   N     N_2   0.054206 0.607080 0.624888 -0.526021
H83   H     H_    0.034262 0.588703 0.653548 0.251625
C124  C     C_3   0.079820 0.534972 0.600087 -0.322335
H84   H     H_    0.037483 0.457002 0.610086 0.128834
H85   H     H_    0.167339 0.563262 0.603183 0.133540
H86   H     H_    0.051992 0.524656 0.567759 0.150330
H87   H     H_    0.749817 0.242641 0.291971 0.114136
N17   N     N_2   0.309984 0.837857 0.702819 -0.521750
H88   H     H_    0.371162 0.900968 0.720907 0.244435
C125  C     C_3   0.339514 0.762454 0.683806 -0.307881
H89   H     H_    0.411654 0.802965 0.667099 0.172077
H90   H     H_    0.274190 0.701647 0.661732 0.165952
H91   H     H_    0.357637 0.724345 0.707010 0.131114
N18   N     N_2   0.299733 0.815545 0.787142 -0.496304
H92   H     H_    0.353791 0.797673 0.772888 0.254951
C126  C     C_3   0.350435 0.919347 0.810567 -0.316122
H93   H     H_    0.426415 0.935149 0.826571 0.130701
H94   H     H_    0.298245 0.925416 0.833990 0.156635
H95   H     H_    0.368794 0.979218 0.790411 0.127967
N19   N     N_2   0.032439 0.880076 0.821547 -0.526480
H96   H     H_    0.955373 0.867503 0.823897 0.257465
C127  C     C_3   0.112476 0.987012 0.819641 -0.300461
H97   H     H_    0.090043 0.041520 0.837616 0.131043
H98   H     H_    0.116577 0.000324 0.787481 0.145080
H99   H     H_    0.193026 0.004662 0.831626 0.138646
N20   N     N_2   0.921369 0.706845 0.690050 -0.526178
H100  H     H_    0.920049 0.684488 0.659287 0.269249
C128  C     C_3   0.885784 0.783394 0.698756 -0.311097
H101  H     H_    0.810682 0.757578 0.679787 0.148205
H102  H     H_    0.947407 0.860324 0.691482 0.137328
H103  H     H_    0.869604 0.791886 0.731273 0.158351
H104  H     H_    0.936053 0.691346 0.767608 0.124270
N21   N     N_2   0.277528 0.040393 0.611288 -0.468468
H105  H     H_    0.317124 0.086980 0.638448 0.250915
C129  C     C_3   0.213987 0.077481 0.592227 -0.280048
H106  H     H_    0.148766 0.072005 0.611506 0.108184
H107  H     H_    0.178601 0.030948 0.561697 0.149918
H108  H     H_    0.265633 0.160350 0.588362 0.159590
N22   N     N_2   0.164968 0.630398 0.824108 -0.478713
H109  H     H_    0.221275 0.621618 0.840164 0.270245
C130  C     C_3   0.085912 0.535643 0.798815 -0.311510
H110  H     H_    0.075235 0.466172 0.811910 0.118484
H111  H     H_    0.114335 0.532248 0.767982 0.143760
H112  H     H_    0.006733 0.532397 0.796004 0.139813
H113  H     H_    0.147724 0.692889 0.559027 0.128388
N23   N     N_2   0.497640 0.579398 0.909785 -0.501776
H114  H     H_    0.526156 0.528382 0.912799 0.270875
C131  C     C_3   0.383599 0.528371 0.898747 -0.329432
H115  H     H_    0.339898 0.481441 0.922578 0.139883
H116  H     H_    0.363169 0.474873 0.869409 0.123640
H117  H     H_    0.357278 0.587146 0.896419 0.158799
H118  H     H_    0.765716 0.265904 0.220244 0.126719
H119  H     H_    0.803888 0.895935 0.907197 0.147912
H120  H     H_    0.779526 0.950345 0.677542 0.110834
N24   N     N_2   0.614391 0.951095 0.724482 -0.513130
H121  H     H_    0.543669 0.952893 0.726609 0.246053
C132  C     C_3   0.703296 0.046848 0.745284 -0.314871
H122  H     H_    0.708832 0.113656 0.731748 0.186736
H123  H     H_    0.779755 0.045133 0.742206 0.143210
H124  H     H_    0.690649 0.059280 0.777981 0.126175
H125  H     H_    0.609688 0.634849 0.693462 0.108449
N25   N     N_2   0.596089 0.585578 0.768064 -0.524521
H126  H     H_    0.550019 0.518490 0.747675 0.237299
C133  C     C_3   0.701380 0.599099 0.777367 -0.311951
H127  H     H_    0.693425 0.530020 0.789959 0.154887
H128  H     H_    0.748739 0.669621 0.800404 0.161610
H129  H     H_    0.744314 0.606242 0.749242 0.154614
N26   N     N_2   0.786785 0.917411 0.832269 -0.541389
H130  H     H_    0.787658 0.902016 0.801201 0.256825
C134  C     C_3   0.807484 0.022389 0.847295 -0.326125
H131  H     H_    0.867842 0.078247 0.829296 0.126300
H132  H     H_    0.839936 0.045678 0.879601 0.144422
H133  H     H_    0.732810 0.027501 0.844546 0.140585
H134  H     H_    0.584334 0.379192 0.185450 0.099017
H135  H     H_    0.778817 0.003433 0.611013 0.115642
N27   N     N_2   0.739114 0.551043 0.327968 -0.509968
H136  H     H_    0.756179 0.551663 0.358200 0.254414
C135  C     C_3   0.661361 0.584276 0.320231 -0.285362
H137  H     H_    0.607961 0.569864 0.345468 0.130970
H138  H     H_    0.610329 0.541477 0.291457 0.147124
H139  H     H_    0.704007 0.669229 0.318563 0.164146
H140  H     H_    0.749406 0.550318 0.247767 0.110510
N28   N     N_2   0.528761 0.338931 0.337619 -0.513691
H141  H     H_    0.478189 0.359154 0.353557 0.231161
C136  C     C_3   0.470726 0.251509 0.305445 -0.311909
H142  H     H_    0.417073 0.267244 0.286754 0.126746
H143  H     H_    0.421397 0.178767 0.318470 0.135709
H144  H     H_    0.526654 0.239918 0.285216 0.167804

loop_
_geom_bond_atom_site_label_1
_geom_bond_atom_site_label_2
_geom_bond_distance
_ccdc_geom_bond_type
C134  H132  1.109602 S    
C124  H85   1.110821 S    
C57   C58   1.399600 A    
C110  H14   1.109882 S    
C100  H120  1.081953 S    
O25   Cr6   1.914096 S    
C115  H42   1.110743 S    
N22   H109  1.031346 S    
C26   N5    1.434372 S    
C56   C65   1.441663 S    
C95   C96   1.409678 A    
N5    C113  1.448133 S    
C94   C95   1.400462 A    
O4    C2    1.272014 A    
C134  H133  1.110129 S    
C87   C88   1.402151 A    
O22   Cr5   2.033835 S    
C89   C90   1.386338 A    
C127  H97   1.110829 S    
C91   C92   1.394879 A    
C73   C78   1.409331 A    
N19   H96   1.030684 S    
C28   C37   1.439146 S    
C117  H52   1.109913 S    
C129  H107  1.111253 S    
O16   Cr5   2.041107 S    
N9    C117  1.448319 S    
N8    H45   1.030341 S    
Cr3   O13   1.972055 S    
C121  H70   1.111180 S    
C85   C86   1.416546 A    
C136  H142  1.110374 S    
N3    C111  1.446655 S    
N6    C114  1.446593 S    
C135  H137  1.109548 S    
C33   C34   1.400334 A    
C107  O24   1.277136 A    
C75   C83   1.471208 S    
C93   C101  1.469678 S    
C9    H134  1.084410 S    
N25   H126  1.031804 S    
N6    H31   1.030332 S    
O12   Cr3   1.916814 S    
C133  H127  1.109288 S    
C121  H71   1.110667 S    
C25   C26   1.424881 A    
C21   C22   1.391399 A    
C120  H64   1.111109 S    
O10   C5    1.280139 A    
O23   C107  1.277075 A    
C72   N15   1.424142 S    
N13   C121  1.448432 S    
C16   N27   1.426717 S    
C132  H122  1.106681 S    
N1    H8    1.031822 S    
C79   H3    1.084481 S    
C1    C39   1.483201 S    
N27   C135  1.448813 S    
N4    H22   1.031031 S    
C126  H94   1.106933 S    
C110  H16   1.110146 S    
C2    C24   1.472729 S    
N23   H114  1.029528 S    
C136  H144  1.109082 S    
C131  H115  1.109945 S    
Cr6   O26   1.971980 S    
O9    Cr2   2.032850 S    
O2    Cr1   1.923299 S    
C54   C55   1.412959 A    
C67   C72   1.422974 A    
C2    O5    1.272920 A    
C94   H125  1.083772 S    
O17   C104  1.275949 A    
N21   C129  1.446208 S    
C53   C58   1.408695 A    
O7    C6    1.267233 A    
C31   C35   1.415142 A    
C38   C103  1.476884 S    
N28   H141  1.031843 S    
O3    Cr2   2.041452 S    
C70   C71   1.407939 A    
O14   C105  1.272827 A    
N2    H13   1.031855 S    
C52   C105  1.470299 S    
N14   C122  1.447010 S    
C91   H4    1.082965 S    
N7    C115  1.448217 S    
O11   Cr3   2.039251 S    
C92   C93   1.410665 A    
C103  O16   1.267824 A    
C79   C80   1.396223 A    
O4    Cr2   1.916888 S    
C67   C68   1.423244 A    
C92   N24   1.422496 S    
C123  H80   1.110113 S    
C13   C14   1.391307 A    
C133  H129  1.110759 S    
N22   C130  1.448544 S    
N1    C109  1.446725 S    
C21   C24   1.405275 A    
N16   H83   1.029767 S    
C118  H56   1.108804 S    
C112  H23   1.110107 S    
C47   C52   1.407637 A    
C90   H119  1.081705 S    
N14   H75   1.028996 S    
C6    C84   1.476278 S    
N13   H68   1.031466 S    
C4    C102  1.471011 S    
C81   C82   1.405015 A    
C113  H29   1.111128 S    
C7    C8    1.416012 A    
C131  H117  1.110815 S    
O20   C108  1.266117 A    
C48   C49   1.403567 A    
C116  H47   1.110549 S    
Cr4   O26   1.967923 S    
C119  H59   1.110458 S    
N12   H63   1.032022 S    
C30   H26   1.080406 S    
C132  H123  1.110713 S    
C22   C23   1.399128 A    
C40   N8    1.423715 S    
C3    C25   1.493108 S    
C57   N12   1.423765 S    
C128  H101  1.109112 S    
C22   H1    1.083665 S    
C114  H34   1.111415 S    
C73   C74   1.410656 A    
C48   N9    1.425742 S    
C9    C10   1.399305 A    
C135  H139  1.109340 S    
C32   C38   1.402113 A    
C97   C101  1.398233 A    
N26   C134  1.447294 S    
C130  H110  1.110545 S    
C81   H113  1.080759 S    
C69   N19   1.426444 S    
C76   N20   1.424716 S    
N11   C119  1.447866 S    
C15   C16   1.412404 A    
C122  H78   1.111063 S    
O12   C6    1.275695 A    
C85   C108  1.483740 S    
C7    C104  1.480425 S    
C7    C12   1.408485 A    
N10   H54   1.029736 S    
N18   C126  1.446252 S    
H2    C32   1.081141 S    
C99   H135  1.083050 S    
C120  H65   1.110000 S    
C64   C65   1.205000 T    
N24   H121  1.026906 S    
C17   H140  1.084018 S    
C86   N23   1.427196 S    
C1    O3    1.265090 A    
C34   C35   1.414213 A    
N28   C136  1.447303 S    
C36   C37   1.203498 T    
C123  H82   1.109994 S    
C54   N13   1.434344 S    
N27   H136  1.031107 S    
C125  H89   1.109061 S    
N26   H130  1.030056 S    
C53   C54   1.422336 A    
C29   N4    1.429274 S    
C39   C40   1.409995 A    
C42   C51   1.430087 S    
O14   Cr4   2.041877 S    
C82   C83   1.411609 A    
N12   C120  1.446149 S    
C134  H131  1.110622 S    
C127  H98   1.109628 S    
C43   C44   1.397736 A    
C13   H118  1.083289 S    
C45   C46   1.395036 A    
C41   C42   1.413167 A    
C4    O9    1.272713 A    
N19   C127  1.446737 S    
C31   C32   1.410803 A    
C117  H51   1.109204 S    
N20   H100  1.030332 S    
C98   H7    1.083103 S    
C119  H61   1.110427 S    
C69   C70   1.405910 A    
C70   C78   1.475684 S    
N2    C110  1.445798 S    
C127  H99   1.109378 S    
C55   C56   1.397839 A    
C19   C20   1.401016 A    
C95   N25   1.422277 S    
C128  H103  1.111128 S    
C125  H91   1.109942 S    
C20   H12   1.082946 S    
C59   C60   1.415807 A    
O8    Cr1   1.919469 S    
C10   C11   1.403856 A    
C135  H138  1.111666 S    
C111  H19   1.109421 S    
C130  H112  1.112586 S    
C12   H36   1.083543 S    
C14   C15   1.404536 A    
N25   C133  1.445695 S    
C122  H76   1.110326 S    
C133  H128  1.111245 S    
Cr5   O26   1.971837 S    
C71   N22   1.426677 S    
O23   Cr5   1.923844 S    
C50   C51   1.195538 T    
C109  H11   1.111002 S    
C80   N21   1.422758 S    
N4    C112  1.447263 S    
C115  H41   1.110631 S    
C124  H86   1.109524 S    
C110  H15   1.110084 S    
O17   Cr5   1.917039 S    
N23   C131  1.447879 S    
C136  H143  1.111304 S    
C131  H116  1.110744 S    
N15   C123  1.446291 S    
C11   N2    1.422720 S    
O1    Cr1   2.037805 S    
C117  H50   1.110498 S    
O10   Cr2   1.923496 S    
O1    C3    1.280372 A    
C34   N6    1.428573 S    
C55   H74   1.081835 S    
C68   C69   1.405357 A    
N17   H88   1.027718 S    
C115  H43   1.110929 S    
C40   C41   1.416637 A    
C35   C36   1.443241 S    
C13   C18   1.396491 A    
C49   C50   1.424497 S    
C42   C43   1.405543 A    
C19   C23   1.414309 A    
N21   H105  1.032021 S    
C59   H62   1.081827 S    
C129  H106  1.111637 S    
C59   C63   1.397231 A    
O7    Cr1   2.039082 S    
N15   H79   1.029407 S    
C129  H108  1.109613 S    
O24   Cr6   2.042282 S    
Cr2   O13   1.972219 S    
O19   C105  1.268460 A    
C121  H69   1.110497 S    
C82   N16   1.436500 S    
C67   C106  1.492087 S    
C26   C27   1.408365 A    
C21   H17   1.083104 S    
N3    H18   1.031455 S    
C28   C29   1.405136 A    
C97   H6    1.083580 S    
C111  H21   1.110656 S    
C100  C101  1.403338 A    
C5    C53   1.490382 S    
C86   C87   1.411005 A    
O18   Cr6   2.031599 S    
C16   C17   1.401311 A    
O21   Cr4   1.923388 S    
C80   C84   1.410490 A    
C60   N11   1.433996 S    
O5    Cr3   2.034295 S    
C61   C66   1.408585 A    
C112  H24   1.111409 S    
C68   N14   1.427770 S    
C45   H39   1.083741 S    
C74   C75   1.412896 A    
O15   Cr4   1.920913 S    
C76   C77   1.393350 A    
C33   H35   1.083590 S    
C81   C84   1.407343 A    
C126  H93   1.110700 S    
C113  H28   1.110376 S    
N8    C116  1.445272 S    
O25   C108  1.279563 A    
O21   C106  1.276138 A    
O19   Cr6   1.924963 S    
C71   C72   1.405488 A    
C91   C96   1.398082 A    
C112  H25   1.109304 S    
C75   C76   1.407038 A    
N20   C128  1.446488 S    
C116  H46   1.109690 S    
C77   C78   1.401418 A    
C61   H73   1.081621 S    
C114  H32   1.110655 S    
C119  H60   1.110003 S    
C63   C64   1.438678 S    
C39   C44   1.408382 A    
N9    H49   1.031615 S    
C128  H102  1.111590 S    
C114  H33   1.110298 S    
C85   C90   1.406183 A    
C5    O11   1.273727 A    
C97   C98   1.391457 A    
C33   C38   1.402117 A    
C62   H72   1.083830 S    
C98   C102  1.407671 A    
C99   C100  1.393728 A    
C10   C18   1.464408 S    
N5    H27   1.031604 S    
O6    C3    1.273010 A    
C122  H77   1.110539 S    
C87   H5    1.082164 S    
C43   N7    1.438981 S    
C46   C52   1.403376 A    
C73   N18   1.428452 S    
C25   C30   1.407373 A    
C19   N28   1.423987 S    
C93   C94   1.402521 A    
C74   N17   1.423316 S    
C45   C49   1.399835 A    
C123  H81   1.111277 S    
C56   C57   1.403535 A    
C14   H87   1.083825 S    
C20   C24   1.402254 A    
Cr1   O13   1.969664 S    
C8    C9    1.399300 A    
C44   H44   1.079416 S    
N17   C125  1.446084 S    
C8    N1    1.424256 S    
N16   C124  1.448759 S    
C118  H55   1.110424 S    
C125  H90   1.108005 S    
N24   C132  1.447006 S    
C99   C102  1.403214 A    
C60   C66   1.425495 A    
C29   C30   1.408006 A    
C126  H95   1.111092 S    
C88   C89   1.411162 A    
C113  H30   1.109455 S    
C58   H67   1.083426 S    
C17   C18   1.400049 A    
C88   C96   1.470400 S    
C31   N3    1.435656 S    
C27   H37   1.082075 S    
O20   Cr4   2.036500 S    
C116  H48   1.109249 S    
C109  H10   1.111717 S    
C124  H84   1.111030 S    
C41   N10   1.429152 S    
C132  H124  1.109653 S    
C89   N26   1.429311 S    
C109  H9    1.110353 S    
N10   C118  1.449494 S    
C62   C63   1.393726 A    
C118  H57   1.109217 S    
O6    Cr3   1.922080 S    
C46   H38   1.083022 S    
O8    C4    1.270637 A    
C106  O22   1.275545 A    
N7    H40   1.031144 S    
C111  H20   1.111065 S    
O2    C1    1.282420 A    
C130  H111  1.109436 S    
N11   H58   1.031584 S    
C77   H104  1.082506 S    
C15   C23   1.471526 S    
C104  O18   1.272512 A    
C47   H53   1.083697 S    
N18   H92   1.029794 S    
C61   C62   1.392739 A    
C27   C28   1.394186 A    
C120  H66   1.110442 S    
C66   C107  1.491919 S    
C47   C48   1.394210 A    
C11   C12   1.398154 A    
C79   C83   1.400902 A    
O15   C103  1.275406 A    
