data_mof_unit_13370.cif
_audit_creation_date              2012-12-10T18:59:18-0500
_audit_creation_method            fapswitch 2.2
_symmetry_space_group_name_H-M    P1
_symmetry_Int_Tables_number       1
_space_group_crystal_system       triclinic
_cell_length_a                    9.900926
_cell_length_b                    10.736729
_cell_length_c                    16.706481
_cell_angle_alpha                 86.596409
_cell_angle_beta                  98.255888
_cell_angle_gamma                 88.760019
_cell_volume                      1753.63526018

loop_
_atom_site_label
_atom_site_type_symbol
_atom_type_description
_atom_site_fract_x
_atom_site_fract_y
_atom_site_fract_z
_atom_type_partial_charge
C1    C     C_R   0.498851 0.261014 0.491052 0.895810
C2    C     C_R   0.089258 0.423390 0.553963 0.141776
C3    C     C_R   0.521613 0.503621 0.654373 0.897601
C4    C     C_R   0.478387 0.496387 0.345627 0.897598
C5    C     C_R   0.539307 0.526163 0.741952 -0.192584
C6    C     C_R   0.460686 0.473878 0.258043 -0.192560
C7    C     C_R   0.436404 0.594546 0.772926 0.049913
C8    C     C_R   0.563549 0.405459 0.227059 0.049897
C9    C     C_R   0.446499 0.608881 0.856788 0.158597
C10   C     C_R   0.553436 0.391138 0.143195 0.158592
C11   C     C_R   0.555640 0.548762 0.909414 0.185245
C12   C     C_R   0.501148 0.738986 0.508947 0.895787
C13   C     C_R   0.444318 0.451312 0.090579 0.185257
C14   C     C_R   0.666636 0.497499 0.878182 0.073719
C15   C     C_R   0.333362 0.502634 0.121819 0.073731
C16   C     C_R   0.658384 0.484675 0.795199 0.038225
C17   C     C_R   0.341637 0.515450 0.204803 0.038210
C18   C     C_R   0.373910 0.065094 0.483949 0.065684
C19   C     C_R   0.626086 0.934907 0.516049 0.065688
C20   C     C_3   0.656901 0.310347 0.110435 -0.918187
C21   C     C_3   0.342987 0.689630 0.889538 -0.918187
C22   C     C_3   0.252497 0.892610 0.544516 -0.833288
C23   C     C_R   0.378152 0.941316 0.512509 0.180397
C24   C     C_3   0.747502 0.107407 0.455496 -0.833213
C25   C     C_3   0.106705 0.670817 0.388143 -0.900648
C26   C     C_3   0.893296 0.329215 0.611877 -0.900693
C27   C     C_R   0.621843 0.058686 0.487490 0.180345
C28   C     C_R   0.502424 0.872512 0.518645 -0.192991
C29   C     C_R   0.497572 0.127489 0.481353 -0.192998
C30   C     C_R   0.054914 0.578536 0.446501 0.162541
C31   C     C_R   0.945086 0.421469 0.553502 0.162560
C32   C     C_R   0.910742 0.576612 0.446038 0.141776
H1    H     H_    0.675091 0.252221 0.277486 0.178948
H2    H     H_    0.243219 0.643346 0.884521 0.239951
H3    H     H_    0.764458 0.376512 0.966206 0.195559
H4    H     H_    0.821461 0.524329 0.968362 0.191286
H5    H     H_    0.235610 0.623689 0.033818 0.195562
H6    H     H_    0.178516 0.475907 0.031629 0.191280
H7    H     H_    0.733914 0.345124 0.737887 0.188712
H8    H     H_    0.812721 0.486300 0.728984 0.214549
H9    H     H_    0.266244 0.655020 0.262158 0.188686
H10   H     H_    0.187296 0.513907 0.271006 0.214551
H11   H     H_    0.250418 0.181109 0.401286 0.197254
H12   H     H_    0.767679 0.381640 0.263964 0.196312
H13   H     H_    0.206184 0.172199 0.497001 0.214958
H14   H     H_    0.749576 0.818899 0.598715 0.197248
H15   H     H_    0.793814 0.827801 0.503002 0.214951
H16   H     H_    0.270668 0.802861 0.580690 0.258781
H17   H     H_    0.218720 0.959458 0.586464 0.215210
H18   H     H_    0.168143 0.885327 0.494276 0.247485
H19   H     H_    0.729288 0.197115 0.419278 0.258746
H20   H     H_    0.831807 0.114788 0.505752 0.247503
H21   H     H_    0.781367 0.040528 0.413595 0.215219
H22   H     H_    0.059169 0.655251 0.325608 0.214337
H23   H     H_    0.324823 0.747744 0.722475 0.178932
H24   H     H_    0.077056 0.766757 0.400544 0.216466
H25   H     H_    0.217315 0.666138 0.390988 0.302267
H26   H     H_    0.940813 0.344834 0.674407 0.214351
H27   H     H_    0.782683 0.333873 0.609020 0.302275
H28   H     H_    0.922974 0.233266 0.599510 0.216437
H29   H     H_    0.844761 0.745226 0.389522 0.157713
H30   H     H_    0.828038 0.622721 0.329729 0.180828
H31   H     H_    0.155244 0.254780 0.610481 0.157710
H32   H     H_    0.171956 0.377286 0.670274 0.180833
H33   H     H_    0.232270 0.618314 0.736021 0.196314
H34   H     H_    0.622577 0.290515 0.046501 0.251954
H35   H     H_    0.756717 0.356549 0.115503 0.239927
H36   H     H_    0.669648 0.217874 0.144345 0.232882
H37   H     H_    0.377345 0.709556 0.953452 0.251930
H38   H     H_    0.330123 0.782067 0.855588 0.232867
N1    N     N_2   0.550630 0.530396 0.993214 -0.173964
N2    N     N_3   0.229602 0.577085 0.232359 -0.434355
N3    N     N_3   0.242748 0.122394 0.452573 -0.452803
N4    N     N_3   0.757248 0.877610 0.547427 -0.452793
N5    N     N_3   0.818834 0.651693 0.387382 -0.387720
N6    N     N_3   0.181166 0.348314 0.612622 -0.387714
N7    N     N_2   0.449321 0.469678 0.006779 -0.173958
N8    N     N_R   0.857210 0.499970 0.500020 -0.100489
N9    N     N_R   0.142790 0.500030 0.499980 -0.100491
N10   N     N_3   0.676859 0.348923 0.281353 -0.435857
N11   N     N_3   0.323080 0.651040 0.718624 -0.435826
N12   N     N_3   0.788024 0.453601 0.930534 -0.429919
N13   N     N_3   0.211993 0.546605 0.069474 -0.429910
N14   N     N_3   0.770475 0.423113 0.767652 -0.434372
O1    O     O_R   0.614620 0.316750 0.500010 -0.614742
O2    O     O_R   0.385380 0.683250 0.499990 -0.614755
O3    O     O_R   0.385290 0.316780 0.500000 -0.613035
O4    O     O_R   0.614710 0.683220 0.500000 -0.613034
O5    O     O_R   0.627460 0.498830 0.616130 -0.646938
O6    O     O_R   0.372540 0.501170 0.383870 -0.646938
O7    O     O_R   0.398130 0.498850 0.616130 -0.561331
O8    O     O_R   0.601870 0.501150 0.383870 -0.561344
Zn1   Zn    Zn3+2 0.653130 0.499980 0.500000 0.943957
Zn2   Zn    Zn3+2 0.346870 0.500020 0.500000 0.943958

loop_
_geom_bond_atom_site_label_1
_geom_bond_atom_site_label_2
_ccdc_geom_bond_type
C1    O3    A    
C22   H16   S    
C24   H20   S    
C3    O7    A    
H6    N13   S    
C27   C29   A    
H8    N14   S    
C20   H35   S    
C25   H24   S    
H14   N4    S    
C32   N5    S    
H29   N5    S    
C12   C28   S    
C20   H34   S    
H7    N14   S    
C11   C14   A    
C11   N1    S    
H31   N6    S    
N8    Zn1   S    
O3    Zn2   S    
C16   N14   S    
H13   N3    S    
C5    C16   A    
C2    N9    A    
O2    Zn2   S    
O1    Zn1   S    
H11   N3    S    
C10   C20   S    
C24   C27   S    
H23   N11   S    
C19   C27   A    
C26   H27   S    
C22   H18   S    
C24   H19   S    
C26   C31   S    
C25   H25   S    
C1    C29   S    
H3    N12   S    
O6    Zn2   S    
C4    O6    A    
C1    O1    A    
C13   N7    S    
C12   O4    A    
C18   C23   A    
H12   N10   S    
C25   H22   S    
N9    Zn2   S    
C4    C6    S    
H4    N12   S    
C5    C7    A    
C15   N13   S    
C21   H2    S    
C24   H21   S    
C21   H37   S    
C2    C31   A    
C26   H26   S    
H33   N11   S    
H10   N2    S    
H32   N6    S    
C18   C29   A    
C23   C28   A    
C19   C28   A    
C9    C11   A    
H9    N2    S    
C30   N9    A    
C7    N11   S    
C18   N3    S    
C13   C15   A    
C14   C16   A    
H30   N5    S    
C14   N12   S    
N1    N7    D    
C2    N6    S    
C31   N8    A    
C22   H17   S    
C25   C30   S    
C15   C17   A    
C6    C17   A    
O4    Zn1   S    
C20   H36   S    
C19   N4    S    
H15   N4    S    
C3    C5    S    
C10   C13   A    
C6    C8    A    
H1    N10   S    
C12   O2    A    
C21   H38   S    
C3    O5    A    
O7    Zn2   S    
C30   C32   A    
C9    C21   S    
O8    Zn1   S    
O5    Zn1   S    
C32   N8    A    
C7    C9    A    
C17   N2    S    
C8    C10   A    
C8    N10   S    
C22   C23   S    
H5    N13   S    
C26   H28   S    
C4    O8    A    
