data_mof_unit_14429.cif
_audit_creation_date              2012-12-10T17:50:39-0500
_audit_creation_method            fapswitch 2.2
_symmetry_space_group_name_H-M    P1
_symmetry_Int_Tables_number       1
_space_group_crystal_system       triclinic
_cell_length_a                    15.701821
_cell_length_b                    10.808126
_cell_length_c                    9.963579
_cell_angle_alpha                 89.482194
_cell_angle_beta                  89.514341
_cell_angle_gamma                 92.487037
_cell_volume                      1689.1634333

loop_
_atom_site_label
_atom_site_type_symbol
_atom_type_description
_atom_site_fract_x
_atom_site_fract_y
_atom_site_fract_z
_atom_type_partial_charge
C1    C     C_R   0.500563 0.259092 0.500105 0.845731
C2    C     C_R   0.467844 0.042927 0.861121 -0.198100
C3    C     C_R   0.517085 0.938663 0.869865 0.223149
C4    C     C_R   0.338166 0.499422 0.500432 0.899724
C5    C     C_R   0.543772 0.883634 0.751461 -0.139522
C6    C     C_R   0.524822 0.935648 0.625613 0.062293
C7    C     C_R   0.496126 0.055250 0.620193 0.053072
C8    C     C_R   0.509609 0.125031 0.499674 -0.146641
C9    C     C_R   0.543651 0.065558 0.384551 0.163694
C10   C     C_R   0.543414 0.936947 0.385324 -0.270981
C11   C     C_R   0.529499 0.871412 0.504284 -0.156978
C12   C     C_3   0.082792 0.494157 0.500245 0.085809
C13   C     C_R   0.379315 0.350646 0.143859 -0.165396
C14   C     C_R   0.315349 0.284087 0.076845 -0.205762
C15   C     C_R   0.311619 0.290176 0.938391 -0.212704
C16   C     C_R   0.510787 0.738974 0.500289 0.885793
C17   C     C_R   0.372955 0.360685 0.866532 -0.172860
C18   C     C_R   0.437527 0.431690 0.930373 0.177480
C19   C     C_R   0.439013 0.429165 0.074342 0.166641
C20   C     C_R   0.561664 0.561443 0.069861 -0.130370
C21   C     C_R   0.562011 0.560593 0.927056 -0.126977
C22   C     C_R   0.661879 0.500704 0.499578 0.881534
C23   C     C_3   0.973437 0.576437 0.591272 -0.165239
C24   C     C_3   0.967485 0.379305 0.532425 -0.189815
C25   C     C_3   0.025394 0.413317 0.410378 0.195721
C26   C     C_1   0.249186 0.497377 0.501138 -0.185030
C27   C     C_1   0.750800 0.498463 0.498868 -0.193989
C28   C     C_3   0.025691 0.462054 0.621763 0.189691
C29   C     C_3   0.057685 0.322036 0.307546 -0.421484
C30   C     C_3   0.983897 0.253368 0.237658 -0.887592
C31   C     C_3   0.537150 0.881562 0.002958 -0.428177
C32   C     C_3   0.633795 0.876918 0.022450 -0.918342
C33   C     C_3   0.059447 0.425985 0.759424 -0.410070
C34   C     C_3   0.916909 0.494393 0.500108 0.144643
C35   C     C_3   0.987070 0.400316 0.860131 -0.883149
C36   C     C_3   0.584707 0.132400 0.263693 -0.387964
C37   C     C_3   0.668538 0.200319 0.300690 -0.786159
C38   C     C_3   0.031619 0.608479 0.468248 -0.229027
C39   C     C_3   0.973151 0.527037 0.376962 -0.164620
C40   C     C_1   0.173816 0.495611 0.500780 -0.091284
C41   C     C_1   0.826085 0.496253 0.499247 -0.058633
C42   C     C_R   0.456193 0.098838 0.736308 -0.171091
H1    H     H_    0.580923 0.802094 0.758214 0.153973
H2    H     H_    0.942831 0.319955 0.186425 0.261183
H3    H     H_    0.009372 0.189964 0.161549 0.251032
H4    H     H_    0.097884 0.373421 0.231533 0.214278
H5    H     H_    0.097470 0.254025 0.359192 0.202207
H6    H     H_    0.662260 0.812287 0.950792 0.246329
H7    H     H_    0.665073 0.970107 0.006641 0.269435
H8    H     H_    0.648089 0.843768 0.125015 0.245990
H9    H     H_    0.508218 0.934533 0.084946 0.192687
H10   H     H_    0.507236 0.787054 0.008372 0.222025
H11   H     H_    0.611874 0.612369 0.121983 0.156595
H12   H     H_    0.557330 0.887304 0.295072 0.170195
H13   H     H_    0.263088 0.235925 0.885802 0.145690
H14   H     H_    0.370608 0.351413 0.761229 0.188932
H15   H     H_    0.612843 0.609964 0.872587 0.140077
H16   H     H_    0.949479 0.553159 0.276365 0.137461
H17   H     H_    0.059737 0.701685 0.442090 0.151731
H18   H     H_    0.949306 0.484003 0.872978 0.258078
H19   H     H_    0.944546 0.322367 0.825715 0.260101
H20   H     H_    0.014091 0.374999 0.958700 0.258206
H21   H     H_    0.097099 0.341836 0.749285 0.202166
H22   H     H_    0.102141 0.502492 0.796863 0.216170
H23   H     H_    0.381853 0.334917 0.249360 0.198822
H24   H     H_    0.660534 0.261796 0.387562 0.261073
H25   H     H_    0.716810 0.132170 0.327079 0.237057
H26   H     H_    0.692798 0.256867 0.213782 0.243323
H27   H     H_    0.601700 0.065846 0.186059 0.206014
H28   H     H_    0.540381 0.193609 0.212096 0.226566
H29   H     H_    0.269707 0.225273 0.132503 0.146906
H30   H     H_    0.939398 0.286099 0.558706 0.133602
H31   H     H_    0.949941 0.642938 0.665828 0.135463
H32   H     H_    0.413322 0.171954 0.729313 0.148917
H33   H     H_    0.439616 0.081794 0.949983 0.146698
H34   H     H_    0.944815 0.197767 0.311650 0.259676
N1    N     N_R   0.499210 0.498800 0.142780 -0.123398
N2    N     N_R   0.499180 0.498720 0.857170 -0.120229
O1    O     O_R   0.500000 0.316780 0.614690 -0.626503
O2    O     O_R   0.499990 0.316750 0.385360 -0.635898
O3    O     O_R   0.376780 0.500000 0.614650 -0.632905
O4    O     O_R   0.376770 0.499980 0.385310 -0.625327
O5    O     O_R   0.500010 0.683250 0.614640 -0.624343
O6    O     O_R   0.500000 0.683220 0.385310 -0.610951
O7    O     O_R   0.623230 0.500020 0.614690 -0.614738
O8    O     O_R   0.623220 0.500000 0.385350 -0.617126
Zn1   Zn    Zn3+2 0.500010 0.500020 0.653130 0.935438
Zn2   Zn    Zn3+2 0.499990 0.499980 0.346870 0.930306

loop_
_geom_bond_atom_site_label_1
_geom_bond_atom_site_label_2
_ccdc_geom_bond_type
N2    Zn1   S    
O5    Zn1   S    
C1    C8    S    
C14   H29   S    
C30   H3    S    
C31   H10   S    
O1    Zn1   S    
C7    C8    A    
C13   H23   S    
C20   N1    A    
C29   H5    S    
C36   C37   S    
C5    C6    A    
O8    Zn2   S    
C7    C42   A    
C37   H26   S    
C16   O6    A    
C18   C19   A    
C22   O7    A    
C19   N1    A    
C4    O3    A    
N1    Zn2   S    
C8    C9    A    
C21   N2    A    
C9    C36   S    
C9    C10   A    
C18   N2    A    
C5    H1    S    
C13   C14   A    
C32   H6    S    
C30   H2    S    
C34   C41   S    
C23   H31   S    
C36   H28   S    
O7    Zn1   S    
C25   C29   S    
C42   H32   S    
C13   C19   A    
C34   C39   S    
O6    Zn2   S    
C24   C25   S    
C6    C11   A    
C39   H16   S    
C16   O5    A    
C24   C34   S    
C35   H18   S    
C15   H13   S    
C12   C40   S    
C21   H15   S    
C29   C30   S    
C30   H34   S    
C11   C16   S    
C27   C41   T    
C31   C32   S    
C33   H21   S    
C23   C34   S    
C37   H24   S    
C17   C18   A    
C35   H19   S    
C23   C28   S    
C3    C31   S    
C17   H14   S    
C32   H8    S    
O3    Zn1   S    
C12   C28   S    
C28   C33   S    
C22   C27   S    
C1    O1    A    
C36   H27   S    
C24   H30   S    
C15   C17   A    
C24   C28   S    
C31   H9    S    
C20   H11   S    
C3    C5    A    
C4    C26   S    
C6    C7    A    
C23   C38   S    
C12   C25   S    
C29   H4    S    
C2    C3    A    
O2    Zn2   S    
C25   C39   S    
C26   C40   T    
C38   C39   S    
C2    C42   A    
C33   H22   S    
O4    Zn2   S    
C37   H25   S    
C33   C35   S    
C35   H20   S    
C22   O8    A    
C12   C38   S    
C10   H12   S    
C32   H7    S    
C10   C11   A    
C38   H17   S    
C4    O4    A    
C20   C21   A    
C1    O2    A    
C14   C15   A    
C2    H33   S    
