data_mof_unit_21898.cif
_audit_creation_date              2012-12-10T16:57:46-0500
_audit_creation_method            fapswitch 2.2
_symmetry_space_group_name_H-M    P1
_symmetry_Int_Tables_number       1
_space_group_crystal_system       triclinic
_cell_length_a                    7.756952
_cell_length_b                    8.579872
_cell_length_c                    19.015923
_cell_angle_alpha                 91.017855
_cell_angle_beta                  85.338816
_cell_angle_gamma                 93.699341
_cell_volume                      1258.66546117

loop_
_atom_site_label
_atom_site_type_symbol
_atom_type_description
_atom_site_fract_x
_atom_site_fract_y
_atom_site_fract_z
_atom_type_partial_charge
C1    C     C_R   0.545892 0.794835 0.498185 0.975114
C2    C     C_R   0.454107 0.205164 0.501816 0.972088
C3    C     C_2   0.570084 0.958283 0.497150 -0.382013
C4    C     C_2   0.429916 0.041726 0.502863 -0.379410
C5    C     C_R   0.500625 0.496645 0.634818 0.857598
C6    C     C_R   0.498152 0.496600 0.365179 0.858820
C7    C     C_R   0.338963 0.464814 0.751635 -0.190558
C8    C     C_R   0.645214 0.444871 0.247732 -0.191166
C9    C     C_R   0.332079 0.425664 0.822199 -0.162556
C10   C     C_R   0.639122 0.405821 0.176970 -0.161430
C11   C     C_R   0.483933 0.392903 0.852817 0.089143
C12   C     C_R   0.479915 0.393737 0.146635 0.089346
C13   C     C_R   0.642788 0.398759 0.811615 -0.160220
C14   C     C_R   0.326541 0.420399 0.188306 -0.159924
C15   C     C_R   0.649589 0.437610 0.740837 -0.196048
C16   C     C_R   0.332633 0.459166 0.259310 -0.196844
C17   C     C_R   0.497600 0.470713 0.710446 -0.030218
C18   C     C_R   0.492085 0.471369 0.289420 -0.029930
C19   C     C_R   0.476380 0.367439 0.070674 0.290106
C20   C     C_R   0.478603 0.366973 0.928671 0.290079
H1    H     H_    0.219410 0.488462 0.729272 0.156124
H2    H     H_    0.769918 0.452452 0.269835 0.155068
H3    H     H_    0.207934 0.423027 0.852794 0.151452
H4    H     H_    0.759643 0.387122 0.146009 0.151804
H5    H     H_    0.762166 0.375029 0.834064 0.148131
H6    H     H_    0.202027 0.412731 0.166083 0.147024
H7    H     H_    0.773279 0.440028 0.709885 0.154387
H8    H     H_    0.212532 0.477448 0.290676 0.152622
H9    H     H_    0.702427 0.009425 0.491702 0.180106
H10   H     H_    0.297572 0.990588 0.508312 0.179983
N1    N     N_R   0.627225 0.352068 0.960051 -0.175116
N2    N     N_R   0.326669 0.375961 0.039288 -0.175270
N3    N     N_R   0.626084 0.352274 0.029835 -0.173380
N4    N     N_R   0.327803 0.375711 0.969494 -0.173556
N5    N     N_2   0.950330 0.457950 0.481240 -0.175720
N6    N     N_2   0.049670 0.542050 0.518760 -0.175525
O1    O     O_R   0.389250 0.738570 0.504600 -0.608969
O2    O     O_R   0.610750 0.261430 0.495400 -0.610606
O3    O     O_R   0.678400 0.711620 0.492580 -0.626818
O4    O     O_R   0.321600 0.288380 0.507420 -0.628730
O5    O     O_R   0.355380 0.513500 0.607880 -0.620635
O6    O     O_R   0.644620 0.486500 0.392120 -0.620602
O7    O     O_R   0.644530 0.486550 0.595850 -0.627234
O8    O     O_R   0.355470 0.513450 0.404150 -0.626406
Zn1   Zn    Zn3+2 0.306930 0.517990 0.508030 0.941131
Zn2   Zn    Zn3+2 0.693070 0.482010 0.491970 0.940747
H11   H     H_    0.013932 0.382042 0.447274 0.188355
H12   H     H_    0.986071 0.617971 0.552717 0.189657

loop_
_geom_bond_atom_site_label_1
_geom_bond_atom_site_label_2
_ccdc_geom_bond_type
C16   H8    S    
C8    H2    S    
N1    N3    A    
C15   C17   A    
C11   C13   A    
C2    O2    A    
C15   H7    S    
N5    N6    D    
C1    O1    A    
C20   N4    A    
C8    C18   A    
C5    O7    A    
N5    H11   S    
N6    Zn1   S    
C6    O8    A    
C14   H6    S    
C9    C11   A    
C13   H5    S    
C10   C12   A    
O3    Zn2   S    
C2    C4    S    
C12   C19   S    
C16   C18   A    
C12   C14   A    
N6    H12   S    
C1    C3    S    
C13   C15   A    
O6    Zn2   S    
O4    Zn1   S    
C6    C18   S    
O7    Zn2   S    
C14   C16   A    
C11   C20   S    
O2    Zn2   S    
C5    C17   S    
C1    O3    A    
O1    Zn1   S    
C3    C4    D    
C2    O4    A    
C3    H9    S    
O8    Zn1   S    
C8    C10   A    
C19   N3    A    
C7    C9    A    
O5    Zn1   S    
C9    H3    S    
C5    O5    A    
C10   H4    S    
C7    H1    S    
N5    Zn2   S    
C6    O6    A    
C19   N2    A    
C4    H10   S    
C7    C17   A    
C20   N1    A    
N2    N4    A    
