data_mof_unit_55010.cif
_audit_creation_date              2012-12-10T18:23:22-0500
_audit_creation_method            fapswitch 2.2
_symmetry_space_group_name_H-M    P1
_symmetry_Int_Tables_number       1
_space_group_crystal_system       triclinic
_cell_length_a                    27.731369
_cell_length_b                    10.731755
_cell_length_c                    9.543411
_cell_angle_alpha                 89.880344
_cell_angle_beta                  90.227719
_cell_angle_gamma                 90.926889
_cell_volume                      2839.77895274

loop_
_atom_site_label
_atom_site_type_symbol
_atom_type_description
_atom_site_fract_x
_atom_site_fract_y
_atom_site_fract_z
_atom_type_partial_charge
Br1   Br    Br    0.592684 0.655896 0.882161 -0.556167
Br2   Br    Br    0.405328 0.350471 0.108804 -0.533824
Br3   Br    Br    0.245825 0.269256 0.333898 -0.363375
Br4   Br    Br    0.753062 0.665119 0.235912 -0.443662
Br5   Br    Br    0.981119 0.158341 0.316750 -0.489447
Br6   Br    Br    0.018962 0.838689 0.241573 -0.407689
C1    C     C_R   0.499741 0.260372 0.499928 0.825589
C2    C     C_R   0.872447 0.405501 0.436440 -0.050103
C3    C     C_R   0.354856 0.501410 0.499162 -0.180140
C4    C     C_R   0.645893 0.508499 0.499482 -0.122213
C5    C     C_R   0.974012 0.400419 0.450976 0.013578
C6    C     C_R   0.026466 0.621921 0.424492 -0.035327
C7    C     C_R   0.976699 0.627234 0.457995 0.082019
C8    C     C_R   0.023969 0.401022 0.483633 0.090244
C9    C     C_R   0.949850 0.514647 0.457635 -0.024471
C10   C     C_R   0.050730 0.511109 0.456310 -0.030187
C11   C     C_R   0.948002 0.293939 0.405175 0.234481
C12   C     C_R   0.499927 0.739419 0.499993 0.838769
C13   C     C_R   0.052206 0.718476 0.355801 0.336581
C14   C     C_R   0.897231 0.296344 0.397412 0.112503
C15   C     C_R   0.102687 0.714121 0.344960 0.098397
C16   C     C_R   0.407838 0.500308 0.499955 0.794131
C17   C     C_R   0.592437 0.501843 0.500205 0.852423
C18   C     C_R   0.046881 0.301648 0.553146 0.136268
C19   C     C_R   0.954216 0.736591 0.504967 0.131618
C20   C     C_3   0.537382 0.042728 0.573119 0.051815
C21   C     C_3   0.462073 0.956477 0.426123 0.072472
C22   C     C_3   0.540334 0.960196 0.442096 0.122146
C23   C     C_R   0.101395 0.510780 0.461543 -0.121771
C24   C     C_3   0.459033 0.038631 0.557347 0.113958
C25   C     C_3   0.499737 0.874888 0.500135 -0.107210
C26   C     C_3   0.499583 0.124500 0.499349 -0.102634
C27   C     C_3   0.496817 0.958430 0.631266 0.093926
C28   C     C_3   0.502648 0.040693 0.368072 0.130397
C29   C     C_3   0.499878 0.611004 0.048534 0.172778
C30   C     C_3   0.500351 0.389227 0.951441 0.163740
C31   C     C_3   0.462722 0.553149 0.950256 0.175147
C32   C     C_3   0.537547 0.447080 0.049872 0.154437
C33   C     C_3   0.537933 0.558881 0.949798 0.224419
C34   C     C_R   0.899213 0.515823 0.464932 -0.146750
C35   C     C_3   0.462315 0.441296 0.049547 0.237905
C36   C     C_R   0.175467 0.418488 0.542056 0.639507
C37   C     C_R   0.824949 0.623377 0.513406 0.653784
C38   C     C_R   0.178957 0.602611 0.401446 0.628962
C39   C     C_R   0.821708 0.409893 0.442825 0.644137
C40   C     C_R   0.279448 0.608950 0.539218 0.191107
C41   C     C_R   0.724080 0.450585 0.596884 0.183329
C42   C     C_R   0.330121 0.608530 0.542332 0.041660
C43   C     C_R   0.673474 0.443897 0.601090 0.055557
C44   C     C_R   0.328559 0.396494 0.450560 0.073213
C45   C     C_R   0.124972 0.410066 0.526130 -0.024722
C46   C     C_R   0.669937 0.578580 0.394180 0.023894
C47   C     C_R   0.278685 0.403583 0.430618 0.320868
C48   C     C_R   0.720582 0.580003 0.387592 0.230097
C49   C     C_R   0.253515 0.507864 0.479821 0.169679
C50   C     C_R   0.747554 0.517108 0.489597 0.219251
C51   C     C_R   0.875723 0.626912 0.501442 -0.030163
C52   C     C_R   0.097369 0.306489 0.575608 0.131461
C53   C     C_R   0.903775 0.736242 0.528101 0.135914
C54   C     C_R   0.128115 0.611576 0.403240 -0.110884
Cu1   Cu    Cu3+1 0.500010 0.499990 0.643150 1.003815
Cu2   Cu    Cu3+1 0.499990 0.500010 0.356850 1.026579
H1    H     H_    0.382264 0.287129 0.376563 0.264391
H2    H     H_    0.526188 0.874780 0.801031 0.256403
H3    H     H_    0.509114 0.005509 0.160172 0.217957
H4    H     H_    0.473493 0.125332 0.198361 0.243130
H5    H     H_    0.405095 0.664584 0.976274 0.229665
H6    H     H_    0.395746 0.546795 0.864939 0.249785
H7    H     H_    0.594234 0.332089 0.024511 0.218236
H8    H     H_    0.604414 0.448397 0.136517 0.246860
H9    H     H_    0.490231 0.796723 0.021714 0.218940
H10   H     H_    0.533842 0.760760 0.136146 0.263906
H11   H     H_    0.512413 0.204456 0.977431 0.222000
H12   H     H_    0.361249 0.250208 0.535990 0.240818
H13   H     H_    0.466236 0.237372 0.871338 0.232161
H14   H     H_    0.106089 0.193267 0.744677 0.233462
H15   H     H_    0.114284 0.123242 0.586782 0.240919
H16   H     H_    0.896578 0.871420 0.675137 0.229823
H17   H     H_    0.887448 0.918471 0.506953 0.230889
H18   H     H_    0.632760 0.421852 0.776368 0.277365
H19   H     H_    0.627047 0.304681 0.656875 0.248742
H20   H     H_    0.376053 0.696557 0.676303 0.255843
H21   H     H_    0.379373 0.746034 0.508574 0.253057
H22   H     H_    0.742770 0.422720 0.799505 0.257986
H23   H     H_    0.653939 0.743950 0.304934 0.265905
H24   H     H_    0.743741 0.293346 0.698123 0.268369
H25   H     H_    0.263733 0.721144 0.702198 0.243245
H26   H     H_    0.264743 0.793067 0.544125 0.277796
H27   H     H_    0.880113 0.112791 0.410146 0.241234
H28   H     H_    0.881199 0.171094 0.244447 0.267772
H29   H     H_    0.150904 0.859257 0.345688 0.272680
H30   H     H_    0.144587 0.783631 0.187549 0.278986
H31   H     H_    0.021962 0.210543 0.725364 0.229472
H32   H     H_    0.030645 0.117925 0.584365 0.256742
H33   H     H_    0.980335 0.853006 0.655360 0.224494
H34   H     H_    0.650926 0.621364 0.194701 0.268708
H35   H     H_    0.970721 0.921960 0.498148 0.273256
H36   H     H_    0.605307 0.995790 0.352575 0.258766
H37   H     H_    0.603630 0.869867 0.457024 0.226815
H38   H     H_    0.395195 0.996697 0.650471 0.266376
H39   H     H_    0.422299 0.126725 0.710637 0.220016
H40   H     H_    0.597474 0.010333 0.688706 0.244575
H41   H     H_    0.566060 0.133901 0.740659 0.246650
H42   H     H_    0.402278 0.989296 0.309305 0.258493
H43   H     H_    0.433544 0.864925 0.258337 0.245925
H44   H     H_    0.490183 0.993675 0.839090 0.207649
N1    N     N_R   0.201423 0.509610 0.473956 -0.438957
N2    N     N_3   0.506245 0.084047 0.223863 -0.554537
N3    N     N_3   0.420790 0.615886 0.893929 -0.543198
N4    N     N_3   0.578789 0.381385 0.106810 -0.514881
N5    N     N_3   0.498810 0.737008 0.104121 -0.558010
N6    N     N_3   0.501640 0.263191 0.896329 -0.565421
N7    N     N_3   0.120635 0.204556 0.644529 -0.489030
N8    N     N_3   0.881228 0.846674 0.578767 -0.492610
N9    N     N_3   0.651269 0.366206 0.705818 -0.579691
N10   N     N_3   0.355700 0.718433 0.587926 -0.579953
N11   N     N_3   0.752360 0.388512 0.701142 -0.539039
N12   N     N_R   0.799390 0.516954 0.481877 -0.452030
N13   N     N_3   0.253874 0.711904 0.596826 -0.533008
N14   N     N_3   0.871011 0.188861 0.347729 -0.475601
N15   N     N_3   0.126700 0.816374 0.275986 -0.493838
N16   N     N_3   0.018091 0.204506 0.616606 -0.571614
N17   N     N_3   0.983487 0.841792 0.547053 -0.567096
N18   N     N_3   0.584653 0.916948 0.378917 -0.565964
N19   N     N_3   0.413945 0.077344 0.619560 -0.582932
N20   N     N_3   0.500040 0.499970 0.858290 -0.193644
N21   N     N_3   0.499960 0.500030 0.141710 -0.195253
N22   N     N_3   0.350961 0.277935 0.435604 -0.492091
N23   N     N_3   0.642742 0.650881 0.295962 -0.542628
N24   N     N_3   0.578993 0.088151 0.652350 -0.591637
N25   N     N_3   0.420561 0.911321 0.346139 -0.579199
N26   N     N_3   0.493279 0.915145 0.775487 -0.564540
O1    O     O_R   0.500020 0.316850 0.620870 -0.568124
O2    O     O_2   0.800907 0.724966 0.555172 -0.457955
O3    O     O_2   0.794505 0.308346 0.411288 -0.479996
O4    O     O_2   0.206072 0.684792 0.327929 -0.538905
O5    O     O_R   0.499980 0.683150 0.379130 -0.555823
O6    O     O_R   0.500000 0.316860 0.379090 -0.545516
O7    O     O_R   0.500000 0.683140 0.620910 -0.540461
O8    O     O_R   0.430270 0.500020 0.620880 -0.576257
O9    O     O_R   0.569730 0.499980 0.379120 -0.544477
O10   O     O_R   0.430250 0.500030 0.379090 -0.537928
O11   O     O_R   0.569750 0.499970 0.620910 -0.559985
O12   O     O_2   0.198778 0.336826 0.624766 -0.466254

loop_
_geom_bond_atom_site_label_1
_geom_bond_atom_site_label_2
_ccdc_geom_bond_type
C39   N12   A    
C38   O4    S    
C20   C26   S    
C37   O2    S    
C21   N25   S    
C35   N21   S    
C7    C19   A    
C32   N21   S    
Cu1   O1    S    
H43   N25   S    
H36   N18   S    
Br6   C13   S    
H13   N6    S    
C2    C14   A    
C46   N23   S    
C13   C15   A    
H34   N23   S    
C1    O1    A    
Cu2   N21   S    
C5    C8    A    
C3    C16   S    
C51   C53   A    
Br5   C11   S    
Br2   C35   S    
C16   O8    A    
C11   C14   A    
C8    C18   A    
C2    C39   A    
H8    N4    S    
H23   N23   S    
C5    C9    A    
H5    N3    S    
H12   N22   S    
H2    N26   S    
H22   N11   S    
H42   N25   S    
H9    N5    S    
C40   C49   A    
C30   N6    S    
C52   N7    S    
H39   N19   S    
H18   N9    S    
Cu1   N20   S    
C34   C51   A    
C32   N4    S    
C36   N1    A    
H3    N2    S    
C31   N3    S    
H1    N22   S    
C20   N24   S    
C36   C45   A    
C42   N10   S    
Br4   C48   S    
Cu1   Cu2   S    
H10   N5    S    
C22   C28   S    
C33   N20   S    
C21   C24   S    
C31   C35   S    
C17   O11   A    
C30   C35   S    
H16   N8    S    
Cu2   O10   S    
H15   N7    S    
C18   N16   S    
C46   C48   A    
C48   C50   A    
C47   C49   A    
C21   C28   S    
C40   C42   A    
C39   O3    S    
C44   C47   A    
C21   C25   S    
H38   N19   S    
C6    C10   A    
H31   N16   S    
C15   C54   A    
C41   C43   A    
H27   N14   S    
Br1   C33   S    
Cu1   O7    S    
C10   C23   A    
C49   N1    S    
H28   N14   S    
C12   O5    A    
C29   C33   S    
H25   N13   S    
H7    N4    S    
C20   C27   S    
C23   C54   A    
H19   N9    S    
C25   C27   S    
H14   N7    S    
C45   C52   A    
Cu2   O6    S    
H26   N13   S    
C29   N21   S    
C19   N17   S    
H32   N16   S    
C27   N26   S    
C43   N9    S    
C7    C9    A    
C36   O12   S    
C8    C10   A    
C44   N22   S    
Cu2   O9    S    
C14   N14   S    
C29   N5    S    
H44   N26   S    
H11   N6    S    
C31   N20   S    
C23   C45   A    
C38   N1    A    
H33   N17   S    
C5    C11   A    
C1    C26   S    
C24   C27   S    
C29   C31   S    
C50   N12   S    
H21   N10   S    
C22   C25   S    
C30   N20   S    
C3    C44   A    
H40   N24   S    
H4    N2    S    
C4    C46   A    
C1    O6    A    
C16   O10   A    
C22   N18   S    
Cu1   O8    S    
C4    C17   S    
C2    C34   A    
C20   C22   S    
C28   N2    S    
C30   C32   S    
H20   N10   S    
H35   N17   S    
H30   N15   S    
C24   C26   S    
Br3   C47   S    
C32   C33   S    
C38   C54   A    
C53   N8    S    
C6    C13   A    
C40   N13   S    
H24   N11   S    
H6    N3    S    
Cu2   O5    S    
C15   N15   S    
C12   O7    A    
H41   N24   S    
C9    C34   A    
C24   N19   S    
Cu1   O11   S    
C37   C51   A    
C37   N12   A    
C41   N11   S    
C6    C7    A    
C3    C42   A    
C18   C52   A    
H29   N15   S    
H17   N8    S    
C17   O9    A    
C41   C50   A    
C12   C25   S    
C19   C53   A    
C4    C43   A    
C26   C28   S    
H37   N18   S    
