data_mof_unit_38252.cif
_audit_creation_date              2012-12-10T18:09:35-0500
_audit_creation_method            fapswitch 2.2
_symmetry_space_group_name_H-M    P1
_symmetry_Int_Tables_number       1
_space_group_crystal_system       triclinic
_cell_length_a                    15.140202
_cell_length_b                    15.264263
_cell_length_c                    9.412311
_cell_angle_alpha                 90.191298
_cell_angle_beta                  89.933825
_cell_angle_gamma                 89.99925
_cell_volume                      2175.20938333

loop_
_atom_site_label
_atom_site_type_symbol
_atom_type_description
_atom_site_fract_x
_atom_site_fract_y
_atom_site_fract_z
_atom_type_partial_charge
C1    C     C_R   0.118826 0.378774 0.499617 0.781714
C2    C     C_R   0.119406 0.620678 0.500316 0.783822
C3    C     C_R   0.618826 0.878775 0.499617 0.781711
C4    C     C_R   0.619406 0.120677 0.500316 0.783824
C5    C     C_3   0.067290 0.437931 0.083303 -0.187071
C6    C     C_3   0.067560 0.438214 0.915923 -0.187926
C7    C     C_3   0.567229 0.937865 0.083303 -0.187070
C8    C     C_3   0.567498 0.938145 0.915923 -0.187931
C9    C     C_R   0.879261 0.380566 0.500150 0.770091
C10   C     C_R   0.879222 0.619381 0.499881 0.771627
C11   C     C_R   0.379260 0.880566 0.500150 0.770083
C12   C     C_R   0.379222 0.119381 0.499881 0.771625
C13   C     C_3   0.769739 0.300510 0.653981 -0.154248
C14   C     C_3   0.850224 0.221069 0.455242 -0.156730
C15   C     C_3   0.851370 0.780546 0.527886 -0.157225
C16   C     C_3   0.763040 0.692558 0.349844 -0.151358
C17   C     C_3   0.269742 0.800507 0.653983 -0.154252
C18   C     C_3   0.350222 0.721071 0.455229 -0.156730
C19   C     C_3   0.351369 0.280545 0.527886 -0.157227
C20   C     C_3   0.263039 0.192557 0.349844 -0.151364
C21   C     C_3   0.200554 0.726655 0.653829 -0.403402
C22   C     C_3   0.276753 0.650416 0.449885 -0.408310
C23   C     C_3   0.277833 0.351077 0.534509 -0.406267
C24   C     C_3   0.193026 0.265833 0.349715 -0.404231
C25   C     C_3   0.700553 0.226657 0.653827 -0.403402
C26   C     C_3   0.776754 0.150415 0.449890 -0.408307
C27   C     C_3   0.777834 0.851077 0.534508 -0.406267
C28   C     C_3   0.693026 0.765833 0.349715 -0.404231
C29   C     C_3   0.733783 0.335958 0.397370 -0.355696
C30   C     C_3   0.738498 0.668572 0.613979 -0.359114
C31   C     C_3   0.233779 0.835962 0.397379 -0.355692
C32   C     C_3   0.238498 0.168572 0.613980 -0.359116
C33   C     C_3   0.809808 0.311532 0.500902 0.045606
C34   C     C_3   0.809579 0.688192 0.498938 0.047780
C35   C     C_3   0.309807 0.811533 0.500902 0.045606
C36   C     C_3   0.309579 0.188192 0.498938 0.047785
C37   C     C_3   0.188002 0.689567 0.501366 0.116213
C38   C     C_3   0.187286 0.309749 0.498434 0.116452
C39   C     C_3   0.688003 0.189567 0.501365 0.116213
C40   C     C_3   0.687286 0.809750 0.498434 0.116454
C41   C     C_3   0.160868 0.765620 0.401539 -0.386268
C42   C     C_3   0.165071 0.238275 0.609833 -0.386703
C43   C     C_3   0.660871 0.265618 0.401534 -0.386274
C44   C     C_3   0.665072 0.738277 0.609834 -0.386709
C45   C     C_3   0.022419 0.587847 0.084280 -0.191873
C46   C     C_3   0.021710 0.587943 0.916818 -0.185021
C47   C     C_3   0.913896 0.474659 0.083702 -0.182309
C48   C     C_3   0.914092 0.474059 0.916342 -0.178932
C49   C     C_3   0.522507 0.087828 0.084280 -0.191874
C50   C     C_3   0.521802 0.087923 0.916819 -0.185053
C51   C     C_3   0.413869 0.974745 0.083703 -0.182269
C52   C     C_3   0.414064 0.974146 0.916342 -0.178889
Cu1   Cu    Cu3+1 0.000100 0.500000 0.642410 0.905136
Cu2   Cu    Cu3+1 0.000100 0.500000 0.357590 0.906123
Cu3   Cu    Cu3+1 0.500100 1.000000 0.642410 0.905139
Cu4   Cu    Cu3+1 0.500100 1.000000 0.357590 0.906123
H1    H     H_    0.823349 0.281773 0.728864 0.122250
H2    H     H_    0.899829 0.201310 0.536274 0.106744
H3    H     H_    0.896410 0.796594 0.438069 0.107747
H4    H     H_    0.813196 0.708648 0.267296 0.122901
H5    H     H_    0.323354 0.781767 0.728860 0.122262
H6    H     H_    0.399832 0.701312 0.536252 0.106739
H7    H     H_    0.396409 0.296594 0.438069 0.107747
H8    H     H_    0.313195 0.208645 0.267296 0.122908
H9    H     H_    0.223404 0.673623 0.726048 0.154432
H10   H     H_    0.295830 0.594363 0.518803 0.138709
H11   H     H_    0.293334 0.404171 0.457521 0.138994
H12   H     H_    0.211830 0.315375 0.268472 0.154783
H13   H     H_    0.723404 0.173627 0.726048 0.154423
H14   H     H_    0.795828 0.094360 0.518807 0.138709
H15   H     H_    0.793335 0.904171 0.457519 0.138996
H16   H     H_    0.711828 0.815374 0.268471 0.154782
H17   H     H_    0.135708 0.749756 0.695962 0.188067
H18   H     H_    0.268228 0.623476 0.340495 0.169365
H19   H     H_    0.274025 0.382458 0.641504 0.167040
H20   H     H_    0.126584 0.240591 0.318983 0.182049
H21   H     H_    0.635705 0.249757 0.695958 0.188068
H22   H     H_    0.768231 0.123477 0.340498 0.169364
H23   H     H_    0.774027 0.882459 0.641503 0.167039
H24   H     H_    0.626584 0.740590 0.318986 0.182037
H25   H     H_    0.705125 0.400426 0.427194 0.187575
H26   H     H_    0.759176 0.342141 0.286884 0.183060
H27   H     H_    0.768884 0.668099 0.721573 0.182247
H28   H     H_    0.709288 0.602583 0.596493 0.183865
H29   H     H_    0.205120 0.900428 0.427213 0.187573
H30   H     H_    0.259168 0.842152 0.286892 0.183063
H31   H     H_    0.268884 0.168101 0.721574 0.182244
H32   H     H_    0.209288 0.102582 0.596497 0.183861
H33   H     H_    0.097922 0.795428 0.439314 0.162168
H34   H     H_    0.149349 0.740781 0.291807 0.169580
H35   H     H_    0.158145 0.267839 0.717517 0.170248
H36   H     H_    0.100913 0.206690 0.582983 0.159415
H37   H     H_    0.597925 0.295428 0.439308 0.162171
H38   H     H_    0.649351 0.240777 0.291803 0.169579
H39   H     H_    0.658148 0.767840 0.717518 0.170251
H40   H     H_    0.600914 0.706692 0.582987 0.159413
H41   H     H_    0.088794 0.609271 0.120747 0.143754
H42   H     H_    0.087252 0.610645 0.878730 0.145911
H43   H     H_    0.895143 0.408265 0.121037 0.164500
H44   H     H_    0.896495 0.407057 0.879770 0.149068
H45   H     H_    0.588905 0.109186 0.120746 0.143754
H46   H     H_    0.587371 0.110555 0.878738 0.145881
H47   H     H_    0.395048 0.908368 0.121038 0.164465
H48   H     H_    0.396397 0.907162 0.879769 0.149086
H49   H     H_    0.974567 0.637219 0.125004 0.142396
H50   H     H_    0.972390 0.636201 0.878833 0.171781
H51   H     H_    0.862022 0.520223 0.123097 0.156550
H52   H     H_    0.861698 0.518638 0.876263 0.159518
H53   H     H_    0.474704 0.137247 0.125003 0.142391
H54   H     H_    0.472535 0.136234 0.878827 0.171795
H55   H     H_    0.362040 0.020360 0.123096 0.156530
H56   H     H_    0.361714 0.018778 0.876266 0.159492
H57   H     H_    0.134414 0.455109 0.122535 0.136091
H58   H     H_    0.134688 0.455947 0.877268 0.139941
H59   H     H_    0.053125 0.370415 0.121172 0.163264
H60   H     H_    0.053895 0.370675 0.876954 0.143701
H61   H     H_    0.634372 0.954980 0.122526 0.136087
H62   H     H_    0.634645 0.955811 0.877270 0.139949
H63   H     H_    0.553000 0.870363 0.121180 0.163306
H64   H     H_    0.553764 0.870619 0.876950 0.143697
N1    N     N_3   0.001260 0.500000 0.143650 -0.121824
N2    N     N_3   0.001260 0.500000 0.856350 -0.126076
N3    N     N_3   0.501260 1.000000 0.143650 -0.121824
N4    N     N_3   0.501260 0.000000 0.856350 -0.126067
O1    O     O_R   0.091250 0.408820 0.620260 -0.600606
O2    O     O_R   0.091250 0.408820 0.379740 -0.594311
O3    O     O_R   0.091250 0.591180 0.620260 -0.593224
O4    O     O_R   0.091250 0.591180 0.379740 -0.599558
O5    O     O_R   0.591250 0.908820 0.620260 -0.600606
O6    O     O_R   0.591250 0.908820 0.379740 -0.594315
O7    O     O_R   0.591250 0.091180 0.620260 -0.593225
O8    O     O_R   0.591250 0.091180 0.379740 -0.599562
O9    O     O_R   0.908940 0.408800 0.620260 -0.598974
O10   O     O_R   0.908940 0.408800 0.379740 -0.579913
O11   O     O_R   0.908940 0.591200 0.620260 -0.580581
O12   O     O_R   0.908940 0.591200 0.379740 -0.599354
O13   O     O_R   0.408940 0.908800 0.620260 -0.598969
O14   O     O_R   0.408940 0.908800 0.379740 -0.579906
O15   O     O_R   0.408940 0.091200 0.620260 -0.580578
O16   O     O_R   0.408940 0.091200 0.379740 -0.599355
C53   C     C_1   0.729825 0.382331 0.709600 0.235806
N5    N     N_1   0.698483 0.446112 0.753285 -0.319091
C54   C     C_1   0.897363 0.224122 0.317622 0.234294
N6    N     N_1   0.934285 0.226320 0.209961 -0.330284
C55   C     C_1   0.905675 0.784613 0.658018 0.225330
N7    N     N_1   0.948322 0.788881 0.759706 -0.330351
C56   C     C_1   0.722267 0.608571 0.306670 0.233422
N8    N     N_1   0.690029 0.543266 0.271779 -0.324298
C57   C     C_1   0.229832 0.882327 0.709612 0.235799
N9    N     N_1   0.198493 0.946108 0.753304 -0.319086
C58   C     C_1   0.397350 0.724129 0.317600 0.234317
N10   N     N_1   0.434263 0.726331 0.209932 -0.330296
C59   C     C_1   0.405674 0.284614 0.658018 0.225340
N11   N     N_1   0.448320 0.288882 0.759706 -0.330352
C60   C     C_1   0.222264 0.108570 0.306674 0.233406
N12   N     N_1   0.190024 0.043266 0.271786 -0.324290

loop_
_geom_bond_atom_site_label_1
_geom_bond_atom_site_label_2
_ccdc_geom_bond_type
C16   C28   S    
C41   H33   S    
Cu3   Cu4   S    
C31   H29   S    
C20   C60   S    
C29   C33   S    
C3    O6    A    
C51   N3    S    
C7    H61   S    
C56   N8    T    
Cu1   O11   S    
C52   H56   S    
C13   C25   S    
C14   C33   S    
C55   N7    T    
C8    H62   S    
C7    C8    S    
C4    O8    A    
C45   C46   S    
C29   H25   S    
Cu2   O2    S    
C26   H22   S    
Cu3   O15   S    
C16   C56   S    
C25   H21   S    
C32   C36   S    
C11   O14   A    
C1    O1    A    
C38   C42   S    
C27   H23   S    
C19   C36   S    
C37   C41   S    
C49   H45   S    
C5    C6    S    
Cu4   O16   S    
C26   C39   S    
C47   N1    S    
C13   H1    S    
C28   C40   S    
C51   H47   S    
C54   N6    T    
C32   H32   S    
C21   H17   S    
C50   H54   S    
C43   H38   S    
C47   H43   S    
C42   H35   S    
C16   H4    S    
C23   H11   S    
C30   H27   S    
C6    H58   S    
Cu1   O3    S    
C17   H5    S    
Cu3   N4    S    
C21   H9    S    
C22   H10   S    
C20   C24   S    
C19   H7    S    
Cu3   O5    S    
C24   C38   S    
C58   N10   T    
C12   O16   A    
C22   C37   S    
C13   C53   S    
C12   C36   S    
C18   C35   S    
C15   C34   S    
C16   C34   S    
C2    O3    A    
C41   H34   S    
C46   H42   S    
C31   H30   S    
C18   C22   S    
C5    H59   S    
C9    C33   S    
C30   C44   S    
C28   H16   S    
C14   H2    S    
C45   H49   S    
C4    O7    A    
C48   H44   S    
C30   C34   S    
C51   C52   S    
Cu4   N3    S    
C7    H63   S    
C22   H18   S    
Cu1   O9    S    
C1    O2    A    
C23   H19   S    
C15   C55   S    
C8    N4    S    
C39   C43   S    
C45   N1    S    
Cu1   Cu2   S    
C32   H31   S    
Cu2   O4    S    
C17   C21   S    
C20   H8    S    
C19   C23   S    
C13   C33   S    
C44   H40   S    
Cu4   O14   S    
C15   C27   S    
C47   C48   S    
C4    C39   S    
C27   C40   S    
C10   O12   A    
Cu2   O12   S    
C12   O15   A    
C50   N4    S    
C10   C34   S    
C14   C26   S    
C6    H60   S    
Cu4   O8    S    
Cu1   O1    S    
C1    C38   S    
C29   C43   S    
Cu2   N1    S    
C3    C40   S    
C50   H46   S    
Cu3   O7    S    
C19   C59   S    
C31   C35   S    
C25   H13   S    
C6    N2    S    
C18   C58   S    
C27   H15   S    
C8    H64   S    
C49   H53   S    
C9    O9    A    
C14   C54   S    
C52   H48   S    
C5    N1    S    
C51   H55   S    
C31   C41   S    
C5    H57   S    
C3    O5    A    
C15   H3    S    
C17   C57   S    
C7    N3    S    
C23   C38   S    
C47   H51   S    
Cu3   O13   S    
Cu1   N2    S    
C11   C35   S    
C11   O13   A    
C10   O11   A    
C44   H39   S    
C45   H41   S    
C57   N9    T    
C9    O10   A    
C48   N2    S    
C52   N4    S    
C2    C37   S    
C48   H52   S    
C26   H14   S    
C46   H50   S    
C43   H37   S    
C42   H36   S    
C30   H28   S    
C28   H24   S    
Cu4   O6    S    
C24   H12   S    
C24   H20   S    
C20   C36   S    
C40   C44   S    
C21   C37   S    
C29   H26   S    
C49   N3    S    
C49   C50   S    
C60   N12   T    
C32   C42   S    
C46   N2    S    
C18   H6    S    
C17   C35   S    
C59   N11   T    
C53   N5    T    
C25   C39   S    
C2    O4    A    
Cu2   O10   S    
