data_mof_unit_42410.cif
_audit_creation_date              2012-10-26T20:16:51-0400
_audit_creation_method            fapswitch 2.2
_symmetry_space_group_name_H-M    P1
_symmetry_Int_Tables_number       1
_space_group_crystal_system       triclinic
_cell_length_a                    10.919938
_cell_length_b                    10.907485
_cell_length_c                    10.443444
_cell_angle_alpha                 91.915014
_cell_angle_beta                  91.788384
_cell_angle_gamma                 90.706363
_cell_volume                      1242.49719105

loop_
_atom_site_label
_atom_site_type_symbol
_atom_type_description
_atom_site_fract_x
_atom_site_fract_y
_atom_site_fract_z
_atom_type_partial_charge
C1    C     C_R   0.498630 0.261421 0.497788 0.540890
C2    C     C_R   0.575401 0.855785 0.820477 0.079611
C3    C     C_R   0.520266 0.105995 0.252581 0.077029
C4    C     C_R   0.472206 0.893537 0.746938 0.068636
C5    C     C_R   0.636954 0.112785 0.200532 -0.102161
C6    C     C_R   0.356476 0.895710 0.801610 -0.105019
C7    C     C_R   0.650546 0.147222 0.074539 -0.129668
C8    C     C_R   0.342150 0.859517 0.926986 -0.129453
C9    C     C_R   0.547956 0.175550 0.999008 -0.113906
C10   C     C_R   0.443006 0.820001 0.999037 -0.119517
C11   C     C_R   0.515279 0.929602 0.388765 -0.162800
C12   C     C_R   0.500057 0.738610 0.502174 0.542170
C13   C     C_R   0.482468 0.070564 0.611398 -0.158047
C14   C     C_R   0.500369 0.872233 0.505110 -0.020805
C15   C     C_R   0.496448 0.127872 0.494817 -0.011388
C16   C     C_R   0.261427 0.500924 0.497684 0.542112
C17   C     C_R   0.738646 0.498753 0.502413 0.542728
C18   C     C_R   0.484521 0.944066 0.618346 -0.040138
C19   C     C_R   0.510452 0.056021 0.381466 -0.028544
C20   C     C_1   0.500007 0.499932 0.071992 0.086784
C21   C     C_1   0.499848 0.499958 0.928000 0.084338
C22   C     C_R   0.199083 0.572701 0.068794 -0.106284
C23   C     C_R   0.872301 0.496272 0.506282 -0.009788
C24   C     C_R   0.797324 0.434129 0.932880 -0.106951
C25   C     C_R   0.161247 0.580320 0.195401 -0.054855
C26   C     C_R   0.834595 0.424134 0.806144 -0.052529
C27   C     C_R   0.104272 0.478890 0.249151 0.057382
C28   C     C_R   0.897220 0.522077 0.752168 0.049927
C29   C     C_R   0.080437 0.372517 0.172314 -0.108135
C30   C     C_R   0.928775 0.626308 0.829864 -0.115763
C31   C     C_R   0.117629 0.365891 0.045431 -0.117231
C32   C     C_R   0.891444 0.635668 0.956545 -0.117403
C33   C     C_R   0.178363 0.465350 0.994295 -0.091260
C34   C     C_R   0.127890 0.502362 0.494206 -0.010042
C35   C     C_R   0.824486 0.540174 0.007513 -0.098128
C36   C     C_R   0.929045 0.484098 0.388250 -0.156079
C37   C     C_R   0.071325 0.513783 0.612195 -0.154898
C38   C     C_3   0.286578 0.129523 0.227267 -0.264615
C39   C     C_3   0.242903 0.000791 0.259814 -0.453889
C40   C     C_3   0.702513 0.852294 0.767129 -0.264090
C41   C     C_3   0.788667 0.945843 0.835903 -0.461867
C42   C     C_R   0.944981 0.510116 0.620922 -0.035101
C43   C     C_R   0.055420 0.488544 0.379796 -0.036713
C44   C     C_R   0.431106 0.169086 0.049227 -0.082808
C45   C     C_R   0.558762 0.817546 0.946139 -0.077115
C46   C     C_R   0.415111 0.133286 0.176052 0.073647
Cu1   Cu    Cu3+1 0.500000 0.500000 0.625300 0.963744
Cu2   Cu    Cu3+1 0.500000 0.500000 0.374700 0.967977
H1    H     H_    0.208940 0.459407 0.896877 0.115491
H2    H     H_    0.746823 0.360023 0.973243 0.102827
H3    H     H_    0.176195 0.664877 0.251410 0.099597
H4    H     H_    0.814441 0.340556 0.750092 0.103891
H5    H     H_    0.032586 0.294979 0.210667 0.093727
H6    H     H_    0.981184 0.700967 0.791735 0.098842
H7    H     H_    0.099538 0.283547 0.986840 0.093861
H8    H     H_    0.914232 0.717050 0.014998 0.100412
H9    H     H_    0.874464 0.472377 0.300212 0.134113
H10   H     H_    0.126157 0.525142 0.700069 0.134451
H11   H     H_    0.559155 0.203058 0.901470 0.110087
H12   H     H_    0.793977 0.548187 0.104879 0.114995
H13   H     H_    0.431487 0.790623 0.095893 0.107662
H14   H     H_    0.352988 0.191746 0.988493 0.097464
H15   H     H_    0.635697 0.785776 0.003394 0.104178
H16   H     H_    0.141178 0.996712 0.255917 0.125212
H17   H     H_    0.277098 0.930720 0.191047 0.148207
H18   H     H_    0.273003 0.978446 0.358503 0.160703
H19   H     H_    0.281238 0.192097 0.312989 0.160744
H20   H     H_    0.220845 0.163346 0.154124 0.131175
H21   H     H_    0.754062 0.040009 0.822293 0.151121
H22   H     H_    0.797073 0.928254 0.939881 0.141923
H23   H     H_    0.717510 0.089423 0.257360 0.096826
H24   H     H_    0.881114 0.939324 0.795033 0.130195
H25   H     H_    0.738183 0.758681 0.777240 0.167256
H26   H     H_    0.702618 0.870268 0.663384 0.146030
H27   H     H_    0.277430 0.927171 0.747332 0.096834
H28   H     H_    0.741011 0.151337 0.035470 0.093458
H29   H     H_    0.252461 0.862341 0.968074 0.093893
H30   H     H_    0.528188 0.875802 0.301138 0.135503
H31   H     H_    0.470181 0.124446 0.699020 0.132924
H32   H     H_    0.244258 0.649920 0.028146 0.101892
N1    N     N_1   0.500010 0.499990 0.186410 -0.196761
N2    N     N_1   0.499990 0.500010 0.813590 -0.199139
O1    O     O_R   0.499990 0.319650 0.605810 -0.513701
O2    O     O_R   0.500010 0.680350 0.394190 -0.513234
O3    O     O_R   0.499990 0.319640 0.394190 -0.488833
O4    O     O_R   0.500010 0.680360 0.605810 -0.487951
O5    O     O_R   0.319640 0.500010 0.605810 -0.509327
O6    O     O_R   0.680360 0.499990 0.394190 -0.508811
O7    O     O_R   0.319650 0.500010 0.394190 -0.492254
O8    O     O_R   0.680350 0.499990 0.605810 -0.495470

loop_
_geom_bond_atom_site_label_1
_geom_bond_atom_site_label_2
_ccdc_geom_bond_type
C13   H31   S    
C5    H23   S    
C27   C29   A    
C17   O6    A    
C32   C35   A    
C14   C18   A    
C6    H27   S    
C40   H25   S    
C15   C19   A    
C39   H16   S    
C30   H6    S    
C11   C19   A    
C17   C23   S    
C23   C42   A    
C13   C18   A    
C24   C26   A    
C38   C39   S    
C11   C14   A    
C33   H1    S    
C34   C37   A    
Cu2   N1    S    
C12   O2    A    
Cu1   N2    S    
C37   C42   A    
C16   C34   S    
C22   C25   A    
C16   O5    A    
Cu2   O6    S    
C2    C40   S    
C3    C19   S    
C1    C15   S    
Cu1   O1    S    
C37   H10   S    
C4    C18   S    
C16   O7    A    
C20   N1    T    
C1    O3    A    
C39   H17   S    
C44   C46   A    
C2    C45   A    
C24   H2    S    
C24   C35   A    
C34   C43   A    
Cu1   O4    S    
C4    C6    A    
C36   H9    S    
C5    C7    A    
C6    C8    A    
C44   H14   S    
C45   H15   S    
Cu2   O2    S    
C35   H12   S    
C9    H11   S    
Cu1   O5    S    
C2    C4    A    
C25   H3    S    
C11   H30   S    
C26   H4    S    
Cu1   Cu2   S    
C10   C45   A    
C31   C33   A    
C38   H19   S    
C41   H24   S    
C40   C41   S    
C12   C14   S    
Cu2   O7    S    
C13   C15   A    
C8    H29   S    
C39   H18   S    
C10   H13   S    
C25   C27   A    
C41   H21   S    
C7    C9    A    
C22   C33   A    
C9    C44   A    
C17   O8    A    
C38   H20   S    
C3    C5    A    
C7    H28   S    
C1    O1    A    
C3    C46   A    
C26   C28   A    
C12   O4    A    
C28   C30   A    
C22   H32   S    
C29   C31   A    
C30   C32   A    
C21   N2    T    
C29   H5    S    
C28   C42   S    
Cu1   O8    S    
C40   H26   S    
C38   C46   S    
C27   C43   S    
C20   C21   S    
C8    C10   A    
C23   C36   A    
Cu2   O3    S    
C36   C43   A    
C31   H7    S    
C32   H8    S    
C41   H22   S    
