data_mof_unit_63125.cif
_audit_creation_date              2012-12-10T19:07:48-0500
_audit_creation_method            fapswitch 2.2
_symmetry_space_group_name_H-M    P1
_symmetry_Int_Tables_number       1
_space_group_crystal_system       triclinic
_cell_length_a                    37.405523
_cell_length_b                    30.272801
_cell_length_c                    21.617269
_cell_angle_alpha                 89.999973
_cell_angle_beta                  53.943239
_cell_angle_gamma                 90.000035
_cell_volume                      19789.4577717

loop_
_atom_site_label
_atom_site_type_symbol
_atom_type_description
_atom_site_fract_x
_atom_site_fract_y
_atom_site_fract_z
_atom_type_partial_charge
C1    C     C_R   0.086194 0.500018 0.412454 0.892741
C2    C     C_R   0.913806 0.500018 0.587546 0.892748
C3    C     C_R   0.586194 0.000018 0.412454 0.892740
C4    C     C_R   0.413806 0.000018 0.587546 0.892738
C5    C     C_R   0.000739 0.498689 0.814086 -0.078810
C6    C     C_R   0.999260 0.498689 0.185913 -0.078807
C7    C     C_R   0.500739 0.998688 0.814086 -0.078811
C8    C     C_R   0.499260 0.998688 0.185914 -0.078811
C9    C     C_R   0.022324 0.530940 0.758547 0.078461
C10   C     C_R   0.977678 0.530941 0.241450 0.078458
C11   C     C_R   0.522325 0.030939 0.758547 0.078460
C12   C     C_R   0.477675 0.030939 0.241454 0.078461
C13   C     C_3   0.046900 0.573438 0.738870 -0.529849
C14   C     C_3   0.953105 0.573441 0.261124 -0.529852
C15   C     C_3   0.546901 0.073437 0.738869 -0.529848
C16   C     C_3   0.453098 0.073436 0.261132 -0.529847
C17   C     C_3   0.045388 0.574584 0.668896 -0.102978
C18   C     C_3   0.954617 0.574588 0.331098 -0.102975
C19   C     C_3   0.545390 0.074584 0.668895 -0.102977
C20   C     C_3   0.454609 0.074583 0.331106 -0.102978
C21   C     C_R   0.202916 0.530096 0.252263 -0.248098
C22   C     C_R   0.797084 0.530090 0.747745 -0.248112
C23   C     C_R   0.702916 0.030097 0.252263 -0.248097
C24   C     C_R   0.297084 0.030097 0.747735 -0.248094
C25   C     C_R   0.156908 0.531369 0.301063 0.198921
C26   C     C_R   0.843093 0.531362 0.698946 0.198920
C27   C     C_R   0.656908 0.031370 0.301064 0.198920
C28   C     C_R   0.343092 0.031370 0.698934 0.198920
C29   C     C_R   0.134100 0.500102 0.360756 -0.070447
C30   C     C_R   0.865900 0.500102 0.639242 -0.070437
C31   C     C_R   0.634100 0.000102 0.360756 -0.070447
C32   C     C_R   0.365899 0.000102 0.639244 -0.070449
C33   C     C_R   0.157435 0.468167 0.370647 -0.257919
C34   C     C_R   0.842565 0.468172 0.629340 -0.257926
C35   C     C_R   0.657435 0.968166 0.370646 -0.257919
C36   C     C_R   0.342565 0.968165 0.629356 -0.257918
C37   C     C_R   0.203265 0.468471 0.323808 -0.159498
C38   C     C_R   0.796736 0.468477 0.676178 -0.159477
C39   C     C_R   0.703265 0.968470 0.323807 -0.159499
C40   C     C_R   0.296735 0.968469 0.676195 -0.159502
C41   C     C_R   0.225768 0.499756 0.265440 0.129504
C42   C     C_R   0.774232 0.499756 0.734557 0.129498
C43   C     C_R   0.725768 0.999756 0.265440 0.129503
C44   C     C_R   0.274231 0.999756 0.734560 0.129504
C45   C     C_R   0.999646 0.499924 0.620396 0.886539
C46   C     C_R   0.000354 0.499924 0.379604 0.886534
C47   C     C_R   0.499646 0.999924 0.620396 0.886535
C48   C     C_R   0.500354 0.999923 0.379604 0.886534
C49   C     C_R   0.293361 0.523669 0.251533 0.220126
C50   C     C_R   0.706639 0.523670 0.748467 0.220122
C51   C     C_R   0.793361 0.023668 0.251533 0.220126
C52   C     C_R   0.206639 0.023667 0.748467 0.220126
C53   C     C_R   0.339980 0.523118 0.209763 0.024772
C54   C     C_R   0.660020 0.523119 0.790237 0.024775
C55   C     C_R   0.839979 0.023117 0.209764 0.024773
C56   C     C_R   0.160021 0.023116 0.790236 0.024773
C57   C     C_R   0.365197 0.502452 0.136294 -0.103839
C58   C     C_R   0.634803 0.502452 0.863706 -0.103838
C59   C     C_R   0.865197 0.002452 0.136294 -0.103840
C60   C     C_R   0.134803 0.002451 0.863706 -0.103840
C61   C     C_R   0.343957 0.482997 0.107144 -0.234730
C62   C     C_R   0.656043 0.482997 0.892855 -0.234732
C63   C     C_R   0.843957 0.982997 0.107143 -0.234731
C64   C     C_R   0.156042 0.982997 0.892857 -0.234732
C65   C     C_R   0.298478 0.482852 0.149334 -0.242388
C66   C     C_R   0.701523 0.482852 0.850665 -0.242385
C67   C     C_R   0.798478 0.982853 0.149333 -0.242388
C68   C     C_R   0.201522 0.982852 0.850667 -0.242388
C69   C     C_R   0.273426 0.502560 0.221053 0.050622
C70   C     C_R   0.726574 0.502560 0.778945 0.050625
C71   C     C_R   0.773426 0.002559 0.221053 0.050622
C72   C     C_R   0.226574 0.002559 0.778947 0.050622
C73   C     C_R   0.000000 0.634172 0.000000 -0.033375
C74   C     C_R   0.500000 0.134172 1.000000 -0.033376
C75   C     C_R   0.000000 0.725786 1.000000 0.175077
C76   C     C_R   0.500000 0.225786 1.000000 0.175077
C77   C     C_R   0.500000 0.725727 0.000000 0.046103
C78   C     C_R   1.000000 0.225727 1.000000 0.046103
C79   C     C_R   1.000000 0.413744 0.000000 0.857819
C80   C     C_R   0.500000 0.913744 0.000000 0.857819
C81   C     C_R   0.960787 0.657246 0.027430 -0.208544
C82   C     C_R   0.039213 0.657246 0.972570 -0.208544
C83   C     C_R   0.460787 0.157246 0.027430 -0.208543
C84   C     C_R   0.539213 0.157246 0.972570 -0.208544
C85   C     C_R   0.000232 0.500078 0.879893 0.891420
C86   C     C_R   0.999768 0.500078 0.120107 0.891419
C87   C     C_R   0.500232 0.000078 0.879893 0.891419
C88   C     C_R   0.499768 0.000078 0.120107 0.891418
C89   C     C_R   1.000000 0.586203 0.000000 0.866731
C90   C     C_R   0.500000 0.086203 1.000000 0.866731
C91   C     C_R   0.500000 0.365657 1.000000 -0.095136
C92   C     C_R   1.000000 0.865657 1.000000 -0.095136
C93   C     C_R   0.500000 0.413669 0.000000 0.908317
C94   C     C_R   0.000000 0.913669 0.000000 0.908317
C95   C     C_R   0.413550 0.501128 0.087052 0.870212
C96   C     C_R   0.586450 0.501128 0.912948 0.870210
C97   C     C_R   0.913550 0.001128 0.087052 0.870211
C98   C     C_R   0.086450 0.001128 0.912948 0.870211
C99   C     C_R   0.508731 0.342672 0.045920 -0.273177
C100  C     C_R   0.491269 0.342672 0.954080 -0.273175
C101  C     C_R   0.008731 0.842672 0.045920 -0.273176
C102  C     C_R   0.991269 0.842672 0.954080 -0.273177
C103  C     C_R   0.500000 0.585983 0.000000 0.847221
C104  C     C_R   1.000000 0.085983 1.000000 0.847223
C105  C     C_R   0.031358 0.297332 0.003216 -0.176020
C106  C     C_R   0.968643 0.297332 0.996783 -0.176021
C107  C     C_R   0.531356 0.797332 0.003221 -0.176019
C108  C     C_R   0.468644 0.797332 0.996780 -0.176020
C109  C     C_R   0.031708 0.343131 0.002166 -0.198878
C110  C     C_R   0.968292 0.343131 0.997833 -0.198877
C111  C     C_R   0.531707 0.843131 0.002170 -0.198877
C112  C     C_R   0.468293 0.843131 0.997830 -0.198877
C113  C     C_R   1.000000 0.366008 1.000000 -0.015472
C114  C     C_R   0.500000 0.866009 0.000000 -0.015470
C115  C     C_R   0.508443 0.296718 0.046828 0.194056
C116  C     C_R   0.491557 0.296718 0.953172 0.194056
C117  C     C_R   0.008443 0.796718 0.046828 0.194055
C118  C     C_R   0.991557 0.796718 0.953172 0.194056
C119  C     C_R   1.000000 0.274100 1.000000 0.138076
C120  C     C_R   0.500000 0.774100 0.000000 0.138074
C121  C     C_R   0.459940 0.702655 0.040573 -0.203535
C122  C     C_R   0.540060 0.702655 0.959428 -0.203534
C123  C     C_R   0.959940 0.202655 0.040575 -0.203534
C124  C     C_R   0.040060 0.202655 0.959424 -0.203535
C125  C     C_R   0.459319 0.656668 0.039417 0.072933
C126  C     C_R   0.540681 0.656668 0.960584 0.072933
C127  C     C_R   0.959319 0.156668 0.039420 0.072933
C128  C     C_R   0.040681 0.156668 0.960580 0.072934
C129  C     C_R   0.500000 0.633659 0.000000 -0.068328
C130  C     C_R   1.000000 0.133659 1.000000 -0.068328
C131  C     C_R   0.500000 0.273741 1.000000 0.014671
C132  C     C_R   0.000000 0.773741 1.000000 0.014671
C133  C     C_R   0.960862 0.703011 0.027129 -0.157032
C134  C     C_R   0.039138 0.703011 0.972871 -0.157031
C135  C     C_R   0.460862 0.203011 0.027128 -0.157032
C136  C     C_R   0.539138 0.203011 0.972871 -0.157031
C137  C     C_R   0.020849 0.531807 0.698013 0.121137
C138  C     C_R   0.979153 0.531808 0.301985 0.121139
C139  C     C_R   0.520850 0.031806 0.698012 0.121137
C140  C     C_R   0.479150 0.031806 0.301988 0.121136
C141  C     C_R   0.999352 0.499366 0.686377 -0.128006
C142  C     C_R   0.000648 0.499366 0.313623 -0.128010
C143  C     C_R   0.499352 0.999366 0.686377 -0.128006
C144  C     C_R   0.500648 0.999366 0.313623 -0.128005
C145  C     C_R   0.978173 0.464966 0.740415 -0.209355
C146  C     C_R   0.021824 0.464965 0.259587 -0.209353
C147  C     C_R   0.478173 0.964966 0.740416 -0.209355
C148  C     C_R   0.521827 0.964967 0.259584 -0.209355
C149  C     C_R   0.978287 0.465028 0.805064 -0.222974
C150  C     C_R   0.021711 0.465026 0.194939 -0.222974
C151  C     C_R   0.478286 0.965028 0.805064 -0.222973
C152  C     C_R   0.521714 0.965028 0.194936 -0.222973
H1    H     H_    0.960983 0.438841 0.733537 0.163789
H2    H     H_    0.039013 0.438839 0.266468 0.163790
H3    H     H_    0.460982 0.938842 0.733537 0.163788
H4    H     H_    0.539018 0.938843 0.266462 0.163788
H5    H     H_    0.221225 0.444916 0.333674 0.134928
H6    H     H_    0.778776 0.444928 0.666304 0.134925
H7    H     H_    0.721225 0.944915 0.333672 0.134928
H8    H     H_    0.278775 0.944913 0.666332 0.134929
H9    H     H_    0.362679 0.467083 0.051599 0.170466
H10   H     H_    0.637322 0.467082 0.948399 0.170465
H11   H     H_    0.862679 0.967084 0.051599 0.170467
H12   H     H_    0.137321 0.967084 0.948402 0.170467
H13   H     H_    0.282649 0.466873 0.126428 0.155111
H14   H     H_    0.717351 0.466872 0.873569 0.155110
H15   H     H_    0.782649 0.966874 0.126427 0.155111
H16   H     H_    0.217350 0.966874 0.873574 0.155111
H17   H     H_    0.930221 0.640002 0.048623 0.156814
H18   H     H_    0.069779 0.640002 0.951377 0.156813
H19   H     H_    0.430221 0.140002 0.048622 0.156813
H20   H     H_    0.569779 0.140002 0.951377 0.156813
H21   H     H_    0.515492 0.360325 0.081606 0.162368
H22   H     H_    0.484508 0.360325 0.918394 0.162368
H23   H     H_    0.015493 0.860325 0.081605 0.162368
H24   H     H_    0.984507 0.860325 0.918394 0.162369
H25   H     H_    0.055276 0.280166 0.007347 0.124825
H26   H     H_    0.944724 0.280166 0.992652 0.124825
H27   H     H_    0.555274 0.780166 0.007355 0.124825
H28   H     H_    0.444726 0.780166 0.992646 0.124825
H29   H     H_    0.056078 0.360698 0.004648 0.142321
H30   H     H_    0.943921 0.360698 0.995352 0.142321
H31   H     H_    0.556076 0.860698 0.004655 0.142319
H32   H     H_    0.443924 0.860698 0.995345 0.142319
H33   H     H_    0.961221 0.439066 0.847365 0.147732
H34   H     H_    0.038775 0.439064 0.152639 0.147731
H35   H     H_    0.461220 0.939067 0.847366 0.147732
H36   H     H_    0.538781 0.939067 0.152634 0.147733
H37   H     H_    0.930504 0.720732 0.048405 0.132935
H38   H     H_    0.069496 0.720732 0.951595 0.132935
H39   H     H_    0.430504 0.220732 0.048404 0.132935
H40   H     H_    0.569496 0.220732 0.951596 0.132935
H41   H     H_    0.428888 0.720485 0.073615 0.134548
H42   H     H_    0.571112 0.720485 0.926387 0.134547
H43   H     H_    0.928888 0.220485 0.073619 0.134547
H44   H     H_    0.071112 0.220485 0.926380 0.134548
H45   H     H_    0.026515 0.599664 0.781599 0.186383
H46   H     H_    0.973492 0.599666 0.218393 0.186384
H47   H     H_    0.526517 0.099664 0.781597 0.186383
H48   H     H_    0.473482 0.099663 0.218404 0.186383
H49   H     H_    0.080300 0.569051 0.725359 0.209643
H50   H     H_    0.919705 0.569057 0.274634 0.209642
H51   H     H_    0.580301 0.069049 0.725359 0.209643
H52   H     H_    0.419698 0.069048 0.274642 0.209643
H53   H     H_    0.024073 0.601701 0.672780 0.152914
H54   H     H_    0.975934 0.601702 0.327213 0.152914
H55   H     H_    0.524075 0.101700 0.672778 0.152914
H56   H     H_    0.475924 0.101700 0.327223 0.152914
H57   H     H_    0.220886 0.553988 0.206315 0.137505
H58   H     H_    0.779114 0.553977 0.793701 0.137511
H59   H     H_    0.720886 0.053989 0.206316 0.137505
H60   H     H_    0.279114 0.053991 0.793681 0.137504
H61   H     H_    0.140192 0.444075 0.416359 0.162200
H62   H     H_    0.859809 0.444086 0.583620 0.162193
H63   H     H_    0.640192 0.944074 0.416357 0.162202
H64   H     H_    0.359808 0.944072 0.583647 0.162202
O1    O     O_R   0.065460 0.536930 0.434540 -0.605089
O2    O     O_R   0.934540 0.536930 0.565460 -0.605098
O3    O     O_R   0.565460 0.036930 0.434540 -0.605088
O4    O     O_R   0.434540 0.036930 0.565460 -0.605086
O5    O     O_R   0.434510 0.499990 0.117200 -0.624611
O6    O     O_R   0.565490 0.499990 0.882800 -0.624610
O7    O     O_R   0.934510 0.999990 0.117200 -0.624610
O8    O     O_R   0.065490 0.999990 0.882800 -0.624610
O9    O     O_R   0.434500 0.499990 0.013770 -0.620845
O10   O     O_R   0.565500 0.499990 0.986230 -0.620845
O11   O     O_R   0.934500 0.999990 0.013770 -0.620844
O12   O     O_R   0.065500 0.999990 0.986230 -0.620845
O13   O     O_R   0.500010 0.565450 0.051710 -0.623189
O14   O     O_R   0.499990 0.565450 0.948290 -0.623188
O15   O     O_R   0.000010 0.065450 0.051710 -0.623189
O16   O     O_R   0.999990 0.065450 0.948290 -0.623188
O17   O     O_R   0.065420 0.463020 0.434580 -0.630003
O18   O     O_R   0.934580 0.463020 0.565420 -0.630000
O19   O     O_R   0.565420 0.963020 0.434580 -0.630003
O20   O     O_R   0.434580 0.963020 0.565420 -0.630003
O21   O     O_R   0.000000 0.536930 0.591610 -0.625719
O22   O     O_R   0.000000 0.536930 0.408390 -0.625721
O23   O     O_R   0.500000 0.036930 0.591610 -0.625721
O24   O     O_R   0.500000 0.036930 0.408390 -0.625720
O25   O     O_R   0.999960 0.463020 0.591650 -0.626902
O26   O     O_R   0.000040 0.463020 0.408350 -0.626903
O27   O     O_R   0.499960 0.963020 0.591650 -0.626902
O28   O     O_R   0.500040 0.963020 0.408350 -0.626902
O29   O     O_R   0.963030 0.434450 0.036960 -0.624598
O30   O     O_R   0.036970 0.434450 0.963040 -0.624598
O31   O     O_R   0.463030 0.934450 0.036960 -0.624598
O32   O     O_R   0.536970 0.934450 0.963040 -0.624598
O33   O     O_R   0.963010 0.499910 0.945370 -0.625244
O34   O     O_R   0.036990 0.499910 0.054630 -0.625244
O35   O     O_R   0.463010 0.999910 0.945370 -0.625244
O36   O     O_R   0.536990 0.999910 0.054630 -0.625244
O37   O     O_R   0.036930 0.499960 0.871460 -0.621041
O38   O     O_R   0.963070 0.499960 0.128540 -0.621041
O39   O     O_R   0.536930 0.999960 0.871460 -0.621042
O40   O     O_R   0.463070 0.999960 0.128540 -0.621041
O41   O     O_R   0.963000 0.565380 0.037000 -0.628420
O42   O     O_R   0.037000 0.565380 0.963000 -0.628421
O43   O     O_R   0.463000 0.065380 0.037000 -0.628420
O44   O     O_R   0.537000 0.065380 0.963000 -0.628421
O45   O     O_R   0.499940 0.434520 0.051770 -0.626505
O46   O     O_R   0.500060 0.434520 0.948230 -0.626504
O47   O     O_R   0.999940 0.934520 0.051770 -0.626505
O48   O     O_R   0.000060 0.934520 0.948230 -0.626505
Zn1   Zn    Zn3+2 0.000000 0.549330 0.500000 0.933929
Zn2   Zn    Zn3+2 0.500000 0.049330 0.500000 0.933936
Zn3   Zn    Zn3+2 0.000000 0.450620 0.500000 0.939686
Zn4   Zn    Zn3+2 0.500000 0.950620 0.500000 0.939684
Zn5   Zn    Zn3+2 0.950620 0.499900 0.049380 0.941315
Zn6   Zn    Zn3+2 0.049380 0.499900 0.950620 0.941315
Zn7   Zn    Zn3+2 0.450620 0.999900 0.049380 0.941315
Zn8   Zn    Zn3+2 0.549380 0.999900 0.950620 0.941315
Zn9   Zn    Zn3+2 0.499980 0.499990 0.069090 0.929636
Zn10  Zn    Zn3+2 0.500020 0.499990 0.930910 0.929637
Zn11  Zn    Zn3+2 0.999980 0.999990 0.069090 0.929636
Zn12  Zn    Zn3+2 0.000020 0.999990 0.930910 0.929636
N1    N     N_2   0.265886 0.544813 0.324341 -0.309095
H65   H     H_    0.274930 0.540153 0.360572 0.223880
C153  C     C_3   0.254502 0.590168 0.321772 -0.823706
H66   H     H_    0.231481 0.603046 0.380901 0.240544
H67   H     H_    0.237885 0.592474 0.293119 0.255359
H68   H     H_    0.284513 0.611267 0.290546 0.226736
N2    N     N_2   0.734113 0.544815 0.675660 -0.309100
H69   H     H_    0.725068 0.540159 0.639430 0.223881
C154  C     C_3   0.745499 0.590170 0.678233 -0.823701
H70   H     H_    0.768519 0.603050 0.619104 0.240544
H71   H     H_    0.762117 0.592472 0.706883 0.255363
H72   H     H_    0.715489 0.611270 0.709462 0.226736
N3    N     N_2   0.765886 0.044811 0.324342 -0.309096
H73   H     H_    0.774930 0.040150 0.360573 0.223881
C155  C     C_3   0.754502 0.090167 0.321775 -0.823709
H74   H     H_    0.731481 0.103044 0.380904 0.240545
H75   H     H_    0.737886 0.092473 0.293121 0.255359
H76   H     H_    0.784513 0.111266 0.290550 0.226735
N4    N     N_2   0.234114 0.044810 0.675657 -0.309095
H77   H     H_    0.225070 0.040149 0.639427 0.223880
C156  C     C_3   0.245498 0.090166 0.678224 -0.823708
H78   H     H_    0.268520 0.103044 0.619094 0.240545
H79   H     H_    0.262114 0.092474 0.706878 0.255358
H80   H     H_    0.215487 0.111266 0.709448 0.226735
C157  C     C_3   0.361752 0.545467 0.242934 -0.410540
C158  C     C_3   0.367481 0.512980 0.291108 -0.309502
C159  C     C_3   0.393080 0.534138 0.318142 -0.886080
H81   H     H_    0.375324 0.563801 0.353493 0.256286
H82   H     H_    0.396364 0.510118 0.353343 0.242538
H83   H     H_    0.426704 0.543836 0.268256 0.264949
H84   H     H_    0.334615 0.502305 0.341925 0.196888
H85   H     H_    0.385381 0.482911 0.257479 0.242715
H86   H     H_    0.393836 0.560445 0.197380 0.213597
H87   H     H_    0.342113 0.574164 0.278927 0.194986
C160  C     C_3   0.638247 0.545470 0.757069 -0.410543
C161  C     C_3   0.632519 0.512986 0.708892 -0.309504
C162  C     C_3   0.606921 0.534145 0.681857 -0.886080
H88   H     H_    0.624677 0.563810 0.646508 0.256286
H89   H     H_    0.603637 0.510128 0.646654 0.242538
H90   H     H_    0.573296 0.543844 0.731744 0.264949
H91   H     H_    0.665385 0.502311 0.658074 0.196888
H92   H     H_    0.614619 0.482916 0.742518 0.242715
H93   H     H_    0.606162 0.560447 0.802624 0.213596
H94   H     H_    0.657886 0.574168 0.721079 0.194987
C163  C     C_3   0.861752 0.045465 0.242935 -0.410538
C164  C     C_3   0.867481 0.012978 0.291108 -0.309502
C165  C     C_3   0.893080 0.034134 0.318143 -0.886078
H95   H     H_    0.875324 0.063798 0.353495 0.256285
H96   H     H_    0.896364 0.010114 0.353343 0.242538
H97   H     H_    0.926704 0.043833 0.268257 0.264949
H98   H     H_    0.834615 0.002302 0.341925 0.196887
H99   H     H_    0.885381 0.982909 0.257479 0.242715
H100  H     H_    0.893836 0.060444 0.197382 0.213596
H101  H     H_    0.842113 0.074162 0.278930 0.194986
C166  C     C_3   0.138248 0.045465 0.757064 -0.410539
C167  C     C_3   0.132519 0.012977 0.708892 -0.309499
C168  C     C_3   0.106920 0.034133 0.681857 -0.886076
H102  H     H_    0.124676 0.063797 0.646505 0.256285
H103  H     H_    0.103635 0.010113 0.646658 0.242537
H104  H     H_    0.073295 0.043833 0.731744 0.264948
H105  H     H_    0.165385 0.002302 0.658075 0.196887
H106  H     H_    0.114619 0.982908 0.742522 0.242714
H107  H     H_    0.106164 0.060444 0.802617 0.213597
H108  H     H_    0.157887 0.074161 0.721069 0.194986
N5    N     N_2   0.516795 0.273753 0.094634 -0.308547
H109  H     H_    0.538427 0.289970 0.101704 0.219516
C169  C     C_3   0.477374 0.259381 0.166906 -0.790523
H110  H     H_    0.486899 0.240101 0.198820 0.235305
H111  H     H_    0.456877 0.237862 0.157678 0.251743
H112  H     H_    0.457539 0.288427 0.201931 0.233908
N6    N     N_2   0.483205 0.273753 0.905366 -0.308547
H113  H     H_    0.461573 0.289970 0.898295 0.219516
C170  C     C_3   0.522626 0.259381 0.833093 -0.790521
H114  H     H_    0.513102 0.240101 0.801179 0.235304
H115  H     H_    0.543123 0.237862 0.842322 0.251743
H116  H     H_    0.542462 0.288427 0.798068 0.233907
N7    N     N_2   0.016796 0.773753 0.094634 -0.308547
H117  H     H_    0.038428 0.789970 0.101704 0.219516
C171  C     C_3   0.977375 0.759381 0.166906 -0.790523
H118  H     H_    0.986899 0.740101 0.198820 0.235305
H119  H     H_    0.956877 0.737862 0.157678 0.251743
H120  H     H_    0.957539 0.788427 0.201931 0.233908
N8    N     N_2   0.983205 0.773753 0.905366 -0.308547
H121  H     H_    0.961573 0.789970 0.898296 0.219516
C172  C     C_3   0.022626 0.759381 0.833094 -0.790522
H122  H     H_    0.013101 0.740101 0.801180 0.235304
H123  H     H_    0.043123 0.737862 0.842322 0.251743
H124  H     H_    0.042461 0.788427 0.798068 0.233907
C173  C     C_3   0.414761 0.633615 0.081574 -0.432684
C174  C     C_3   0.392049 0.641969 0.042319 -0.329387
C175  C     C_3   0.347741 0.617974 0.083527 -0.878788
H125  H     H_    0.352853 0.581736 0.080523 0.275984
H126  H     H_    0.325715 0.628351 0.144419 0.259154
H127  H     H_    0.331370 0.626001 0.055627 0.244983
H128  H     H_    0.386153 0.677906 0.041869 0.213337
H129  H     H_    0.413742 0.630185 0.982108 0.231388
H130  H     H_    0.417938 0.597494 0.084721 0.191383
H131  H     H_    0.393465 0.645933 0.141496 0.193993
C176  C     C_3   0.585238 0.633615 0.918429 -0.432684
C177  C     C_3   0.607949 0.641969 0.957686 -0.329389
C178  C     C_3   0.652256 0.617972 0.916483 -0.878788
H132  H     H_    0.647142 0.581735 0.919490 0.275983
H133  H     H_    0.674283 0.628348 0.855591 0.259155
H134  H     H_    0.668626 0.625999 0.944384 0.244982
H135  H     H_    0.613847 0.677906 0.958134 0.213336
H136  H     H_    0.586255 0.630187 0.017898 0.231389
H137  H     H_    0.582062 0.597494 0.915282 0.191384
H138  H     H_    0.606535 0.645933 0.858506 0.193991
C179  C     C_3   0.914761 0.133615 0.081578 -0.432683
C180  C     C_3   0.892047 0.141970 0.042326 -0.329390
C181  C     C_3   0.847740 0.117973 0.083532 -0.878790
H139  H     H_    0.852855 0.081736 0.080522 0.275983
H140  H     H_    0.825715 0.128347 0.144426 0.259156
H141  H     H_    0.831368 0.126002 0.055636 0.244983
H142  H     H_    0.886150 0.177907 0.041880 0.213336
H143  H     H_    0.913740 0.130189 0.982114 0.231388
H144  H     H_    0.917938 0.097494 0.084724 0.191385
H145  H     H_    0.893466 0.145933 0.141501 0.193991
C182  C     C_3   0.085239 0.133615 0.918421 -0.432685
C183  C     C_3   0.107953 0.141970 0.957672 -0.329392
C184  C     C_3   0.152260 0.117973 0.916466 -0.878789
H146  H     H_    0.147145 0.081736 0.919478 0.275983
H147  H     H_    0.174285 0.128346 0.855572 0.259156
H148  H     H_    0.168633 0.126002 0.944361 0.244983
H149  H     H_    0.113851 0.177908 0.958117 0.213337
H150  H     H_    0.086260 0.130190 0.017885 0.231389
H151  H     H_    0.082062 0.097494 0.915276 0.191385
H152  H     H_    0.106533 0.145932 0.858498 0.193992
C185  C     C_3   0.090803 0.572631 0.589989 -0.375369
C186  C     C_3   0.116667 0.529281 0.572557 -0.328863
C187  C     C_3   0.163361 0.533253 0.498862 -0.876081
H153  H     H_    0.162253 0.543557 0.450714 0.285999
H154  H     H_    0.182582 0.557967 0.506090 0.255035
H155  H     H_    0.180435 0.500864 0.484699 0.254080
H156  H     H_    0.119065 0.520709 0.619931 0.227795
H157  H     H_    0.099345 0.501972 0.565818 0.214727
H158  H     H_    0.085343 0.577665 0.545172 0.203547
H159  H     H_    0.110961 0.600884 0.586331 0.203473
C188  C     C_3   0.909201 0.572637 0.410006 -0.375364
C189  C     C_3   0.883334 0.529289 0.427439 -0.328862
C190  C     C_3   0.836640 0.533264 0.501133 -0.876086
H160  H     H_    0.837749 0.543567 0.549281 0.285997
H161  H     H_    0.817422 0.557981 0.493904 0.255035
H162  H     H_    0.819564 0.500877 0.515298 0.254082
H163  H     H_    0.880935 0.520719 0.380065 0.227795
H164  H     H_    0.900654 0.501979 0.434179 0.214725
H165  H     H_    0.914661 0.577670 0.454822 0.203551
H166  H     H_    0.889045 0.600892 0.413661 0.203472
C191  C     C_3   0.590805 0.072630 0.589987 -0.375369
C192  C     C_3   0.616667 0.029279 0.572557 -0.328862
C193  C     C_3   0.663362 0.033250 0.498863 -0.876084
H167  H     H_    0.662254 0.043555 0.450714 0.286000
H168  H     H_    0.682583 0.057963 0.506091 0.255036
H169  H     H_    0.680435 0.000860 0.484699 0.254080
H170  H     H_    0.619065 0.020707 0.619932 0.227795
H171  H     H_    0.599345 0.001971 0.565818 0.214727
H172  H     H_    0.585345 0.077663 0.545171 0.203547
H173  H     H_    0.610963 0.100882 0.586330 0.203473
C194  C     C_3   0.409195 0.072629 0.410013 -0.375369
C195  C     C_3   0.383332 0.029277 0.427444 -0.328863
C196  C     C_3   0.336638 0.033248 0.501138 -0.876081
H174  H     H_    0.337745 0.043553 0.549287 0.286000
H175  H     H_    0.317416 0.057961 0.493910 0.255036
H176  H     H_    0.319565 0.000858 0.515301 0.254079
H177  H     H_    0.380934 0.020705 0.380069 0.227795
H178  H     H_    0.400655 0.001969 0.434182 0.214727
H179  H     H_    0.414654 0.077662 0.454830 0.203546
H180  H     H_    0.389035 0.100881 0.413671 0.203473
N9    N     N_2   0.133808 0.563429 0.289010 -0.295220
H181  H     H_    0.144170 0.564489 0.233014 0.216092
C197  C     C_3   0.133193 0.606958 0.317295 -0.763240
H182  H     H_    0.167100 0.621129 0.283800 0.217461
H183  H     H_    0.119971 0.605454 0.378683 0.252711
H184  H     H_    0.111581 0.629029 0.311591 0.231246
N10   N     N_2   0.866193 0.563414 0.711011 -0.295230
H185  H     H_    0.855831 0.564464 0.767008 0.216094
C198  C     C_3   0.866808 0.606949 0.682746 -0.763242
H186  H     H_    0.832902 0.621121 0.716247 0.217463
H187  H     H_    0.880031 0.605456 0.621356 0.252716
H188  H     H_    0.888420 0.629014 0.688460 0.231249
N11   N     N_2   0.633809 0.063430 0.289012 -0.295219
H189  H     H_    0.644170 0.064491 0.233016 0.216092
C199  C     C_3   0.633194 0.106959 0.317298 -0.763240
H190  H     H_    0.667100 0.121130 0.283804 0.217461
H191  H     H_    0.619971 0.105454 0.378687 0.252711
H192  H     H_    0.611582 0.129031 0.311595 0.231247
N12   N     N_2   0.366191 0.063433 0.710984 -0.295217
H193  H     H_    0.355829 0.064495 0.766980 0.216092
C200  C     C_3   0.366806 0.106960 0.682695 -0.763240
H194  H     H_    0.332900 0.121131 0.716188 0.217460
H195  H     H_    0.380029 0.105453 0.621306 0.252710
H196  H     H_    0.388418 0.129033 0.688396 0.231247

loop_
_geom_bond_atom_site_label_1
_geom_bond_atom_site_label_2
_ccdc_geom_bond_type
C94   O48   A    
C193  H167  S    
C58   C62   A    
C55   C59   A    
C156  H79   S    
C191  C192  S    
C108  C120  A    
C180  H142  S    
C74   C83   A    
C64   H12   S    
C181  H141  S    
C90   O44   A    
C173  H130  S    
C112  H32   S    
C168  H102  S    
C63   H11   S    
C136  H40   S    
C60   C98   S    
C184  H147  S    
C76   C131  S    
C177  H136  S    
C168  H104  S    
C29   C33   A    
C200  H196  S    
C5    C149  A    
C188  H166  S    
C48   C144  S    
O21   Zn1   S    
N11   H189  S    
C187  H155  S    
N12   H193  S    
C117  C132  A    
C142  C146  A    
C54   C160  S    
C178  H134  S    
C77   C122  A    
C3    O19   A    
C146  C150  A    
C11   C15   S    
C179  H145  S    
C12   C16   S    
C1    O17   A    
C83   H19   S    
O5    Zn9   S    
C81   H17   S    
C91   C100  A    
C147  H3    S    
C93   O45   A    
C141  C145  A    
C88   O36   A    
C103  O14   A    
C49   C69   A    
C51   C71   A    
C122  H42   S    
C73   C81   A    
N7    C171  S    
C25   C29   A    
O46   Zn10  S    
C172  H124  S    
C27   C31   A    
C165  H95   S    
C79   O30   A    
O24   Zn2   S    
C28   C32   A    
C159  H82   S    
C183  H150  S    
C28   N12   S    
C62   C66   A    
C126  C129  A    
C196  H174  S    
C97   O7    A    
C96   O10   A    
C82   C134  A    
C198  H188  S    
C151  H35   S    
C197  H183  S    
C52   C72   A    
C171  H118  S    
C146  H2    S    
O37   Zn6   S    
C16   C20   S    
C160  H94   S    
C92   C94   S    
C80   O31   A    
C89   O41   A    
C95   O5    A    
C3    C31   S    
C152  H36   S    
C4    C32   S    
C143  C147  A    
C167  H106  S    
C181  H139  S    
C107  C120  A    
C195  C196  S    
C41   C69   S    
C196  H176  S    
C67   H15   S    
C43   C71   S    
C107  H27   S    
C23   C43   A    
C47   C143  S    
C105  H25   S    
O30   Zn6   S    
C15   H51   S    
C176  C177  S    
C57   C61   A    
C59   C63   A    
C60   C64   A    
C189  C190  S    
C74   C90   S    
C50   C70   A    
C154  H71   S    
C185  C186  S    
C166  H107  S    
O18   Zn3   S    
C66   C70   A    
C49   C53   A    
C22   H58   S    
C44   C72   S    
C175  H127  S    
C51   C55   A    
C153  H67   S    
N9    H181  S    
C45   O21   A    
C61   C65   A    
C125  C173  S    
C19   C139  S    
C163  C164  S    
C174  H129  S    
N8    H121  S    
C2    O2    A    
C17   C137  S    
C10   C138  A    
C165  H96   S    
C16   H52   S    
C185  H158  S    
C174  H128  S    
C85   O33   A    
C170  H114  S    
C158  H85   S    
O3    Zn2   S    
C112  C114  A    
C75   C134  A    
C163  H100  S    
N4    C156  S    
C192  H171  S    
C5    C9    A    
C199  H191  S    
C182  H151  S    
O48   Zn12  S    
C13   H45   S    
C32   C36   A    
C155  H75   S    
C78   C119  S    
C51   N3    S    
C162  H89   S    
C42   C70   S    
C161  C162  S    
C18   C138  S    
C37   H5    S    
C9    C13   S    
C139  C143  A    
C17   C185  S    
C19   C191  S    
C194  H179  S    
C98   O8    A    
O25   Zn3   S    
O10   Zn9   S    
C189  H164  S    
C24   C28   A    
C16   H48   S    
C5    C85   S    
N1    H65   S    
C116  N6    S    
C4    O20   A    
C117  N7    S    
C190  H161  S    
C76   C135  A    
C168  H103  S    
O39   Zn8   S    
N5    C169  S    
O40   Zn7   S    
C30   C34   A    
C167  C168  S    
C10   C14   S    
C104  O15   A    
C194  H180  S    
C189  H163  S    
O23   Zn2   S    
C8    C88   S    
C147  C151  A    
C95   O9    A    
C121  C125  A    
C125  C129  A    
C123  C127  A    
C49   N1    S    
C8    C12   A    
C124  H44   S    
C111  H31   S    
N3    H73   S    
C78   C123  A    
C115  N5    S    
C47   O23   A    
C68   H16   S    
C171  H119  S    
C128  C182  S    
C157  H87   S    
C26   C30   A    
C170  H116  S    
O47   Zn11  S    
C79   C113  S    
C100  H22   S    
C161  H92   S    
C101  H23   S    
O41   Zn5   S    
O43   Zn7   S    
C75   C132  S    
C93   O46   A    
C109  H29   S    
C105  C109  A    
C18   C188  S    
C107  C111  A    
C180  H143  S    
C89   O42   A    
C148  C152  A    
C74   C84   A    
C181  H140  S    
C167  H105  S    
C150  H34   S    
C81   C133  A    
C92   C102  A    
C86   O38   A    
O38   Zn5   S    
C6    C86   S    
C13   C17   S    
C2    C30   S    
C17   H53   S    
C53   C157  S    
C184  H146  S    
C36   H64   S    
C8    C152  A    
C14   H50   S    
C200  H195  S    
C188  H165  S    
C94   O47   A    
C187  H154  S    
C37   C41   A    
C178  H133  S    
C77   C121  A    
C195  H177  S    
N10   H185  S    
C40   C44   A    
C179  H144  S    
N2    H69   S    
C20   H56   S    
C186  H157  S    
C91   C99   A    
C35   H63   S    
C106  H26   S    
C103  O13   A    
C149  H33   S    
C106  C119  A    
O16   Zn12  S    
C100  C116  A    
C48   O28   A    
C77   C120  S    
C82   H18   S    
N7    H117  S    
C46   C142  S    
C15   C19   S    
C172  H123  S    
O13   Zn9   S    
C50   C54   A    
C79   O29   A    
C99   C115  A    
C192  C193  S    
C65   H13   S    
O9    Zn10  S    
C191  H172  S    
C198  H187  S    
C11   C139  A    
C174  C175  S    
C21   C25   A    
C9    C137  A    
C2    O18   A    
C7    C87   S    
C4    O4    A    
C160  H93   S    
C173  H131  S    
C153  H66   S    
C12   C140  A    
C124  C128  A    
C176  H138  S    
C87   O39   A    
C164  C165  S    
C104  C130  S    
O14   Zn10  S    
C45   C141  S    
N11   C199  S    
C123  H43   S    
C90   O43   A    
C121  H41   S    
C48   O24   A    
C80   O32   A    
C159  H83   S    
C196  H175  S    
C24   H60   S    
O8    Zn12  S    
C197  H182  S    
C164  H98   S    
O33   Zn5   S    
O27   Zn4   S    
C38   H6    S    
C34   H62   S    
C184  H148  S    
N6    H113  S    
C53   C57   A    
C177  H135  S    
C84   H20   S    
C158  H84   S    
C33   C37   A    
C163  H101  S    
C56   C60   A    
O44   Zn8   S    
C35   C39   A    
O11   Zn12  S    
C154  H70   S    
O17   Zn3   S    
O31   Zn7   S    
O32   Zn8   S    
C175  H126  S    
C183  C184  S    
C103  C129  S    
C135  H39   S    
C92   C101  A    
C7    C151  A    
C97   O11   A    
C96   O6    A    
C186  H156  S    
C138  C142  A    
C24   C44   A    
C31   C35   A    
C46   O26   A    
C64   C68   A    
C73   C82   A    
N4    H77   S    
C193  H168  S    
C179  C180  S    
C137  C141  A    
C84   C136  A    
C33   H61   S    
C39   H7    S    
C85   O37   A    
C40   H8    S    
C157  C158  S    
C140  C144  A    
C128  C130  A    
C183  H149  S    
C6    C10   A    
C173  C174  S    
C182  C183  S    
C75   C133  A    
C50   N2    S    
C101  C117  A    
C20   C140  S    
C180  C181  S    
C197  H184  S    
C73   C89   S    
C166  C167  S    
C47   O27   A    
C162  H88   S    
C62   H10   S    
C23   H59   S    
C169  H111  S    
C65   C69   A    
C55   C163  S    
C21   H57   S    
C111  C114  A    
C67   C71   A    
C52   N4    S    
O42   Zn6   S    
C6    C150  A    
C108  C112  A    
O45   Zn9   S    
C110  H30   S    
C3    O3    A    
C22   C26   A    
O20   Zn4   S    
C186  C187  S    
C105  C119  A    
C1    O1    A    
C148  H4    S    
C145  C149  A    
N10   C198  S    
C86   O34   A    
C169  H110  S    
C127  C179  S    
O6    Zn10  S    
N2    C154  S    
C156  H78   S    
C14   C18   S    
C175  H125  S    
C144  C148  A    
O4    Zn2   S    
C190  H160  S    
C76   C136  A    
C88   O40   A    
C115  C131  A    
N5    H109  S    
C7    C11   A    
C14   H46   S    
C61   H9    S    
C38   C42   A    
C154  H72   S    
C164  H99   S    
C166  H108  S    
C104  O16   A    
C91   C93   S    
O12   Zn11  S    
C102  H24   S    
O2    Zn1   S    
C108  H28   S    
C153  H68   S    
N9    C197  S    
C58   C96   S    
C27   N11   S    
C159  H81   S    
C99   H21   S    
C187  H153  S    
C23   C27   A    
C78   C124  A    
C185  H159  S    
C83   C135  A    
C102  C118  A    
C68   C72   A    
C145  H1    S    
C155  H74   S    
C157  H86   S    
C170  H115  S    
C25   N9    S    
C19   H55   S    
C1    C29   S    
C98   O12   A    
C192  H170  S    
C193  H169  S    
C63   C67   A    
C182  H152  S    
C66   H14   S    
C36   C40   A    
C155  H76   S    
C118  C132  A    
O35   Zn7   S    
O36   Zn8   S    
C162  H90   S    
C39   C43   A    
C160  C161  S    
O28   Zn4   S    
C122  C126  A    
O29   Zn5   S    
N6    C170  S    
C15   H47   S    
C188  C189  S    
C200  H194  S    
O15   Zn11  S    
N8    C172  S    
O26   Zn3   S    
C110  C113  A    
C178  H132  S    
C195  H178  S    
C80   C114  S    
C199  H192  S    
N1    C153  S    
C57   C95   S    
C59   C97   S    
C156  H80   S    
C21   C41   A    
O34   Zn6   S    
C45   O25   A    
C190  H162  S    
C177  C178  S    
C54   C58   A    
O19   Zn4   S    
C158  C159  S    
C34   C38   A    
O22   Zn1   S    
C109  C113  A    
C172  H122  S    
O1    Zn1   S    
C118  N8    S    
C18   H54   S    
C165  H97   S    
C134  H38   S    
C191  H173  S    
C87   O35   A    
C127  C130  A    
C56   C166  S    
C22   C42   A    
C116  C131  A    
C26   N10   S    
N3    C155  S    
C199  H190  S    
C13   H49   S    
C20   C194  S    
C46   O22   A    
C198  H186  S    
C194  C195  S    
C171  H120  S    
O7    Zn11  S    
C106  C110  A    
C133  H37   S    
C169  H112  S    
N12   C200  S    
C161  H91   S    
C126  C176  S    
C52   C56   A    
C176  H137  S    
