data_mof_unit_5865.cif
_audit_creation_date              2013-03-05T15:45:45-0500
_audit_creation_method            fapswitch 2.2
_symmetry_space_group_name_H-M    P1
_symmetry_Int_Tables_number       1
_space_group_crystal_system       triclinic
_cell_length_a                    18.776848
_cell_length_b                    10.948349
_cell_length_c                    18.722401
_cell_angle_alpha                 90.090144
_cell_angle_beta                  91.157408
_cell_angle_gamma                 90.077427
_cell_volume                      3848.07295729

loop_
_atom_site_label
_atom_site_type_symbol
_atom_site_description
_atom_site_fract_x
_atom_site_fract_y
_atom_site_fract_z
_atom_type_partial_charge
O1    O     O_R   0.214270 0.709000 0.827470 -0.526224
O2    O     O_R   0.785730 0.709000 0.172530 -0.523544
O3    O     O_R   0.714270 0.209000 0.827470 -0.523274
O4    O     O_R   0.285730 0.209000 0.172530 -0.525976
O5    O     O_R   0.236160 0.958490 0.823130 -0.512776
O6    O     O_R   0.763840 0.958490 0.176870 -0.511338
O7    O     O_R   0.736160 0.458490 0.823130 -0.511611
O8    O     O_R   0.263840 0.458490 0.176870 -0.512565
C1    C     C_R   0.273277 0.040194 0.854781 0.543664
C2    C     C_R   0.728313 0.042783 0.146720 0.549223
C3    C     C_R   0.773274 0.540201 0.854778 0.547581
C4    C     C_R   0.228311 0.542779 0.146717 0.545335
O9    O     O_R   0.332080 0.075470 0.831280 -0.517609
O10   O     O_R   0.667920 0.075470 0.168720 -0.509908
O11   O     O_R   0.832080 0.575470 0.831280 -0.514212
O12   O     O_R   0.167920 0.575470 0.168720 -0.513102
O13   O     O_R   0.446300 0.918110 0.826620 -0.509319
O14   O     O_R   0.553700 0.918110 0.173380 -0.505136
O15   O     O_R   0.946300 0.418110 0.826620 -0.508631
O16   O     O_R   0.053700 0.418110 0.173380 -0.505874
C5    C     C_R   0.471003 0.821772 0.855348 0.539367
C6    C     C_R   0.528808 0.821731 0.144817 0.538070
C7    C     C_R   0.971004 0.321772 0.855347 0.538664
C8    C     C_R   0.028808 0.321731 0.144816 0.538712
O17   O     O_R   0.457110 0.716200 0.831760 -0.518948
O18   O     O_R   0.542890 0.716200 0.168240 -0.520956
O19   O     O_R   0.957110 0.216200 0.831760 -0.519081
O20   O     O_R   0.042890 0.216200 0.168240 -0.520888
O21   O     O_R   0.320980 0.624310 0.823030 -0.492358
O22   O     O_R   0.679020 0.624310 0.176970 -0.493083
O23   O     O_R   0.820980 0.124310 0.823030 -0.487967
O24   O     O_R   0.179020 0.124310 0.176970 -0.497259
C9    C     C_R   0.261924 0.641333 0.853621 0.552013
C10   C     C_R   0.739385 0.635411 0.148484 0.558887
C11   C     C_R   0.761927 0.141342 0.853624 0.558967
C12   C     C_R   0.239386 0.135407 0.148485 0.551300
O25   O     O_R   0.213890 0.710430 0.665540 -0.524635
O26   O     O_R   0.786110 0.710430 0.334460 -0.498843
O27   O     O_R   0.713890 0.210430 0.665540 -0.496416
O28   O     O_R   0.286110 0.210430 0.334460 -0.526364
O29   O     O_R   0.235810 0.959820 0.673020 -0.525997
O30   O     O_R   0.764190 0.959820 0.326980 -0.541066
O31   O     O_R   0.735810 0.459820 0.673020 -0.540256
O32   O     O_R   0.264190 0.459820 0.326980 -0.526842
C13   C     C_R   0.269039 0.051690 0.648904 0.572669
C14   C     C_R   0.730660 0.051797 0.351884 0.560858
C15   C     C_R   0.769349 0.551750 0.648126 0.562339
C16   C     C_R   0.230986 0.551752 0.351083 0.571010
O33   O     O_R   0.331700 0.076900 0.669350 -0.430784
O34   O     O_R   0.668300 0.076900 0.330650 -0.430985
O35   O     O_R   0.831700 0.576900 0.669350 -0.430387
O36   O     O_R   0.168300 0.576900 0.330650 -0.431446
O37   O     O_R   0.445950 0.919440 0.676520 -0.484562
O38   O     O_R   0.554050 0.919440 0.323480 -0.489745
O39   O     O_R   0.945950 0.419440 0.676520 -0.488759
O40   O     O_R   0.054050 0.419440 0.323480 -0.485440
C17   C     C_R   0.470040 0.823569 0.646588 0.531529
C18   C     C_R   0.528419 0.824292 0.352305 0.524668
C19   C     C_R   0.971499 0.324174 0.647631 0.524402
C20   C     C_R   0.029746 0.323678 0.353286 0.531687
O41   O     O_R   0.456730 0.717630 0.669840 -0.518756
O42   O     O_R   0.543270 0.717630 0.330160 -0.526004
O43   O     O_R   0.956730 0.217630 0.669840 -0.526213
O44   O     O_R   0.043270 0.217630 0.330160 -0.519029
O45   O     O_R   0.320620 0.625640 0.672920 -0.473085
O46   O     O_R   0.679380 0.625640 0.327080 -0.459773
O47   O     O_R   0.820620 0.125640 0.672920 -0.458844
O48   O     O_R   0.179380 0.125640 0.327080 -0.473632
C21   C     C_R   0.262411 0.646459 0.639840 0.580424
C22   C     C_R   0.724614 0.691962 0.363313 0.573332
C23   C     C_R   0.775478 0.192050 0.636817 0.573405
C24   C     C_R   0.237559 0.146561 0.360184 0.579970
Cr1   Cr    Cr6+3 0.229630 0.835900 0.747350 1.025822
Cr2   Cr    Cr6+3 0.770370 0.835900 0.252650 1.026804
Cr3   Cr    Cr6+3 0.729630 0.335900 0.747350 1.028208
Cr4   Cr    Cr6+3 0.270370 0.335900 0.252650 1.024796
Cr5   Cr    Cr6+3 0.387410 0.989850 0.750850 1.083822
Cr6   Cr    Cr6+3 0.612590 0.989850 0.249150 1.074871
Cr7   Cr    Cr6+3 0.887410 0.489850 0.750850 1.074280
Cr8   Cr    Cr6+3 0.112590 0.489850 0.249150 1.084366
Cr9   Cr    Cr6+3 0.385800 0.677120 0.749340 1.064366
Cr10  Cr    Cr6+3 0.614200 0.677120 0.250660 1.061760
Cr11  Cr    Cr6+3 0.885800 0.177120 0.749340 1.064789
Cr12  Cr    Cr6+3 0.114200 0.177120 0.250660 1.061315
O49   O     O_3   0.334280 0.834290 0.749180 -0.271770
O50   O     O_3   0.665720 0.834290 0.250820 -0.289379
O51   O     O_3   0.834280 0.334290 0.749180 -0.292848
O52   O     O_3   0.165720 0.334290 0.250820 -0.268551
C25   C     C_3   0.479223 0.937146 0.026769 -0.121072
C26   C     C_3   0.538546 0.920361 0.971216 -0.125799
C27   C     C_3   0.979223 0.437147 0.026767 -0.120519
C28   C     C_3   0.038546 0.420363 0.971214 -0.126423
C29   C     C_3   0.431244 0.845603 0.985029 -0.108641
C30   C     C_3   0.569367 0.812497 0.015145 -0.106391
C31   C     C_3   0.931244 0.345604 0.985027 -0.108147
C32   C     C_3   0.069367 0.312499 0.015143 -0.106871
H1    H     H_    0.374014 0.858671 0.970957 0.126263
H2    H     H_    0.626564 0.799052 0.029277 0.125345
H3    H     H_    0.874014 0.358673 0.970955 0.126215
H4    H     H_    0.126565 0.299055 0.029275 0.125521
H5    H     H_    0.462006 0.024938 0.050378 0.110658
H6    H     H_    0.570302 0.993957 0.946357 0.123442
H7    H     H_    0.962003 0.524939 0.050374 0.111055
H8    H     H_    0.070302 0.493959 0.946354 0.122707
C33   C     C_3   0.491146 0.828650 0.930846 0.053272
C34   C     C_3   0.509375 0.828970 0.069270 0.055160
C35   C     C_3   0.991147 0.328651 0.930844 0.052905
C36   C     C_3   0.009376 0.328971 0.069268 0.055540
C37   C     C_3   0.521548 0.720967 0.973744 -0.113187
C38   C     C_3   0.462075 0.737695 0.028627 -0.119433
C39   C     C_3   0.021549 0.220968 0.973742 -0.113549
C40   C     C_3   0.962076 0.237696 0.028625 -0.119056
H9    H     H_    0.539633 0.632960 0.950910 0.119116
H10   H     H_    0.430359 0.664020 0.053425 0.125515
H11   H     H_    0.039634 0.132961 0.950908 0.118944
H12   H     H_    0.930360 0.164020 0.053422 0.125824
C41   C     C_R   0.299667 0.526265 0.962438 -0.144210
C42   C     C_R   0.691828 0.542642 0.036024 -0.151079
C43   C     C_R   0.799670 0.026275 0.962442 -0.143920
C44   C     C_R   0.191828 0.042640 0.036027 -0.150944
H13   H     H_    0.335885 0.470775 0.931939 0.131716
H14   H     H_    0.641892 0.519701 0.060708 0.132686
H15   H     H_    0.835886 0.970781 0.931942 0.132595
H16   H     H_    0.141889 0.019715 0.060708 0.132482
C45   C     C_R   0.295673 0.509813 0.035926 -0.148235
C46   C     C_R   0.697429 0.531013 0.962247 -0.153775
C47   C     C_R   0.795676 0.009820 0.035929 -0.148589
C48   C     C_R   0.197431 0.031010 0.962250 -0.153687
H17   H     H_    0.326732 0.437545 0.060733 0.136146
H18   H     H_    0.653294 0.493145 0.931325 0.117640
H19   H     H_    0.826732 0.937547 0.060735 0.135998
H20   H     H_    0.153293 0.993157 0.931326 0.117433
C49   C     C_R   0.248390 0.581141 0.075807 0.025358
C50   C     C_R   0.760032 0.568524 0.929100 0.030690
C51   C     C_R   0.748394 0.081150 0.075812 0.025095
C52   C     C_R   0.260038 0.068505 0.929106 0.031046
C53   C     C_R   0.208578 0.673118 0.042591 -0.137392
C54   C     C_R   0.817410 0.613648 0.970450 -0.144274
C55   C     C_R   0.708586 0.173134 0.042596 -0.136768
C56   C     C_R   0.317420 0.113606 0.970459 -0.144269
H21   H     H_    0.172319 0.729900 0.072302 0.138003
H22   H     H_    0.867428 0.640160 0.947090 0.140758
H23   H     H_    0.672329 0.229919 0.072308 0.138895
H24   H     H_    0.367442 0.140099 0.947101 0.140648
C57   C     C_R   0.211196 0.687247 0.969756 -0.140541
C58   C     C_R   0.812832 0.620830 0.043278 -0.147223
C59   C     C_R   0.711206 0.187267 0.969761 -0.141278
C60   C     C_R   0.312840 0.120790 0.043287 -0.147068
H25   H     H_    0.178623 0.758283 0.945731 0.139136
H26   H     H_    0.858086 0.657621 0.073030 0.129180
H27   H     H_    0.678635 0.258307 0.945737 0.138926
H28   H     H_    0.358095 0.157569 0.073042 0.128777
C61   C     C_R   0.255558 0.612468 0.928840 0.025490
C62   C     C_R   0.749381 0.589876 0.076569 0.028632
C63   C     C_R   0.755564 0.112483 0.928845 0.024276
C64   C     C_R   0.249384 0.089859 0.076574 0.029168
C65   C     C_R   0.487953 0.722080 0.532908 -0.179103
C66   C     C_R   0.488765 0.724350 0.459882 -0.186031
C67   C     C_R   0.008300 0.223496 0.539094 -0.186237
C68   C     C_R   0.008763 0.221870 0.466075 -0.179741
H29   H     H_    0.480312 0.633861 0.557766 0.176234
H30   H     H_    0.485537 0.637595 0.432019 0.171555
H31   H     H_    0.010003 0.136250 0.566364 0.172500
H32   H     H_    0.014535 0.133511 0.440695 0.176208
C69   C     C_R   0.499078 0.834240 0.423741 -0.042420
C70   C     C_R   0.493396 0.830482 0.572744 -0.038001
C71   C     C_R   0.005670 0.330918 0.426901 -0.038398
C72   C     C_R   0.000311 0.333538 0.575953 -0.042010
C73   C     C_R   0.500805 0.945889 0.462453 0.286682
C74   C     C_R   0.502553 0.943306 0.537105 0.289736
C75   C     C_R   0.998454 0.443790 0.463197 0.289407
C76   C     C_R   0.000310 0.445584 0.537873 0.287233
C77   C     C_R   0.211191 0.698189 0.523358 -0.106884
C78   C     C_R   0.776258 0.736271 0.482058 -0.105081
C79   C     C_R   0.724091 0.236647 0.518129 -0.104131
C80   C     C_R   0.289085 0.197938 0.476734 -0.108417
H33   H     H_    0.174412 0.760136 0.548562 0.173729
H34   H     H_    0.810862 0.802611 0.457783 0.158721
H35   H     H_    0.689583 0.302982 0.542506 0.158865
H36   H     H_    0.326003 0.259760 0.451597 0.173225
C81   C     C_R   0.211892 0.694566 0.449884 0.213043
C82   C     C_R   0.783547 0.712215 0.554646 0.225430
C83   C     C_R   0.716746 0.212493 0.445517 0.226416
C84   C     C_R   0.288457 0.194267 0.550214 0.212161
C85   C     C_R   0.255837 0.607781 0.416950 0.012360
C86   C     C_R   0.742865 0.616339 0.584389 0.007139
C87   C     C_R   0.757253 0.116559 0.415656 0.007798
C88   C     C_R   0.244320 0.107574 0.583051 0.011798
C89   C     C_R   0.309865 0.548820 0.456444 -0.184632
C90   C     C_R   0.685342 0.567300 0.545048 -0.182351
C91   C     C_R   0.814688 0.067527 0.454921 -0.182794
C92   C     C_R   0.190099 0.048806 0.543497 -0.183970
H37   H     H_    0.346640 0.486664 0.431396 0.155388
H38   H     H_    0.650437 0.500011 0.568188 0.155970
H39   H     H_    0.849454 0.000133 0.431709 0.155026
H40   H     H_    0.153201 0.986745 0.568477 0.156004
C93   C     C_R   0.311891 0.559824 0.529959 -0.131761
C94   C     C_R   0.676451 0.596619 0.473268 -0.122034
C95   C     C_R   0.823605 0.096856 0.526737 -0.123143
C96   C     C_R   0.187926 0.060087 0.469999 -0.129578
H41   H     H_    0.353524 0.514339 0.560320 0.208476
H42   H     H_    0.633710 0.553624 0.442813 0.202522
H43   H     H_    0.866203 0.053719 0.557142 0.201619
H44   H     H_    0.146040 0.014974 0.439603 0.209164
C97   C     C_R   0.259126 0.627073 0.563766 -0.012207
C98   C     C_R   0.725779 0.673595 0.440408 -0.024507
C99   C     C_R   0.774425 0.173916 0.559690 -0.024736
C100  C     C_R   0.240871 0.127110 0.436239 -0.011897
N1    N     N_R   0.164392 0.772389 0.409644 0.078127
O53   O     O_R   0.185293 0.823279 0.350858 -0.351334
O54   O     O_R   0.100504 0.794142 0.432165 -0.307455
N2    N     N_R   0.833747 0.782556 0.596606 0.094220
O55   O     O_R   0.816135 0.824197 0.658949 -0.324377
O56   O     O_R   0.894227 0.815527 0.569830 -0.313316
N3    N     N_R   0.666607 0.282682 0.403671 0.094204
O57   O     O_R   0.684238 0.324278 0.341381 -0.327258
O58   O     O_R   0.606111 0.315388 0.430468 -0.312418
N4    N     N_R   0.336137 0.272079 0.590547 0.078078
O59   O     O_R   0.315345 0.323145 0.649387 -0.348731
O60   O     O_R   0.400006 0.293947 0.567952 -0.308202
O61   O     O_3   0.503463 0.058361 0.429536 -0.580499
H45   H     H_    0.475837 0.052571 0.383991 0.326481
O62   O     O_3   0.511892 0.052548 0.572960 -0.579991
H46   H     H_    0.536443 0.035471 0.619197 0.327807
O63   O     O_3   0.991058 0.553778 0.427960 -0.579058
H47   H     H_    0.965826 0.538345 0.381834 0.327707
O64   O     O_3   0.999657 0.557817 0.571432 -0.581684
H48   H     H_    0.026745 0.550130 0.617180 0.326215

loop_
_geom_bond_atom_site_label_1
_geom_bond_atom_site_label_2
_geom_bond_distance
_ccdc_geom_bond_type
C18   O42   1.271760 A    
Cr11  O51   1.975154 S    
C75   C76   1.397945 A    
O4    C12   1.261034 A    
C49   C53   1.394574 A    
C65   C66   1.367878 A    
C26   C30   1.546492 S    
O39   C19   1.273033 A    
C74   O62   1.379853 S    
O20   Cr12  2.068150 S    
C73   C74   1.397724 A    
C93   C97   1.396487 A    
C39   C40   1.543624 S    
C79   C99   1.394328 A    
C52   C56   1.402781 A    
C78   C82   1.388801 A    
O26   C22   1.300368 A    
C82   C86   1.418561 A    
O1    C9    1.254776 A    
C24   C100  1.440207 S    
O7    C3    1.271620 A    
C55   C59   1.374501 A    
C92   H40   1.083139 S    
C53   C57   1.374491 A    
C91   C95   1.388663 A    
O25   C21   1.253180 A    
C31   C40   1.543682 S    
N3    O58   1.301447 A    
C67   C68   1.367393 A    
C42   H14   1.083088 S    
C76   O64   1.379386 S    
C31   H3    1.110746 S    
O47   C23   1.297705 A    
C81   C85   1.408794 A    
C30   H2    1.110934 S    
C89   C93   1.381190 A    
C68   H32   1.083651 S    
O21   C9    1.272109 A    
C44   C64   1.405564 A    
O23   Cr11  1.946165 S    
C67   C72   1.397234 A    
C81   N1    1.437344 S    
O30   C14   1.280597 A    
C68   C71   1.402816 A    
O32   Cr4   1.947259 S    
C18   C69   1.460706 S    
C1    O9    1.257330 A    
O44   Cr12  2.065318 S    
C5    O17   1.261734 A    
C28   C35   1.529578 S    
Cr5   O49   1.972519 S    
C29   C33   1.541021 S    
C58   H26   1.083427 S    
C3    O11   1.257328 A    
O41   Cr9   2.065550 S    
C73   O61   1.379152 S    
C75   O63   1.379787 S    
O28   Cr4   2.076017 S    
C25   C34   1.530673 S    
C94   H42   1.081866 S    
C43   C63   1.398324 A    
C93   H41   1.079913 S    
C8    C36   1.455903 S    
C7    O19   1.261732 A    
C14   C87   1.466263 S    
C96   H44   1.079986 S    
C59   C63   1.405910 A    
Cr4   O52   1.964659 S    
C87   C91   1.400873 A    
O2    Cr2   2.067748 S    
O8    Cr4   1.956726 S    
C37   H9    1.109917 S    
C29   C38   1.543678 S    
C36   C40   1.527861 S    
Cr9   O49   1.975154 S    
O2    C10   1.261026 A    
C23   C99   1.457010 S    
C50   C54   1.402781 A    
O42   Cr10  2.065318 S    
C77   C81   1.376446 A    
C96   C100  1.396834 A    
O27   C23   1.300935 A    
C78   H34   1.080724 S    
C95   H43   1.081826 S    
C56   C60   1.370113 A    
C55   H23   1.083879 S    
C4    O12   1.266163 A    
C48   H20   1.082926 S    
Cr7   O51   1.972519 S    
C14   O34   1.259782 A    
O6    Cr2   1.956726 S    
C90   H38   1.082207 S    
C91   H39   1.082213 S    
C10   C62   1.450855 S    
C28   C32   1.546495 S    
C69   C73   1.420108 A    
O24   Cr12  1.945852 S    
C32   C39   1.542152 S    
O11   Cr7   2.070513 S    
O30   Cr2   1.947259 S    
C20   C71   1.461207 S    
O22   C10   1.268155 A    
O48   Cr12  1.948406 S    
C56   H24   1.083441 S    
C2    C51   1.450039 S    
O62   H46   0.990693 S    
N1    O53   1.301757 A    
C95   C99   1.403093 A    
C2    O10   1.266161 A    
C3    C50   1.451578 S    
C27   H7    1.108613 S    
C27   C28   1.550175 S    
O23   C11   1.272102 A    
C28   H8    1.110183 S    
O15   C7    1.268838 A    
C92   C96   1.381575 A    
C15   O35   1.258717 A    
C17   C70   1.460894 S    
O26   Cr2   2.076017 S    
Cr10  O50   1.972865 S    
C27   C31   1.547075 S    
O13   C5    1.268844 A    
O40   C20   1.276603 A    
C84   C88   1.409226 A    
O48   C24   1.265511 A    
O12   Cr8   2.071385 S    
Cr12  O52   1.972865 S    
C86   C90   1.400853 A    
O37   Cr5   1.949319 S    
N3    O57   1.301514 A    
O5    C1    1.271621 A    
O61   H45   0.991012 S    
C83   C87   1.418343 A    
C94   C98   1.403267 A    
O46   Cr10  1.948406 S    
O39   Cr7   1.949319 S    
O3    C11   1.254775 A    
C80   H36   1.083081 S    
O45   Cr9   1.946148 S    
O64   H48   0.991028 S    
C58   C62   1.397263 A    
C12   C64   1.450843 S    
C13   O33   1.260009 A    
O8    C4    1.266267 A    
C7    C35   1.457613 S    
C83   N3    1.436915 S    
C82   N2    1.436998 S    
O63   H47   0.990768 S    
C53   H21   1.083879 S    
O16   Cr8   1.944949 S    
O7    Cr3   1.953433 S    
O47   Cr11  1.946148 S    
Cr2   O50   1.964659 S    
C15   C86   1.466614 S    
O15   Cr7   1.947955 S    
Cr1   O49   1.964707 S    
O18   Cr10  2.068150 S    
C31   C35   1.541018 S    
C85   C89   1.401985 A    
Cr3   O51   1.964707 S    
O14   Cr6   1.944949 S    
N2    O56   1.301420 A    
O21   Cr9   1.946165 S    
C70   C74   1.416778 A    
C42   C62   1.405565 A    
O27   Cr3   2.072295 S    
C4    C49   1.450039 S    
C45   H17   1.083195 S    
C41   C61   1.398323 A    
C8    O20   1.262896 A    
C67   H31   1.083996 S    
C19   O43   1.271134 A    
C41   H13   1.083206 S    
O24   C12   1.268154 A    
C38   H10   1.109909 S    
C40   H12   1.109910 S    
O3    Cr3   2.070394 S    
C90   C94   1.389035 A    
O31   Cr3   1.950089 S    
C79   C83   1.388634 A    
O38   C18   1.272371 A    
O25   Cr1   2.072295 S    
C45   C49   1.407999 A    
C80   C84   1.376655 A    
C33   C37   1.532031 S    
C30   C34   1.540897 S    
O37   C17   1.276728 A    
O22   Cr10  1.945852 S    
O28   C24   1.252619 A    
C25   H5    1.108609 S    
O14   C6    1.266750 A    
C35   C39   1.532030 S    
C27   C36   1.530681 S    
O5    Cr1   1.953433 S    
C60   H28   1.083423 S    
C26   C33   1.529580 S    
C11   C63   1.451052 S    
C65   H29   1.083415 S    
O17   Cr9   2.066396 S    
C65   C70   1.403229 A    
O6    C2    1.266265 A    
C71   C75   1.417327 A    
C44   C48   1.393044 A    
C13   C88   1.445659 S    
C17   O41   1.265874 A    
C43   H15   1.083207 S    
C22   C98   1.457398 S    
C60   C64   1.397251 A    
C79   H35   1.080643 S    
C30   C37   1.542152 S    
C21   C97   1.439761 S    
O40   Cr8   1.949875 S    
O29   C13   1.271206 A    
C20   O44   1.266352 A    
N4    O60   1.301744 A    
C88   C92   1.401852 A    
C51   C55   1.394576 A    
O1    Cr1   2.070394 S    
C80   C100  1.401518 A    
C47   H19   1.083196 S    
C48   C52   1.401610 A    
C25   C26   1.550172 S    
C57   C61   1.405910 A    
C16   C85   1.445139 S    
Cr8   O52   1.974929 S    
O32   C16   1.271629 A    
C26   H6    1.110181 S    
C37   C38   1.543623 S    
O9    Cr5   2.070513 S    
C39   H11   1.109918 S    
O13   Cr5   1.947955 S    
C72   C76   1.419819 A    
Cr6   O50   1.974929 S    
N4    O59   1.301763 A    
O46   C22   1.297041 A    
O31   C15   1.280024 A    
C54   C58   1.370105 A    
O45   C21   1.266459 A    
C59   H27   1.082836 S    
C32   H4    1.110937 S    
O34   Cr6   2.063758 S    
C84   N4    1.437406 S    
N1    O54   1.301733 A    
C29   H1    1.110743 S    
O33   Cr5   2.067278 S    
C54   H22   1.083445 S    
C9    C61   1.451042 S    
O10   Cr6   2.071385 S    
C25   C29   1.547075 S    
C47   C51   1.408001 A    
O35   Cr7   2.067278 S    
O4    Cr4   2.067748 S    
C6    C34   1.455886 S    
C66   H30   1.083965 S    
O29   Cr1   1.950089 S    
O19   Cr11  2.066396 S    
C1    C52   1.451580 S    
C89   H37   1.083142 S    
C16   O36   1.261187 A    
C57   H25   1.082837 S    
N2    O55   1.301506 A    
C46   C50   1.401617 A    
C34   C38   1.527858 S    
C6    O18   1.262891 A    
O43   Cr11  2.065550 S    
C78   C98   1.394279 A    
C46   H18   1.082929 S    
C32   C36   1.540901 S    
C77   C97   1.401758 A    
C42   C46   1.393046 A    
C77   H33   1.083044 S    
O36   Cr8   2.063758 S    
C41   C45   1.391396 A    
O16   C8    1.266753 A    
C5    C33   1.457628 S    
C19   C72   1.460730 S    
C44   H16   1.083084 S    
C66   C69   1.396450 A    
O38   Cr6   1.949875 S    
C43   C47   1.391394 A    
