data_mof_unit_68007.cif
_audit_creation_date              2013-03-05T15:52:10-0500
_audit_creation_method            fapswitch 2.2
_symmetry_space_group_name_H-M    P1
_symmetry_Int_Tables_number       1
_space_group_crystal_system       triclinic
_cell_length_a                    11.732034
_cell_length_b                    11.849253
_cell_length_c                    19.138229
_cell_angle_alpha                 90.040851
_cell_angle_beta                  89.946134
_cell_angle_gamma                 120.544797
_cell_volume                      2291.32144808

loop_
_atom_site_label
_atom_site_type_symbol
_atom_site_description
_atom_site_fract_x
_atom_site_fract_y
_atom_site_fract_z
_atom_type_partial_charge
O1    O     O_R   0.911480 0.572650 0.170990 -0.542741
O2    O     O_R   0.427350 0.338830 0.170990 -0.546020
O3    O     O_R   0.661170 0.088520 0.170990 -0.546037
O4    O     O_R   0.572650 0.911480 0.829010 -0.555349
O5    O     O_R   0.338830 0.427350 0.829010 -0.555260
O6    O     O_R   0.088520 0.661170 0.829010 -0.563495
O7    O     O_R   0.640340 0.528970 0.175680 -0.527052
O8    O     O_R   0.471030 0.111370 0.175680 -0.528012
O9    O     O_R   0.888630 0.359660 0.175680 -0.497554
O10   O     O_R   0.528970 0.640340 0.824320 -0.524395
O11   O     O_R   0.111370 0.471030 0.824320 -0.513792
O12   O     O_R   0.359660 0.888630 0.824320 -0.535446
C1    C     C_R   0.519961 0.450377 0.147320 0.530849
C2    C     C_R   0.550548 0.074940 0.145614 0.536934
C3    C     C_R   0.925882 0.478029 0.145779 0.543189
C4    C     C_R   0.430832 0.536673 0.859238 0.541141
C5    C     C_R   0.116622 0.574652 0.859024 0.543272
C6    C     C_R   0.474482 0.923248 0.855142 0.531330
O13   O     O_R   0.909980 0.572450 0.331530 -0.508216
O14   O     O_R   0.427550 0.337530 0.331530 -0.526910
O15   O     O_R   0.662470 0.090020 0.331530 -0.523875
O16   O     O_R   0.572450 0.909980 0.668470 -0.553037
O17   O     O_R   0.337530 0.427550 0.668470 -0.554326
O18   O     O_R   0.090020 0.662470 0.668470 -0.540142
O19   O     O_R   0.638950 0.528780 0.324500 -0.535778
O20   O     O_R   0.471220 0.110170 0.324500 -0.536170
O21   O     O_R   0.889830 0.361050 0.324500 -0.532954
O22   O     O_R   0.528780 0.638950 0.675500 -0.498908
O23   O     O_R   0.110170 0.471220 0.675500 -0.515216
O24   O     O_R   0.361050 0.889830 0.675500 -0.504092
C7    C     C_R   0.541638 0.428761 0.360325 0.548145
C8    C     C_R   0.549374 0.075096 0.355019 0.526155
C9    C     C_R   0.883510 0.457359 0.360233 0.536880
C10   C     C_R   0.455784 0.520934 0.646602 0.535170
C11   C     C_R   0.070121 0.547671 0.645525 0.527248
C12   C     C_R   0.471924 0.917333 0.642608 0.537738
Cr1   Cr    Cr6+3 0.769160 0.541570 0.250690 0.963145
Cr2   Cr    Cr6+3 0.458430 0.227590 0.250690 0.961747
Cr3   Cr    Cr6+3 0.772410 0.230840 0.250690 0.974665
Cr4   Cr    Cr6+3 0.541570 0.769160 0.749310 0.954502
Cr5   Cr    Cr6+3 0.227590 0.458430 0.749310 0.947411
Cr6   Cr    Cr6+3 0.230840 0.772410 0.749310 0.946167
O25   O     O_3   0.666667 0.333333 0.250560 -0.312901
O26   O     O_3   0.333333 0.666667 0.749440 -0.307186
C13   C     C_R   0.490923 0.967692 0.928711 0.026914
C14   C     C_R   0.094850 0.562735 0.936463 -0.005909
C15   C     C_R   0.452823 0.513042 0.932266 0.020280
C16   C     C_R   0.990403 0.514056 0.076396 -0.011414
C17   C     C_R   0.519142 0.017597 0.075105 0.030883
C18   C     C_R   0.486354 0.473806 0.077157 0.019878
C19   C     C_R   0.383653 0.948790 0.970273 0.003564
C20   C     C_R   0.087378 0.461965 0.978244 -0.009154
C21   C     C_R   0.558976 0.600538 0.971751 -0.007841
C22   C     C_R   0.025638 0.435936 0.042503 -0.019423
C23   C     C_R   0.398403 0.975951 0.042325 -0.003911
C24   C     C_R   0.571757 0.582553 0.041039 -0.005247
C25   C     C_R   0.621545 0.022961 0.034581 -0.159910
C26   C     C_R   0.019643 0.629760 0.040243 -0.172371
C27   C     C_R   0.379850 0.375417 0.037813 -0.171093
C28   C     C_R   0.077383 0.656365 0.973103 -0.166610
C29   C     C_R   0.609821 0.005619 0.962919 -0.177215
C30   C     C_R   0.363752 0.395403 0.966858 -0.147450
C31   C     C_3   0.310221 0.020526 0.964592 -0.130512
C32   C     C_3   0.031545 0.316780 0.972586 -0.120463
C33   C     C_3   0.650239 0.743059 0.977728 -0.129385
C34   C     C_3   0.972388 0.296303 0.045743 -0.131657
C35   C     C_3   0.324846 0.047150 0.042113 -0.127139
C36   C     C_3   0.641067 0.722207 0.056843 -0.148241
H1    H     H_    0.713191 0.043019 0.057525 0.123309
H2    H     H_    0.993290 0.697102 0.061614 0.181106
H3    H     H_    0.308105 0.283348 0.061096 0.151982
H4    H     H_    0.097098 0.745017 0.947842 0.160114
H5    H     H_    0.693628 0.016904 0.934776 0.154395
H6    H     H_    0.284950 0.316318 0.938459 0.146775
H7    H     H_    0.207639 0.953898 0.946434 0.121396
H8    H     H_    0.105643 0.286913 0.971645 0.104527
H9    H     H_    0.604755 0.795599 0.954743 0.142615
H10   H     H_    0.863332 0.245190 0.048240 0.128704
H11   H     H_    0.388018 0.150529 0.058374 0.145296
H12   H     H_    0.730475 0.743386 0.083836 0.131327
C37   C     C_R   0.487607 0.969772 0.571694 0.005910
C38   C     C_R   0.997379 0.501347 0.578631 -0.007343
C39   C     C_R   0.506031 0.496448 0.580025 -0.000547
C40   C     C_R   0.908594 0.462456 0.436646 0.004392
C41   C     C_R   0.521663 0.039644 0.428215 0.017152
C42   C     C_R   0.535776 0.452845 0.435352 0.024759
C43   C     C_R   0.607692 0.025364 0.537982 -0.009508
C44   C     C_R   0.929569 0.558613 0.550856 -0.005261
C45   C     C_R   0.450444 0.371368 0.550890 -0.009746
C46   C     C_R   0.887791 0.543246 0.481977 0.010551
C47   C     C_R   0.626021 0.062413 0.470136 0.018353
C48   C     C_R   0.459918 0.349266 0.480209 0.012927
C49   C     C_R   0.400813 0.000849 0.461986 -0.173686
C50   C     C_R   0.956451 0.387038 0.467655 -0.157905
C51   C     C_R   0.604647 0.578315 0.464843 -0.172434
C52   C     C_R   0.007958 0.411695 0.535770 -0.149095
C53   C     C_R   0.381241 0.957034 0.531812 -0.155791
C54   C     C_R   0.587220 0.600448 0.535261 -0.163527
C55   C     C_3   0.722364 0.006741 0.539853 -0.126663
C56   C     C_3   0.961329 0.695004 0.557117 -0.124951
C57   C     C_3   0.312009 0.262487 0.555435 -0.130094
C58   C     C_3   0.927939 0.686565 0.480270 -0.121549
C59   C     C_3   0.737612 0.037458 0.462517 -0.111733
C60   C     C_3   0.313625 0.252339 0.477160 -0.117527
C61   C     C_R   0.381300 0.141457 0.922226 0.030244
C62   C     C_R   0.511928 0.241527 0.936543 -0.079501
C63   C     C_R   0.575717 0.344858 0.890066 -0.119898
C64   C     C_R   0.516178 0.341253 0.826791 -0.092842
C65   C     C_R   0.384788 0.247322 0.816183 -0.076359
C66   C     C_R   0.316289 0.150289 0.864330 -0.116985
H13   H     H_    0.564983 0.238991 0.982145 0.109298
H14   H     H_    0.675312 0.420428 0.899672 0.083466
H15   H     H_    0.566143 0.414444 0.787463 0.116667
H16   H     H_    0.333201 0.253474 0.770791 0.164081
H17   H     H_    0.213823 0.080378 0.855451 0.073468
C67   C     C_R   0.932132 0.259810 0.915150 0.050121
C68   C     C_R   0.839770 0.299374 0.901269 -0.071724
C69   C     C_R   0.761526 0.251886 0.841807 -0.132466
C70   C     C_R   0.754245 0.148111 0.806025 -0.073635
C71   C     C_R   0.843415 0.106908 0.820372 -0.107150
C72   C     C_R   0.942731 0.175668 0.869201 -0.123933
H18   H     H_    0.836017 0.373108 0.932733 0.101359
H19   H     H_    0.712106 0.297331 0.819195 0.099390
H20   H     H_    0.686904 0.107546 0.762266 0.157436
H21   H     H_    0.843477 0.032009 0.788358 0.105866
H22   H     H_    0.025491 0.160815 0.874295 0.084039
C73   C     C_R   0.782219 0.773310 0.948147 0.043202
C74   C     C_R   0.812036 0.673836 0.938714 -0.093669
C75   C     C_R   0.883990 0.678102 0.881221 -0.107842
C76   C     C_R   0.957075 0.795011 0.844519 -0.100808
C77   C     C_R   0.950831 0.903784 0.863986 -0.167722
C78   C     C_R   0.862474 0.892675 0.916299 -0.104992
H23   H     H_    0.765365 0.585592 0.969725 0.111235
H24   H     H_    0.878866 0.588466 0.865245 0.141489
H25   H     H_    0.011201 0.800174 0.798011 0.148233
H26   H     H_    0.003576 0.989429 0.832087 0.075895
H27   H     H_    0.850096 0.972027 0.931521 0.104704
C79   C     C_R   0.040067 0.268911 0.105237 0.040908
C80   C     C_R   0.163146 0.367403 0.131654 -0.095550
C81   C     C_R   0.214122 0.347818 0.192210 -0.073012
C82   C     C_R   0.159042 0.221855 0.218639 -0.085996
C83   C     C_R   0.030944 0.129347 0.199606 -0.138615
C84   C     C_R   0.969179 0.154757 0.144788 -0.057020
H28   H     H_    0.219802 0.460233 0.106163 0.121164
H29   H     H_    0.301752 0.428476 0.215561 0.150766
H30   H     H_    0.208580 0.201568 0.259818 0.150306
H31   H     H_    0.978948 0.040370 0.228744 0.088358
H32   H     H_    0.868309 0.083634 0.132577 0.109293
C85   C     C_R   0.195038 0.980827 0.078995 0.037253
C86   C     C_R   0.177073 0.909338 0.140035 -0.091350
C87   C     C_R   0.055404 0.847850 0.173642 -0.122995
C88   C     C_R   0.950145 0.853898 0.145267 -0.118022
C89   C     C_R   0.968143 0.926898 0.084599 -0.122598
C90   C     C_R   0.091060 0.994025 0.053051 -0.092476
H33   H     H_    0.256475 0.899816 0.160495 0.127087
H34   H     H_    0.040195 0.790724 0.220056 0.166507
H35   H     H_    0.856402 0.804511 0.171925 0.100760
H36   H     H_    0.889839 0.939064 0.063685 0.098037
H37   H     H_    0.104434 0.054632 0.007865 0.098600
C91   C     C_R   0.549033 0.754355 0.095870 0.026612
C92   C     C_R   0.417684 0.706651 0.073929 -0.083177
C93   C     C_R   0.326798 0.708901 0.119684 -0.134850
C94   C     C_R   0.363706 0.757927 0.186630 -0.144648
C95   C     C_R   0.495909 0.820110 0.205252 -0.091029
C96   C     C_R   0.588958 0.818386 0.160113 -0.079884
H38   H     H_    0.383358 0.662164 0.023165 0.111193
H39   H     H_    0.227351 0.671440 0.103841 0.136263
H40   H     H_    0.290608 0.753451 0.222317 0.099027
H41   H     H_    0.526621 0.873774 0.253691 0.164104
H42   H     H_    0.691635 0.865703 0.175537 0.092457
H43   H     H_    0.320381 0.997250 0.434279 0.154527
H44   H     H_    0.968527 0.319533 0.437279 0.151059
H45   H     H_    0.664978 0.660721 0.432217 0.158022
H46   H     H_    0.063683 0.367276 0.552867 0.158902
H47   H     H_    0.283024 0.907673 0.552966 0.147786
H48   H     H_    0.624847 0.699197 0.552115 0.139821
H49   H     H_    0.695092 0.905862 0.553374 0.128039
H50   H     H_    0.066752 0.765785 0.567695 0.145384
H51   H     H_    0.241162 0.291901 0.572798 0.154660
H52   H     H_    0.847723 0.705509 0.471576 0.122821
H53   H     H_    0.830963 0.125841 0.449567 0.121998
H54   H     H_    0.286849 0.154553 0.457538 0.122845
C97   C     C_R   0.829129 0.111605 0.583855 0.038135
C98   C     C_R   0.803219 0.190317 0.628622 -0.082184
C99   C     C_R   0.887613 0.254049 0.682889 -0.095507
C100  C     C_R   0.989067 0.229415 0.697862 -0.064175
C101  C     C_R   0.026357 0.170549 0.648897 -0.155513
C102  C     C_R   0.951620 0.119375 0.588225 -0.148944
H55   H     H_    0.717860 0.201814 0.623640 0.101620
H56   H     H_    0.872671 0.320949 0.714636 0.124794
H57   H     H_    0.049044 0.269645 0.743898 0.171871
H58   H     H_    0.114529 0.169914 0.660240 0.136503
H59   H     H_    0.983076 0.079758 0.546989 0.094801
C103  C     C_R   0.867954 0.702560 0.608847 0.038833
C104  C     C_R   0.818816 0.617278 0.666900 -0.066738
C105  C     C_R   0.772494 0.651085 0.725057 -0.100654
C106  C     C_R   0.774332 0.769006 0.726902 -0.057641
C107  C     C_R   0.807931 0.845821 0.667565 -0.120989
C108  C     C_R   0.852950 0.811913 0.607931 -0.147197
H60   H     H_    0.823500 0.528675 0.670050 0.105706
H61   H     H_    0.743138 0.589956 0.770358 0.102152
H62   H     H_    0.744314 0.798427 0.773372 0.163068
H63   H     H_    0.799362 0.931349 0.669653 0.152810
H64   H     H_    0.880885 0.871426 0.561715 0.089942
C109  C     C_R   0.306386 0.152854 0.597602 0.035068
C110  C     C_R   0.408678 0.178090 0.644983 -0.087750
C111  C     C_R   0.379561 0.103919 0.704595 -0.084257
C112  C     C_R   0.248035 0.010250 0.719843 -0.069812
C113  C     C_R   0.154482 0.968652 0.667613 -0.127771
C114  C     C_R   0.185643 0.035487 0.604056 -0.145293
H65   H     H_    0.508891 0.259372 0.639408 0.096263
H66   H     H_    0.458421 0.120614 0.740187 0.125068
H67   H     H_    0.222451 0.957352 0.768253 0.142876
H68   H     H_    0.059402 0.885841 0.678282 0.133925
H69   H     H_    0.112725 0.004260 0.563345 0.094955
C115  C     C_R   0.045290 0.770351 0.433589 0.044272
C116  C     C_R   0.141659 0.737189 0.418578 -0.070312
C117  C     C_R   0.221536 0.788315 0.359299 -0.113608
C118  C     C_R   0.213363 0.881458 0.318980 -0.097922
C119  C     C_R   0.128774 0.926080 0.338499 -0.125656
C120  C     C_R   0.046746 0.871980 0.396414 -0.112168
H70   H     H_    0.150092 0.668692 0.451736 0.111824
H71   H     H_    0.293747 0.761335 0.345766 0.084205
H72   H     H_    0.277018 0.923606 0.274483 0.137201
H73   H     H_    0.124660 0.999624 0.307552 0.081998
H74   H     H_    0.982241 0.906330 0.412329 0.086871
C121  C     C_R   0.706452 0.925176 0.414025 0.045736
C122  C     C_R   0.577477 0.816758 0.405738 -0.111999
C123  C     C_R   0.549020 0.733861 0.348364 -0.139954
C124  C     C_R   0.649723 0.752131 0.303219 -0.078722
C125  C     C_R   0.778377 0.851571 0.314637 -0.120910
C126  C     C_R   0.804610 0.942770 0.366645 -0.090446
H75   H     H_    0.498664 0.800193 0.441187 0.107321
H76   H     H_    0.450360 0.655982 0.337318 0.126658
H77   H     H_    0.627231 0.688514 0.258712 0.169130
H78   H     H_    0.856840 0.859046 0.282524 0.083696
H79   H     H_    0.901284 0.028602 0.369324 0.073521
C127  C     C_R   0.241025 0.313075 0.442156 0.048286
C128  C     C_R   0.275666 0.443559 0.455807 -0.090238
C129  C     C_R   0.245794 0.512023 0.408357 -0.134343
C130  C     C_R   0.166342 0.448505 0.351147 -0.090228
C131  C     C_R   0.107697 0.312672 0.346336 -0.115913
C132  C     C_R   0.149658 0.245901 0.389594 -0.111712
H80   H     H_    0.333872 0.497090 0.500093 0.119710
H81   H     H_    0.288010 0.614834 0.416518 0.086128
H82   H     H_    0.142514 0.502378 0.314122 0.147728
H83   H     H_    0.028712 0.259263 0.309610 0.151866
H84   H     H_    0.115436 0.144164 0.380974 0.074387

loop_
_geom_bond_atom_site_label_1
_geom_bond_atom_site_label_2
_geom_bond_distance
_ccdc_geom_bond_type
O19   C7    1.342571 A    
C88   H35   1.075875 S    
C60   H54   1.100875 S    
C61   C66   1.379601 A    
Cr6   O26   2.132434 S    
O20   C8    1.320338 A    
C112  H67   1.072568 S    
C32   C67   1.491773 S    
C43   C47   1.352506 A    
C35   C85   1.489097 S    
C58   H52   1.085734 S    
C63   H14   1.066582 S    
C55   C59   1.513003 S    
C94   C95   1.383696 A    
O16   Cr4   2.167330 S    
C85   C90   1.397944 A    
C56   H50   1.104534 S    
C74   C75   1.371434 A    
C15   C30   1.411655 A    
C92   C93   1.389813 A    
C41   C47   1.371593 A    
C51   C54   1.407234 A    
C17   C25   1.403408 A    
C99   H56   1.081046 S    
C124  H77   1.077372 S    
C109  C110  1.410258 A    
C98   C99   1.367502 A    
C60   C127  1.522166 S    
C44   C56   1.467236 S    
C104  H60   1.080582 S    
C25   C29   1.383235 A    
O8    Cr2   2.045199 S    
C53   H47   1.071542 S    
C18   C27   1.416775 A    
C33   C73   1.510309 S    
C95   C96   1.399752 A    
C55   H49   1.099865 S    
C79   C84   1.396815 A    
C2    C17   1.470898 S    
C62   C63   1.385401 A    
C13   C19   1.406609 A    
C26   C28   1.411115 A    
C114  H69   1.074671 S    
C14   C20   1.402742 A    
O9    Cr3   2.033200 S    
O14   Cr2   2.167415 S    
C67   C68   1.407687 A    
O10   Cr4   2.045977 S    
C130  C131  1.395257 A    
C24   C36   1.457083 S    
C89   H36   1.077177 S    
O2    C1    1.293439 A    
C69   C70   1.371291 A    
C46   C58   1.514567 S    
O5    C4    1.325404 A    
O12   Cr6   2.031548 S    
O13   Cr1   2.155577 S    
O19   Cr1   2.028044 S    
C118  H72   1.073618 S    
C73   C78   1.380242 A    
C41   C49   1.405516 A    
C110  H65   1.081771 S    
O11   C5    1.369134 A    
C128  C129  1.377035 A    
O21   Cr3   2.028260 S    
C112  C113  1.377782 A    
C110  C111  1.373408 A    
C39   C54   1.402392 A    
C34   C79   1.515399 S    
C97   C102  1.395127 A    
C63   C64   1.388303 A    
C30   H6    1.071397 S    
O11   Cr5   2.035970 S    
C107  C108  1.398866 A    
O1    C3    1.307688 A    
C64   C65   1.382955 A    
C31   C61   1.480528 S    
C21   C33   1.474282 S    
C65   C66   1.370337 A    
C55   C97   1.496872 S    
C92   H38   1.080814 S    
O1    Cr1   2.149681 S    
C15   C21   1.373028 A    
O23   Cr5   2.032797 S    
C33   C36   1.529181 S    
C121  C126  1.395041 A    
O3    Cr3   2.153317 S    
C89   C90   1.382004 A    
C7    C42   1.472104 S    
C125  H78   1.071946 S    
C95   H41   1.077254 S    
C106  C107  1.381817 A    
C40   C46   1.401613 A    
C3    C16   1.479503 S    
C39   C45   1.396392 A    
C57   C109  1.502479 S    
C4    C15   1.474114 S    
C119  C120  1.391960 A    
C11   C38   1.481054 S    
C20   C22   1.379856 A    
C131  C132  1.396896 A    
C43   C55   1.470289 S    
C62   H13   1.081715 S    
C129  H81   1.067886 S    
O7    Cr1   2.035102 S    
C84   H32   1.073241 S    
C34   H10   1.103805 S    
O15   C8    1.324526 A    
C31   C35   1.508260 S    
O18   C11   1.332011 A    
C38   C52   1.396177 A    
C67   C72   1.381077 A    
O22   Cr4   2.039710 S    
C111  C112  1.398904 A    
O4    Cr4   2.162363 S    
C117  H71   1.077850 S    
C19   C31   1.490352 S    
C115  C116  1.402146 A    
C77   H26   1.071156 S    
C20   C32   1.501610 S    
C118  C119  1.391521 A    
C71   H21   1.078392 S    
C26   H2    1.072212 S    
Cr3   O25   2.131993 S    
C29   H5    1.067789 S    
C78   H27   1.062246 S    
C70   H20   1.082253 S    
C127  C132  1.388582 A    
O21   C9    1.363922 A    
Cr2   O25   2.104055 S    
C104  C105  1.383514 A    
C72   H22   1.075689 S    
C32   C34   1.525882 S    
C64   H15   1.070339 S    
Cr1   O25   2.125672 S    
C16   C22   1.355001 A    
C68   H18   1.079895 S    
C97   C98   1.408145 A    
C74   H23   1.078757 S    
C123  C124  1.388373 A    
C57   H51   1.102957 S    
C33   H9    1.097423 S    
C54   H48   1.069001 S    
C80   H28   1.070856 S    
O2    Cr2   2.165501 S    
C130  H82   1.081741 S    
C121  C122  1.410488 A    
O15   Cr3   2.157288 S    
C94   H40   1.075856 S    
O7    C1    1.349191 A    
C12   C37   1.465051 S    
C87   C88   1.384299 A    
O17   C10   1.327980 A    
C17   C23   1.390808 A    
C56   C58   1.512440 S    
C113  C114  1.395221 A    
C32   H8    1.092680 S    
C35   H11   1.106245 S    
C106  H62   1.077155 S    
C40   C50   1.406210 A    
C87   H34   1.075587 S    
C81   C82   1.386112 A    
C45   C48   1.392674 A    
C50   C52   1.404065 A    
O18   Cr6   2.152786 S    
C122  H75   1.080865 S    
C128  H80   1.071019 S    
O3    C2    1.317157 A    
C52   H46   1.077911 S    
C82   H30   1.076933 S    
C100  C101  1.365469 A    
C116  H70   1.074102 S    
C65   H16   1.082694 S    
C58   C115  1.512918 S    
C116  C117  1.397925 A    
C76   H25   1.076445 S    
C44   C46   1.386088 A    
C102  H59   1.074410 S    
C123  H76   1.072626 S    
C57   C60   1.503654 S    
C86   H33   1.068372 S    
C82   C83   1.385223 A    
O13   C9    1.352138 A    
C126  H79   1.072825 S    
Cr5   O26   2.125089 S    
C111  H66   1.083543 S    
C10   C39   1.492358 S    
C36   H12   1.078600 S    
C6    C13   1.480935 S    
C49   C53   1.409730 A    
C107  H63   1.068770 S    
C71   C72   1.389526 A    
C80   C81   1.377464 A    
C93   C94   1.382318 A    
C100  H57   1.076217 S    
C21   C24   1.363655 A    
C96   H42   1.080057 S    
C93   H39   1.060322 S    
O6    C5    1.354397 A    
O5    Cr5   2.158353 S    
C127  C128  1.408857 A    
C49   H43   1.064631 S    
C27   C30   1.407919 A    
O8    C2    1.340037 A    
C14   C28   1.412186 A    
C59   H53   1.091657 S    
C83   H31   1.068238 S    
C117  C118  1.389837 A    
O20   Cr2   2.041853 S    
C113  H68   1.065901 S    
C47   C59   1.488534 S    
C105  C106  1.386869 A    
C77   C78   1.397782 A    
C81   H29   1.082424 S    
C23   C35   1.482058 S    
C70   C71   1.388542 A    
C16   C26   1.413841 A    
C22   C34   1.442606 S    
C56   C103  1.511887 S    
O16   C12   1.322536 A    
C61   C62   1.408196 A    
O23   C11   1.343271 A    
C68   C69   1.389378 A    
C131  H83   1.075982 S    
O17   Cr5   2.160157 S    
O24   C12   1.327545 A    
C50   H44   1.054622 S    
C101  H58   1.060935 S    
C91   C92   1.409258 A    
C91   C96   1.394712 A    
C76   C77   1.378634 A    
C75   C76   1.393033 A    
C5    C14   1.498180 S    
O4    C6    1.325917 A    
C90   H37   1.083648 S    
O10   C4    1.357681 A    
C85   C86   1.395045 A    
C37   C43   1.375008 A    
C99   C100  1.392108 A    
C108  H64   1.073523 S    
C31   H7    1.107747 S    
C109  C114  1.397684 A    
C38   C44   1.387780 A    
C8    C41   1.451091 S    
C120  H74   1.069400 S    
C13   C29   1.393008 A    
C129  C130  1.386290 A    
C37   C53   1.404547 A    
C115  C120  1.391744 A    
C119  H73   1.075212 S    
C103  C104  1.412857 A    
C19   C23   1.406497 A    
C69   H19   1.063745 S    
O22   C10   1.333163 A    
C51   H45   1.068591 S    
C124  C125  1.380902 A    
C9    C40   1.487120 S    
C18   C24   1.352699 A    
C75   H24   1.076972 S    
C42   C51   1.400152 A    
C48   C60   1.504894 S    
C122  C123  1.395644 A    
C1    C18   1.465755 S    
C103  C108  1.393604 A    
C45   C57   1.476475 S    
Cr4   O26   2.104198 S    
C88   C89   1.398666 A    
C101  C102  1.394738 A    
C132  H84   1.072170 S    
O6    Cr6   2.147789 S    
O12   C6    1.330557 A    
C125  C126  1.383546 A    
C28   H4    1.069690 S    
C83   C84   1.392865 A    
O24   Cr6   2.025654 S    
C42   C48   1.387529 A    
C25   H1    1.070685 S    
C105  H61   1.068506 S    
C36   C91   1.511622 S    
C59   C121  1.506504 S    
C66   H17   1.071553 S    
C98   H55   1.081371 S    
C79   C80   1.410783 A    
C73   C74   1.401054 A    
O9    C3    1.365046 A    
C27   H3    1.078814 S    
C86   C87   1.387045 A    
O14   C7    1.339289 A    
