data_mof_unit_57850.cif
_audit_creation_date              2012-12-11T14:52:45-0500
_audit_creation_method            fapswitch 2.2
_symmetry_space_group_name_H-M    P1
_symmetry_Int_Tables_number       1
_space_group_crystal_system       triclinic
_cell_length_a                    20.711597
_cell_length_b                    7.243587
_cell_length_c                    20.214284
_cell_angle_alpha                 89.998644
_cell_angle_beta                  101.748939
_cell_angle_gamma                 89.998571
_cell_volume                      2969.13651857

loop_
_atom_site_label
_atom_site_type_symbol
_atom_type_description
_atom_site_fract_x
_atom_site_fract_y
_atom_site_fract_z
_atom_type_partial_charge
O1    O     O_R   0.673670 0.377510 0.185950 -0.545937
O2    O     O_R   0.326330 0.622490 0.814050 -0.543901
O3    O     O_R   0.826330 0.877510 0.314050 -0.545936
O4    O     O_R   0.173670 0.122490 0.685950 -0.543906
O5    O     O_R   0.806260 0.705340 0.185590 -0.538764
O6    O     O_R   0.193740 0.294660 0.814410 -0.541965
O7    O     O_R   0.693740 0.205340 0.314410 -0.538771
O8    O     O_R   0.306260 0.794660 0.685590 -0.541964
C1    C     C_R   0.825481 0.538867 0.170743 0.719647
C2    C     C_R   0.174267 0.461034 0.829015 0.726508
C3    C     C_R   0.674522 0.038867 0.329258 0.719632
C4    C     C_R   0.325727 0.961036 0.670979 0.726524
O9    O     O_R   0.672940 0.707120 0.178050 -0.529914
O10   O     O_R   0.327060 0.292880 0.821950 -0.516775
O11   O     O_R   0.827060 0.207120 0.321950 -0.529917
O12   O     O_R   0.172940 0.792880 0.678050 -0.516815
O13   O     O_R   0.692060 0.879040 0.306460 -0.524014
O14   O     O_R   0.307940 0.120960 0.693540 -0.529640
O15   O     O_R   0.807940 0.379040 0.193540 -0.524023
O16   O     O_R   0.192060 0.620960 0.806460 -0.529655
C5    C     C_R   0.648661 0.539776 0.161145 0.763079
C6    C     C_R   0.351105 0.460545 0.838970 0.757007
C7    C     C_R   0.851336 0.039769 0.338858 0.763069
C8    C     C_R   0.148895 0.960551 0.661032 0.757015
O17   O     O_3   0.756430 0.544390 0.292140 -0.383831
O18   O     O_3   0.243570 0.455610 0.707860 -0.378357
O19   O     O_3   0.743570 0.044390 0.207860 -0.383827
O20   O     O_3   0.256430 0.955610 0.792140 -0.378350
V1    V     V_3+5 0.748810 0.818610 0.242180 1.417264
V2    V     V_3+5 0.251190 0.181390 0.757820 1.448532
V3    V     V_3+5 0.751190 0.318610 0.257820 1.417246
V4    V     V_3+5 0.248810 0.681390 0.742180 1.448490
C9    C     C_R   0.087533 0.962080 0.608062 -0.205467
C10   C     C_R   0.913184 0.039055 0.391476 -0.219969
C11   C     C_R   0.412465 0.462056 0.891946 -0.205446
C12   C     C_R   0.586812 0.539074 0.108529 -0.219954
C13   C     C_R   0.022278 0.167565 0.438269 0.336179
C14   C     C_R   0.980536 0.821939 0.559536 0.346599
C15   C     C_R   0.477725 0.667636 0.061719 0.336147
C16   C     C_R   0.519450 0.321861 0.940499 0.346576
C17   C     C_R   0.963346 0.169357 0.388657 0.308866
C18   C     C_R   0.034611 0.845549 0.614314 0.313924
C19   C     C_R   0.536655 0.669409 0.111338 0.308866
C20   C     C_R   0.465375 0.345444 0.885718 0.313931
C21   C     C_R   0.920393 0.919165 0.447164 -0.272968
C22   C     C_R   0.083093 0.068760 0.549553 -0.270184
C23   C     C_R   0.579597 0.419150 0.052855 -0.272973
C24   C     C_R   0.416912 0.568802 0.950440 -0.270168
C25   C     C_R   0.975893 0.931319 0.500926 -0.038456
C26   C     C_R   0.027286 0.056770 0.496343 -0.050112
C27   C     C_R   0.524098 0.431299 0.999091 -0.038426
C28   C     C_R   0.472714 0.556802 0.003657 -0.050110
C29   C     C_3   0.559286 0.066591 0.534765 0.378237
C30   C     C_3   0.444469 0.933055 0.468976 0.354632
C31   C     C_3   0.940738 0.566972 0.965255 0.378307
C32   C     C_3   0.055458 0.432536 0.030945 0.354677
C33   C     C_3   0.527072 0.886334 0.551968 0.406815
C34   C     C_3   0.476723 0.113635 0.451885 0.401210
C35   C     C_3   0.972813 0.386621 0.947918 0.406591
C36   C     C_3   0.023345 0.613213 0.048168 0.400972
C37   C     C_1   0.371908 0.967770 0.625996 -0.189622
C38   C     C_1   0.629214 0.031742 0.375137 -0.174813
C39   C     C_1   0.128071 0.467749 0.873981 -0.189495
C40   C     C_1   0.870789 0.531741 0.124864 -0.174826
C41   C     C_3   0.492018 0.168287 0.527814 -0.387599
C42   C     C_3   0.511935 0.831434 0.476143 -0.384449
C43   C     C_3   0.008085 0.668283 0.972279 -0.387618
C44   C     C_3   0.987911 0.331304 0.023705 -0.384533
C45   C     C_3   0.459618 0.984630 0.544377 -0.085021
C46   C     C_3   0.544094 0.015107 0.459484 -0.078622
C47   C     C_3   0.040343 0.484531 0.955581 -0.084870
C48   C     C_3   0.955896 0.515076 0.040501 -0.078428
C49   C     C_1   0.411334 0.973704 0.589108 0.010168
C50   C     C_1   0.590894 0.025862 0.413182 0.031356
C51   C     C_1   0.088634 0.473642 0.910856 0.010186
C52   C     C_1   0.909106 0.525853 0.086815 0.031324
H1    H     H_    0.123689 0.159560 0.545488 0.183326
H2    H     H_    0.881098 0.822381 0.449781 0.184503
H3    H     H_    0.376325 0.659655 0.954489 0.183335
H4    H     H_    0.618887 0.322332 0.050249 0.184522
O21   O     O_3   0.035823 0.755098 0.674742 -0.555970
C53   C     C_3   0.001849 0.864268 0.714558 0.090193
H5    H     H_    0.947699 0.848346 0.696423 0.155609
H6    H     H_    0.014955 0.013743 0.713795 0.100203
C54   C     C_3   0.019983 0.799533 0.787444 -0.712288
H7    H     H_    0.073110 0.825750 0.807924 0.228287
H8    H     H_    0.990487 0.874810 0.818840 0.183048
H9    H     H_    0.010104 0.649695 0.789953 0.209664
O22   O     O_3   0.957501 0.287134 0.333707 -0.557434
C55   C     C_3   0.949452 0.471734 0.353984 0.165311
H10   H     H_    0.971307 0.500914 0.408030 0.118481
H11   H     H_    0.896100 0.505234 0.345509 0.141084
C56   C     C_3   0.981839 0.601153 0.311365 -0.705995
H12   H     H_    0.959303 0.583390 0.257090 0.207416
H13   H     H_    0.975380 0.746594 0.326001 0.178047
H14   H     H_    0.035322 0.570060 0.319460 0.228399
O23   O     O_3   0.464142 0.254856 0.825315 -0.555975
C57   C     C_3   0.498167 0.363801 0.785482 0.090142
H15   H     H_    0.552311 0.347830 0.803658 0.155678
H16   H     H_    0.485079 0.513302 0.786170 0.100196
C58   C     C_3   0.480069 0.298823 0.712627 -0.712223
H17   H     H_    0.426961 0.325171 0.692092 0.228304
H18   H     H_    0.509624 0.373840 0.681225 0.182960
H19   H     H_    0.489895 0.148933 0.710203 0.209666
O24   O     O_3   0.542497 0.787174 0.166289 -0.557440
C59   C     C_3   0.550540 0.971782 0.146015 0.165285
H20   H     H_    0.528670 0.000987 0.091975 0.118563
H21   H     H_    0.603891 0.005273 0.154475 0.141056
C60   C     C_3   0.518167 0.101182 0.188653 -0.705970
H22   H     H_    0.540726 0.083411 0.242922 0.207402
H23   H     H_    0.524613 0.246629 0.174014 0.178073
H24   H     H_    0.464687 0.070078 0.180585 0.228325
O25   O     O_3   0.073706 0.282926 0.431418 -0.556198
C61   C     C_3   0.111162 0.194460 0.389608 0.109874
H25   H     H_    0.081789 0.177532 0.337315 0.153109
H26   H     H_    0.128845 0.056505 0.410243 0.114471
C62   C     C_3   0.171132 0.311995 0.386287 -0.726526
H27   H     H_    0.201551 0.329699 0.437878 0.227016
H28   H     H_    0.201307 0.243551 0.353840 0.184517
H29   H     H_    0.155431 0.449796 0.364764 0.219132
O26   O     O_3   0.929504 0.702771 0.564917 -0.557048
C63   C     C_3   0.951553 0.517950 0.564701 0.118531
H30   H     H_    0.976692 0.476292 0.616452 0.168531
H31   H     H_    0.985900 0.495880 0.529470 0.110863
C64   C     C_3   0.892310 0.392212 0.542475 -0.749257
H32   H     H_    0.867625 0.424982 0.489686 0.214310
H33   H     H_    0.908567 0.245984 0.545040 0.191487
H34   H     H_    0.856700 0.411007 0.576237 0.232029
O27   O     O_3   0.426306 0.783057 0.068552 -0.556218
C65   C     C_3   0.388836 0.694674 0.110367 0.109843
H35   H     H_    0.418201 0.677767 0.162665 0.153170
H36   H     H_    0.371143 0.556717 0.089748 0.114489
C66   C     C_3   0.328874 0.812279 0.113664 -0.726584
H37   H     H_    0.298468 0.829975 0.062066 0.227010
H38   H     H_    0.298684 0.743895 0.146109 0.184507
H39   H     H_    0.344584 0.950081 0.135175 0.219156
O28   O     O_3   0.570483 0.202673 0.935133 -0.557096
C67   C     C_3   0.548437 0.017854 0.935349 0.118499
H40   H     H_    0.523361 0.976150 0.883585 0.168563
H41   H     H_    0.514035 0.995808 0.970527 0.110943
C68   C     C_3   0.607676 0.892145 0.957666 -0.749244
H42   H     H_    0.632289 0.924935 0.010476 0.214236
H43   H     H_    0.591429 0.745911 0.955084 0.191521
H44   H     H_    0.643344 0.910948 0.923968 0.232039
O29   O     O_3   0.556498 0.757927 0.601594 -0.555926
C69   C     C_3   0.560632 0.831714 0.666893 0.115580
H45   H     H_    0.512845 0.811875 0.682856 0.114927
H46   H     H_    0.573840 0.980936 0.669917 0.148717
C70   C     C_3   0.613854 0.729326 0.716308 -0.712097
H47   H     H_    0.662586 0.751450 0.702667 0.237206
H48   H     H_    0.615877 0.781497 0.768364 0.177072
H49   H     H_    0.603095 0.579171 0.715034 0.212112
O30   O     O_3   0.451573 0.247966 0.402767 -0.560944
C71   C     C_3   0.427704 0.164471 0.339576 0.127990
H50   H     H_    0.380383 0.092657 0.339741 0.174442
H51   H     H_    0.463820 0.064982 0.325896 0.122125
C72   C     C_3   0.414197 0.314174 0.285701 -0.769911
H52   H     H_    0.460886 0.384813 0.281837 0.233381
H53   H     H_    0.392066 0.252203 0.236040 0.176901
H54   H     H_    0.379140 0.417357 0.298767 0.228876
O31   O     O_3   0.943287 0.258553 0.898213 -0.555961
C73   C     C_3   0.939225 0.332589 0.832961 0.115577
H55   H     H_    0.987050 0.312960 0.817057 0.114911
H56   H     H_    0.925967 0.481780 0.829999 0.148871
C74   C     C_3   0.886091 0.230226 0.783435 -0.712161
H57   H     H_    0.837318 0.252104 0.797016 0.237111
H58   H     H_    0.884116 0.282624 0.731415 0.177119
H59   H     H_    0.896911 0.080103 0.784652 0.212162
O32   O     O_3   0.048598 0.747234 0.097367 -0.561015
C75   C     C_3   0.072455 0.663383 0.160496 0.127973
H60   H     H_    0.119686 0.591177 0.160232 0.174454
H61   H     H_    0.036250 0.564164 0.174169 0.122166
C76   C     C_3   0.086197 0.812859 0.214443 -0.769849
H62   H     H_    0.039598 0.883817 0.218435 0.233268
H63   H     H_    0.108359 0.750610 0.264049 0.176888
H64   H     H_    0.121310 0.915838 0.201351 0.228945
O33   O     O_3   0.621497 0.125210 0.570997 -0.547732
C77   C     C_3   0.629803 0.314857 0.559352 0.109456
H65   H     H_    0.596990 0.398209 0.584922 0.161639
H66   H     H_    0.619336 0.347643 0.504325 0.131652
C78   C     C_3   0.700717 0.369390 0.588821 -0.680261
H67   H     H_    0.734886 0.289207 0.564036 0.219115
H68   H     H_    0.707680 0.518906 0.580305 0.198309
H69   H     H_    0.712451 0.341575 0.644014 0.220959
O34   O     O_3   0.382114 0.872150 0.433864 -0.561302
C79   C     C_3   0.377175 0.679452 0.441105 0.113327
H70   H     H_    0.388779 0.637598 0.495308 0.134801
H71   H     H_    0.410897 0.607539 0.413268 0.166740
C80   C     C_3   0.307343 0.618099 0.410698 -0.721190
H72   H     H_    0.293941 0.660028 0.356784 0.218167
H73   H     H_    0.304333 0.465492 0.413824 0.199766
H74   H     H_    0.272072 0.681102 0.438801 0.223523
O35   O     O_3   0.878570 0.626101 0.929072 -0.547750
C81   C     C_3   0.870433 0.815767 0.940831 0.109235
H75   H     H_    0.903308 0.898991 0.915294 0.161723
H76   H     H_    0.880950 0.848310 0.995878 0.131485
C82   C     C_3   0.799562 0.870850 0.911416 -0.679558
H77   H     H_    0.765334 0.790811 0.936173 0.218934
H78   H     H_    0.792736 0.020390 0.920020 0.198430
H79   H     H_    0.787783 0.843280 0.856208 0.220923
O36   O     O_3   0.117769 0.371094 0.065992 -0.561328
C83   C     C_3   0.122499 0.178350 0.058693 0.113288
H80   H     H_    0.110730 0.136585 0.004483 0.134622
H81   H     H_    0.088786 0.106720 0.086616 0.166907
C84   C     C_3   0.192307 0.116421 0.088926 -0.720715
H82   H     H_    0.205863 0.158122 0.142856 0.218090
H83   H     H_    0.195168 0.963790 0.085711 0.199920
H84   H     H_    0.227559 0.179251 0.060760 0.223472
H85   H     H_    0.521417 0.692939 0.456595 0.160013
H86   H     H_    0.483189 0.306943 0.547640 0.156251
H87   H     H_    0.978324 0.192766 0.043152 0.159617
H88   H     H_    0.017021 0.806979 0.952548 0.155923

loop_
_geom_bond_atom_site_label_1
_geom_bond_atom_site_label_2
_ccdc_geom_bond_type
O17   V3    S    
C81   H76   S    
O1    C5    A    
C72   H52   S    
C4    C37   S    
C33   O29   S    
O19   V1    S    
C1    C40   S    
O13   V1    S    
O36   C83   S    
O12   C8    A    
O24   C59   S    
O3    C7    A    
C2    C39   S    
C33   C42   S    
C48   C52   S    
C3    C38   S    
O15   V3    S    
C25   C26   A    
O31   C73   S    
O34   C79   S    
C70   H47   S    
C5    C12   S    
C42   C46   S    
C76   H62   S    
C82   H79   S    
O7    C3    A    
C6    C11   S    
C18   O21   S    
C74   H57   S    
C83   H81   S    
C36   O32   S    
C24   H3    S    
O9    V1    S    
C14   C18   A    
C24   C28   A    
C31   C35   S    
C70   H48   S    
C54   H7    S    
O4    C8    A    
C57   H15   S    
C76   H64   S    
C81   C82   S    
C13   O25   S    
C59   H20   S    
C36   C48   S    
C73   C74   S    
O1    V3    S    
C12   C23   A    
O2    V4    S    
C19   O24   S    
C58   H18   S    
O3    V1    S    
C60   H23   S    
O25   C61   S    
C55   H11   S    
C1    O15   A    
C36   C43   S    
C2    O16   A    
C83   C84   S    
C46   C50   S    
C64   H34   S    
C45   C49   S    
C21   H2    S    
O14   V2    S    
C29   C41   S    
C16   C20   A    
C69   H46   S    
C31   C48   S    
O35   C81   S    
O8    C4    A    
C32   C47   S    
O11   C7    A    
C15   C28   A    
C56   H13   S    
C9    C22   A    
C80   H72   S    
C10   C17   A    
C23   H4    S    
O10   V2    S    
C29   C46   S    
C58   H17   S    
O23   C57   S    
C73   H56   S    
C84   H83   S    
C15   C19   A    
O7    V3    S    
C83   H80   S    
C69   H45   S    
C54   H8    S    
C27   C28   A    
O8    V4    S    
O32   C75   S    
C77   H65   S    
C71   C72   S    
C62   H29   S    
O22   C55   S    
C14   C25   A    
C29   C33   S    
O18   V4    S    
C34   C46   S    
C23   C27   A    
C32   O36   S    
C15   O27   S    
C37   C49   T    
C78   H67   S    
C30   O34   S    
O21   C53   S    
C14   O26   S    
C32   C36   S    
C61   H26   S    
C68   H43   S    
C4    O14   A    
C72   H53   S    
C80   H74   S    
C65   H36   S    
O5    C1    A    
C77   C78   S    
C35   O31   S    
C34   O30   S    
C35   C44   S    
C66   H39   S    
C69   C70   S    
C20   O23   S    
C34   C41   S    
C31   C43   S    
C21   C25   A    
C44   C48   S    
C7    C10   S    
C16   O28   S    
C30   C34   S    
C40   C52   T    
O9    C5    A    
C43   H88   S    
C56   H12   S    
C42   H85   S    
C11   C20   A    
C71   H50   S    
C41   H86   S    
C76   H63   S    
C10   C21   A    
C30   C42   S    
C70   H49   S    
C74   H59   S    
O6    V2    S    
C82   H78   S    
O33   C77   S    
C56   H14   S    
C57   H16   S    
C66   H37   S    
C67   H41   S    
C60   H24   S    
C65   C66   S    
O12   V4    S    
C9    C18   A    
C63   H31   S    
C53   C54   S    
O5    V1    S    
O29   C69   S    
C54   H9    S    
C55   C56   S    
C64   H33   S    
O27   C65   S    
O16   V4    S    
C84   H84   S    
C84   H82   S    
C3    O13   A    
C78   H69   S    
C31   O35   S    
C17   O22   S    
C71   H51   S    
C67   C68   S    
C29   O33   S    
O6    C2    A    
C22   H1    S    
C77   H66   S    
O26   C63   S    
O11   V3    S    
C68   H44   S    
C72   H54   S    
C73   H55   S    
C16   C27   A    
O28   C67   S    
C22   C26   A    
C53   H6    S    
C8    C9    S    
C57   C58   S    
O2    C6    A    
C63   C64   S    
C62   H28   S    
C65   H35   S    
C79   H70   S    
C32   C44   S    
C68   H42   S    
C47   C51   S    
C13   C26   A    
O10   C6    A    
C55   H10   S    
C64   H32   S    
C30   C45   S    
C39   C51   T    
C79   C80   S    
C41   C45   S    
O20   V2    S    
C81   H75   S    
C43   C47   S    
C61   H25   S    
C13   C17   A    
C82   H77   S    
C59   H21   S    
C61   C62   S    
C11   C24   A    
C67   H40   S    
C78   H68   S    
C74   H58   S    
C53   H5    S    
C75   H60   S    
C60   H22   S    
C66   H38   S    
C38   C50   T    
C12   C19   A    
C58   H19   S    
C75   H61   S    
C33   C45   S    
C63   H30   S    
C62   H27   S    
C44   H87   S    
C79   H71   S    
C59   C60   S    
O4    V2    S    
C35   C47   S    
C80   H73   S    
O30   C71   S    
C75   C76   S    
