data_mof_unit_44426.cif
_audit_creation_date              2012-12-10T20:50:11-0500
_audit_creation_method            fapswitch 2.2
_symmetry_space_group_name_H-M    P1
_symmetry_Int_Tables_number       1
_space_group_crystal_system       triclinic
_cell_length_a                    19.213466
_cell_length_b                    8.933155
_cell_length_c                    8.104669
_cell_angle_alpha                 90.00183
_cell_angle_beta                  90.311297
_cell_angle_gamma                 89.998451
_cell_volume                      1391.0394858

loop_
_atom_site_label
_atom_site_type_symbol
_atom_type_description
_atom_site_fract_x
_atom_site_fract_y
_atom_site_fract_z
_atom_type_partial_charge
C1    C     C_R   0.499991 0.217986 0.499999 0.927095
C2    C     C_R   0.250431 0.541107 0.368307 0.549150
C3    C     C_R   0.185565 0.385731 0.628151 -0.266165
C4    C     C_R   0.819217 0.427572 0.368013 -0.180245
C5    C     C_R   0.820031 0.532116 0.649867 -0.173312
C6    C     C_R   0.178134 0.524295 0.365833 -0.136479
C7    C     C_R   0.145760 0.447832 0.498084 -0.194502
C8    C     C_R   0.855778 0.474087 0.511451 -0.250948
C9    C     C_R   0.289796 0.482479 0.499107 -0.301561
C10   C     C_R   0.710965 0.494559 0.502460 -0.352631
C11   C     C_R   0.931144 0.465402 0.514985 0.447766
C12   C     C_R   0.499990 0.782014 0.500002 0.924783
C13   C     C_R   0.070626 0.451829 0.511255 0.398352
C14   C     C_2   0.153342 0.305258 0.769402 1.093078
C15   C     C_2   0.855287 0.372116 0.217223 1.030238
C16   C     C_2   0.856688 0.578340 0.804659 1.028824
C17   C     C_2   0.137618 0.587410 0.224326 1.013289
C18   C     C_R   0.365169 0.497694 0.499614 0.979765
C19   C     C_R   0.635010 0.499850 0.500516 0.968057
C20   C     C_1   0.499983 0.065192 0.499999 -0.125074
C21   C     C_1   0.499983 0.934813 0.500004 -0.127223
C22   C     C_R   0.257563 0.403384 0.626952 0.505330
C23   C     C_R   0.746730 0.437471 0.365837 0.565798
C24   C     C_R   0.747595 0.542781 0.642960 0.568038
F1    F     F_    0.296600 0.337960 0.747570 -0.624984
F2    F     F_    0.710890 0.392406 0.229445 -0.579937
F3    F     F_    0.712443 0.597964 0.774876 -0.579130
F4    F     F_    0.282747 0.614451 0.243213 -0.597841
H1    H     H_    0.202084 0.431877 0.941644 0.344973
H2    H     H_    0.852752 0.236838 0.017691 0.363092
H3    H     H_    0.858278 0.712151 0.005446 0.359405
H4    H     H_    0.130081 0.745669 0.047328 0.360378
N1    N     N_1   0.500000 0.500000 0.073640 0.021405
N2    N     N_1   0.500000 0.500000 0.926360 0.022309
N3    N     N_R   0.032567 0.325367 0.492878 -0.059969
N4    N     N_R   0.969251 0.591886 0.532419 -0.118484
N5    N     N_R   0.963586 0.331916 0.495823 -0.111327
N6    N     N_R   0.038163 0.585105 0.530773 -0.139428
O1    O     O_R   0.500000 0.285350 0.636850 -0.609927
O2    O     O_R   0.170674 0.341144 0.932433 -0.699408
O3    O     O_2   0.912213 0.421992 0.178966 -0.558172
O4    O     O_R   0.823508 0.264176 0.117013 -0.702256
O5    O     O_2   0.910426 0.515884 0.847598 -0.582578
O6    O     O_R   0.829129 0.692256 0.903093 -0.699188
O7    O     O_2   0.083764 0.527217 0.178016 -0.548826
O8    O     O_R   0.161681 0.714732 0.141960 -0.707965
O9    O     O_R   0.500000 0.714650 0.363150 -0.614129
O10   O     O_R   0.500000 0.714650 0.636850 -0.615649
O11   O     O_R   0.500000 0.285350 0.363150 -0.615626
O12   O     O_R   0.398140 0.500000 0.636920 -0.572231
O13   O     O_R   0.601860 0.500000 0.363080 -0.563936
O14   O     O_R   0.601860 0.500000 0.636920 -0.566630
O15   O     O_R   0.398140 0.500000 0.363080 -0.574759
O16   O     O_2   0.112401 0.203349 0.743876 -0.530938
Zn1   Zn    Zn3+2 0.500000 0.500000 0.682780 1.105743
Zn2   Zn    Zn3+2 0.500000 0.500000 0.317220 1.104594

loop_
_geom_bond_atom_site_label_1
_geom_bond_atom_site_label_2
_ccdc_geom_bond_type
O10   Zn1   S    
C24   F3    S    
C6    C7    A    
C10   C23   A    
C5    C8    A    
O11   Zn2   S    
C16   O6    S    
O12   Zn1   S    
O14   Zn1   S    
C12   O10   A    
C10   C19   S    
C4    C8    A    
N1    Zn2   S    
N4    N6    A    
N1    N2    T    
N2    Zn1   S    
C20   C21   T    
C5    C24   A    
C16   O5    D    
C18   O12   A    
C13   N6    A    
C2    C6    A    
C3    C14   S    
C1    O11   A    
C4    C15   S    
C8    C11   S    
C12   C21   S    
H1    O2    S    
C11   N4    A    
C14   O16   D    
C17   O7    D    
C13   N3    A    
C3    C7    A    
C12   O9    A    
C9    C22   A    
O15   Zn2   S    
H3    O6    S    
C1    O1    A    
C14   O2    S    
C6    C17   S    
C19   O13   A    
C9    C18   S    
C7    C13   S    
C17   O8    S    
C15   O3    D    
O13   Zn2   S    
C23   F2    S    
N3    N5    A    
C11   N5    A    
C4    C23   A    
H2    O4    S    
C5    C16   S    
C2    F4    S    
C18   O15   A    
C10   C24   A    
C2    C9    A    
H4    O8    S    
C19   O14   A    
C3    C22   A    
O1    Zn1   S    
C15   O4    S    
O9    Zn2   S    
C1    C20   S    
C22   F1    S    
