data_mof_unit_25680.cif
_audit_creation_date              2012-12-11T15:33:47-0500
_audit_creation_method            fapswitch 2.2
_symmetry_space_group_name_H-M    P1
_symmetry_Int_Tables_number       1
_space_group_crystal_system       triclinic
_cell_length_a                    27.267256
_cell_length_b                    7.18981
_cell_length_c                    22.657755
_cell_angle_alpha                 90.191312
_cell_angle_beta                  100.794688
_cell_angle_gamma                 90.268965
_cell_volume                      4363.28039126

loop_
_atom_site_label
_atom_site_type_symbol
_atom_type_description
_atom_site_fract_x
_atom_site_fract_y
_atom_site_fract_z
_atom_type_partial_charge
O1    O     O_R   0.207310 0.594030 0.676830 -0.522385
O2    O     O_R   0.792690 0.405970 0.323170 -0.522385
O3    O     O_R   0.292690 0.094030 0.823170 -0.516568
O4    O     O_R   0.707310 0.905970 0.176830 -0.516569
O5    O     O_R   0.197320 0.262370 0.795700 -0.522820
O6    O     O_R   0.802680 0.737630 0.204300 -0.522820
O7    O     O_R   0.302680 0.762370 0.704300 -0.525610
O8    O     O_R   0.697320 0.237630 0.295700 -0.525609
C1    C     C_R   0.185965 0.431181 0.813823 0.740388
C2    C     C_R   0.814035 0.568820 0.186176 0.740388
C3    C     C_R   0.314087 0.931342 0.686296 0.727314
C4    C     C_R   0.685913 0.068658 0.313704 0.727316
O9    O     O_R   0.201410 0.264250 0.675590 -0.537794
O10   O     O_R   0.798590 0.735750 0.324410 -0.537794
O11   O     O_R   0.298590 0.764250 0.824410 -0.537750
O12   O     O_R   0.701410 0.235750 0.175590 -0.537749
O13   O     O_R   0.296810 0.094940 0.702210 -0.532651
O14   O     O_R   0.703190 0.905060 0.297790 -0.532651
O15   O     O_R   0.203190 0.594940 0.797790 -0.534729
O16   O     O_R   0.796810 0.405060 0.202210 -0.534729
C5    C     C_R   0.189555 0.431752 0.653626 0.763425
C6    C     C_R   0.810445 0.568248 0.346374 0.763426
C7    C     C_R   0.310851 0.933151 0.846000 0.758093
C8    C     C_R   0.689149 0.066849 0.154000 0.758094
O17   O     O_3   0.281300 0.427390 0.758870 -0.363689
O18   O     O_3   0.718700 0.572610 0.241130 -0.363690
O19   O     O_3   0.218700 0.927390 0.741130 -0.369648
O20   O     O_3   0.781300 0.072610 0.258870 -0.369646
V1    V     V_3+5 0.244190 0.152150 0.748350 1.541732
V2    V     V_3+5 0.755810 0.847850 0.251650 1.541732
V3    V     V_3+5 0.255810 0.652150 0.751650 1.537811
V4    V     V_3+5 0.744190 0.347850 0.248350 1.537812
C9    C     C_R   0.653328 0.061349 0.096267 -0.104515
C10   C     C_R   0.346672 0.938650 0.903732 -0.104513
C11   C     C_R   0.846815 0.568483 0.403757 -0.108429
C12   C     C_R   0.153186 0.431517 0.596243 -0.108428
C13   C     C_R   0.638723 0.122963 0.989374 0.181022
C14   C     C_R   0.361278 0.877034 0.010626 0.181023
C15   C     C_R   0.867621 0.712673 0.502239 0.174428
C16   C     C_R   0.132380 0.287326 0.497761 0.174428
C17   C     C_R   0.669389 0.131207 0.045728 -0.182420
C18   C     C_R   0.330612 0.868787 0.954272 -0.182415
C19   C     C_R   0.832566 0.660273 0.452183 -0.177829
C20   C     C_R   0.167434 0.339726 0.547817 -0.177828
C21   C     C_R   0.603536 0.997081 0.091427 0.066323
C22   C     C_R   0.396464 0.002922 0.908572 0.066323
C23   C     C_R   0.897189 0.513616 0.407585 0.064805
C24   C     C_R   0.102811 0.486384 0.592414 0.064805
C25   C     C_R   0.568749 0.022112 0.035998 0.031105
C26   C     C_R   0.431251 0.977892 0.964002 0.031104
C27   C     C_R   0.932310 0.541304 0.462813 0.029466
C28   C     C_R   0.067691 0.458697 0.537186 0.029467
C29   C     C_R   0.588676 0.063884 0.983807 0.041709
C30   C     C_R   0.411325 0.936117 0.016193 0.041709
C31   C     C_R   0.917962 0.660874 0.506755 0.043254
C32   C     C_R   0.082039 0.339127 0.493244 0.043253
C33   C     C_R   0.515403 0.004492 0.029295 0.078478
C34   C     C_R   0.484598 0.995514 0.970704 0.078478
C35   C     C_R   0.981890 0.465528 0.475276 0.081509
C36   C     C_R   0.018111 0.534473 0.524723 0.081510
C37   C     C_R   0.508569 0.991664 0.921114 -0.137129
C38   C     C_R   0.491432 0.008343 0.078885 -0.137129
C39   C     C_R   0.004343 0.684270 0.557707 -0.141032
C40   C     C_R   0.995657 0.315732 0.442292 -0.141031
C41   C     C_R   0.558696 0.038392 0.927023 -0.123782
C42   C     C_R   0.441305 0.961613 0.072976 -0.123781
C43   C     C_R   0.954779 0.736551 0.552048 -0.128512
C44   C     C_R   0.045222 0.263450 0.447951 -0.128513
H1    H     H_    0.574064 0.047324 0.886472 0.175222
H2    H     H_    0.425937 0.952680 0.113527 0.175222
H3    H     H_    0.946152 0.843999 0.581916 0.173801
H4    H     H_    0.053848 0.156003 0.418083 0.173801
C45   C     C_R   0.615269 0.910311 0.349821 -0.139195
C46   C     C_R   0.384732 0.089688 0.650180 -0.139197
C47   C     C_R   0.883963 0.409934 0.149221 -0.124207
C48   C     C_R   0.116033 0.590057 0.850773 -0.124214
H5    H     H_    0.617432 0.798587 0.318237 0.171827
H6    H     H_    0.382569 0.201411 0.681764 0.171827
H7    H     H_    0.881246 0.297498 0.180168 0.170698
H8    H     H_    0.118746 0.702482 0.819821 0.170694
C49   C     C_R   0.578830 0.899675 0.385619 -0.115871
C50   C     C_R   0.421170 0.100323 0.614382 -0.115872
C51   C     C_R   0.920459 0.399405 0.113541 -0.107906
C52   C     C_R   0.079538 0.600587 0.886454 -0.107910
C53   C     C_R   0.573913 0.040884 0.426931 -0.061828
C54   C     C_R   0.426088 0.959114 0.573070 -0.061828
C55   C     C_R   0.926056 0.541142 0.072935 -0.062502
C56   C     C_R   0.073945 0.458860 0.927066 -0.062503
C57   C     C_R   0.606056 0.197462 0.431381 0.174082
C58   C     C_R   0.393944 0.802538 0.568619 0.174082
C59   C     C_R   0.894579 0.698269 0.069117 0.175996
C60   C     C_R   0.105424 0.301743 0.930886 0.176001
C61   C     C_R   0.644197 0.205904 0.396488 0.129490
C62   C     C_R   0.355803 0.794097 0.603512 0.129491
C63   C     C_R   0.856488 0.707053 0.104079 0.126918
C64   C     C_R   0.143515 0.292962 0.895924 0.126920
C65   C     C_R   0.648269 0.062466 0.354106 -0.123334
C66   C     C_R   0.351731 0.937534 0.645894 -0.123333
C67   C     C_R   0.851692 0.562907 0.145739 -0.119789
C68   C     C_R   0.148308 0.437095 0.854260 -0.119789
N1    N     N_R   0.546269 0.056266 0.525081 -0.213200
N2    N     N_R   0.453732 0.943731 0.474920 -0.213200
N3    N     N_R   0.953994 0.557060 0.974999 -0.212581
N4    N     N_R   0.046008 0.442943 0.025003 -0.212582
N5    N     N_R   0.511674 0.037319 0.559239 -0.249382
N6    N     N_R   0.488326 0.962679 0.440762 -0.249381
N7    N     N_R   0.988610 0.537957 0.940905 -0.244295
N8    N     N_R   0.011393 0.462045 0.059097 -0.244293
C69   C     C_R   0.464717 0.979450 0.534939 0.557786
C70   C     C_R   0.535284 0.020548 0.465062 0.557786
C71   C     C_R   0.035298 0.479279 0.965123 0.557394
C72   C     C_R   0.964705 0.520723 0.034878 0.557389
I1    I     I_    0.411020 0.182092 0.837847 -0.412006
I2    I     I_    0.588980 0.817913 0.162153 -0.412006
I3    I     I_    0.079719 0.537105 0.676813 -0.413547
I4    I     I_    0.920280 0.462892 0.323186 -0.413538
H9    H     H_    0.292875 0.815852 0.950350 0.168153
H10   H     H_    0.707127 0.184137 0.049649 0.168155
H11   H     H_    0.205672 0.294035 0.551204 0.167324
H12   H     H_    0.794329 0.705963 0.448796 0.167325
I5    I     I_    0.670951 0.212346 0.915668 -0.246843
I6    I     I_    0.329051 0.787647 0.084331 -0.246841
I7    I     I_    0.840709 0.875043 0.568024 -0.256294
I8    I     I_    0.159292 0.124956 0.431975 -0.256293
H13   H     H_    0.489086 0.950847 0.877126 0.168388
H14   H     H_    0.510914 0.049160 0.122874 0.168389
H15   H     H_    0.031757 0.764166 0.588035 0.168081
H16   H     H_    0.968244 0.235835 0.411964 0.168082
H17   H     H_    0.554440 0.779045 0.381286 0.170918
H18   H     H_    0.445561 0.220951 0.618716 0.170917
H19   H     H_    0.944347 0.278373 0.117396 0.172227
H20   H     H_    0.055648 0.721612 0.882596 0.172229
I9    I     I_    0.593579 0.430272 0.486235 -0.235800
I10   I     I_    0.406421 0.569729 0.513765 -0.235799
I11   I     I_    0.907953 0.931018 0.014974 -0.233130
I12   I     I_    0.092046 0.069010 0.985021 -0.233137
I13   I     I_    0.697895 0.427834 0.413658 -0.322162
I14   I     I_    0.302103 0.572171 0.586341 -0.322159
I15   I     I_    0.804031 0.930965 0.088070 -0.328021
I16   I     I_    0.195978 0.069079 0.911941 -0.328003

loop_
_geom_bond_atom_site_label_1
_geom_bond_atom_site_label_2
_ccdc_geom_bond_type
O17   V3    S    
C51   C55   A    
C25   C29   A    
O1    C5    A    
C55   C59   A    
O19   V1    S    
C9    C21   A    
O3    C7    A    
C10   C18   A    
O1    V3    S    
O15   V3    S    
C48   C52   A    
C15   I7    S    
C33   C38   A    
C46   C66   A    
C5    C12   S    
O7    C3    A    
C6    C11   S    
C35   C40   A    
C26   C30   A    
C3    C66   S    
C39   H15   S    
C40   C44   A    
O9    V1    S    
O10   V2    S    
C14   C18   A    
O16   V4    S    
C58   I10   S    
C63   C67   A    
C62   C66   A    
C60   C64   A    
O13   V1    S    
O2    V4    S    
O3    V1    S    
C28   C36   A    
C56   C71   S    
C21   I2    S    
C1    O15   A    
C15   C31   A    
C56   C60   A    
C2    O16   A    
C40   H16   S    
O2    C6    A    
C12   C24   A    
C10   C22   A    
C17   H10   S    
C50   H18   S    
C11   C19   A    
C16   C20   A    
C43   H3    S    
C44   H4    S    
C19   H12   S    
C13   C29   A    
C34   C37   A    
O11   C7    A    
C11   C23   A    
C35   C36   A    
O12   C8    A    
C57   C61   A    
C60   I12   S    
C46   C50   A    
C45   C49   A    
C58   C62   A    
O5    V1    S    
N1    N5    A    
C23   I4    S    
C16   I8    S    
C39   C43   A    
O7    V3    S    
C38   C42   A    
C26   C34   A    
C52   C56   A    
C48   C68   A    
C54   C69   S    
C57   I9    S    
C53   C70   S    
C54   C58   A    
C38   H14   S    
C53   C57   A    
O18   V4    S    
C15   C19   A    
C55   C72   S    
C20   H11   S    
C16   C32   A    
N1    C70   A    
C50   C54   A    
C52   H20   S    
N8    C72   A    
N3    C72   A    
O8    V4    S    
C45   C65   A    
O5    C1    A    
C23   C27   A    
N4    C71   A    
C49   H17   S    
C14   C30   A    
C21   C25   A    
O8    C4    A    
C7    C10   S    
C47   C67   A    
O9    C5    A    
C4    C65   S    
C14   I6    S    
C24   I3    S    
C13   I5    S    
O6    V2    S    
C1    C68   S    
C36   C39   A    
O14   V2    S    
C62   I14   S    
C12   C20   A    
C27   C35   A    
C61   C65   A    
N4    N8    A    
C29   C41   A    
N6    C70   A    
N5    C69   A    
C37   H13   S    
C3    O13   A    
C22   I1    S    
N7    C71   A    
C48   H8    S    
C64   I16   S    
C25   C33   A    
C31   C43   A    
C18   H9    S    
O11   V3    S    
C30   C42   A    
O12   V4    S    
C22   C26   A    
C63   I15   S    
C8    C9    S    
C9    C17   A    
O10   C6    A    
O20   V2    S    
C51   H19   S    
C32   C44   A    
C47   C51   A    
C33   C34   A    
C42   H2    S    
O4    C8    A    
C41   H1    S    
C64   C68   A    
N2    N6    A    
C27   C31   A    
C13   C17   A    
C2    C67   S    
O4    V2    S    
C61   I13   S    
O6    C2    A    
C59   C63   A    
C37   C41   A    
C24   C28   A    
C59   I11   S    
C46   H6    S    
C4    O14   A    
C45   H5    S    
N2    C69   A    
N3    N7    A    
C47   H7    S    
C49   C53   A    
C28   C32   A    
