data_mof_unit_51284.cif
_audit_creation_date              2012-12-10T18:11:45-0500
_audit_creation_method            fapswitch 2.2
_symmetry_space_group_name_H-M    P1
_symmetry_Int_Tables_number       1
_space_group_crystal_system       triclinic
_cell_length_a                    10.493083
_cell_length_b                    12.641305
_cell_length_c                    13.141688
_cell_angle_alpha                 82.333082
_cell_angle_beta                  90.729147
_cell_angle_gamma                 102.820118
_cell_volume                      1684.2885963

loop_
_atom_site_label
_atom_site_type_symbol
_atom_type_description
_atom_site_fract_x
_atom_site_fract_y
_atom_site_fract_z
_atom_type_partial_charge
Br1   Br    Br    0.748434 0.702904 0.701656 -0.524229
C1    C     C_R   0.480437 0.438871 0.691071 0.866662
C2    C     C_R   0.468671 0.447533 0.973291 0.090113
C3    C     C_R   0.435398 0.467194 0.869453 0.099070
C4    C     C_R   0.742444 0.501082 0.500201 0.882888
C5    C     C_R   0.466590 0.529463 0.036239 0.082776
C6    C     C_R   0.412055 0.620526 0.000166 0.175604
C7    C     C_R   0.362342 0.630034 0.901481 -0.233486
C8    C     C_R   0.373694 0.554304 0.836766 -0.185095
C9    C     C_R   0.519322 0.524013 0.133876 -0.250832
C10   C     C_R   0.448483 0.686453 0.165147 -0.207022
C11   C     C_R   0.466580 0.399859 0.800627 -0.105682
C12   C     C_3   0.062994 0.578119 0.426780 -0.192650
C13   C     C_R   0.319218 0.088061 0.345653 -0.308962
C14   C     C_R   0.655348 0.803476 0.630008 0.416769
C15   C     C_R   0.683990 0.907933 0.658030 -0.265038
C16   C     C_R   0.512981 0.560963 0.308879 0.848212
C17   C     C_R   0.623723 0.986886 0.609454 -0.261290
C18   C     C_R   0.533852 0.962373 0.530862 0.023490
C19   C     C_R   0.506181 0.854133 0.504463 0.180578
C20   C     C_R   0.471236 0.041408 0.477570 0.003652
C21   C     C_R   0.381566 0.011130 0.399177 0.193882
C22   C     C_R   0.355642 0.904723 0.374586 -0.292826
C23   C     C_3   0.988113 0.599422 0.519576 -0.103501
C24   C     C_R   0.417478 0.827692 0.426239 -0.193183
C25   C     C_R   0.494601 0.150381 0.498377 -0.051558
C26   C     C_R   0.346652 0.194210 0.369902 0.006148
C27   C     C_R   0.257607 0.498980 0.499774 0.836801
C28   C     C_3   0.937292 0.422295 0.573188 -0.169798
C29   C     C_3   0.049711 0.518956 0.592322 -0.156092
C30   C     C_3   0.121885 0.497667 0.499522 0.024452
C31   C     C_3   0.012126 0.400981 0.480371 -0.139502
C32   C     C_3   0.950557 0.481467 0.407631 -0.183142
C33   C     C_3   0.878321 0.502684 0.500436 0.020513
C34   C     C_R   0.405893 0.699645 0.064326 -0.194891
C35   C     C_R   0.501697 0.596305 0.200283 -0.045370
C36   C     C_R   0.502585 0.301593 0.837899 -0.189266
C37   C     C_R   0.516026 0.273698 0.942558 -0.144805
C38   C     C_R   0.502455 0.346721 0.009870 -0.192061
H1    H     H_    0.094711 0.533849 0.667507 0.135425
H2    H     H_    0.561072 0.181432 0.555894 0.125042
H3    H     H_    0.881408 0.359207 0.632910 0.135327
H4    H     H_    0.650382 0.066074 0.635200 0.148687
H5    H     H_    0.753757 0.928264 0.717735 0.180092
H6    H     H_    0.394641 0.748107 0.402766 0.205066
H7    H     H_    0.025876 0.320141 0.464391 0.147599
H8    H     H_    0.905532 0.466620 0.332448 0.138473
H9    H     H_    0.119037 0.641256 0.367151 0.131413
H10   H     H_    0.974603 0.680365 0.535419 0.173848
H11   H     H_    0.433774 0.743022 0.216509 0.146593
H12   H     H_    0.570401 0.461045 0.162162 0.146984
H13   H     H_    0.316495 0.696984 0.873683 0.151519
H14   H     H_    0.363346 0.768890 0.037906 0.136978
H15   H     H_    0.524505 0.248048 0.785929 0.150687
H16   H     H_    0.515672 0.320926 0.090158 0.133753
H17   H     H_    0.542521 0.197280 0.971288 0.143221
H18   H     H_    0.332160 0.563969 0.761234 0.158428
H19   H     H_    0.299630 0.254853 0.329064 0.136243
H20   H     H_    0.287650 0.880934 0.314548 0.146947
H21   H     H_    0.250469 0.066424 0.285554 0.145862
N1    N     N_R   0.432930 0.222190 0.444670 -0.102975
N2    N     N_R   0.566370 0.776980 0.554790 -0.153859
O1    O     O_R   0.467970 0.366730 0.627150 -0.624178
O2    O     O_R   0.510820 0.544830 0.662520 -0.568924
O3    O     O_R   0.664630 0.410960 0.482340 -0.627202
O4    O     O_R   0.707470 0.589060 0.517710 -0.579518
O5    O     O_R   0.489180 0.455170 0.337480 -0.616969
O6    O     O_R   0.532030 0.633270 0.372850 -0.636456
O7    O     O_R   0.292530 0.410940 0.482290 -0.620946
O8    O     O_R   0.335370 0.589040 0.517660 -0.645357
Zn1   Zn    Zn3+2 0.471390 0.381080 0.476380 0.934352
Zn2   Zn    Zn3+2 0.528610 0.618920 0.523620 0.962518

loop_
_geom_bond_atom_site_label_1
_geom_bond_atom_site_label_2
_ccdc_geom_bond_type
C20   C25   A    
C28   H3    S    
C34   H14   S    
C18   C19   A    
C2    C5    A    
C1    C11   S    
C6    C7    A    
C22   H20   S    
C36   C37   A    
C10   C35   A    
C18   C20   A    
C25   N1    A    
C28   C31   S    
C29   C30   S    
C19   C24   A    
C14   C15   A    
C17   C18   A    
C11   C36   A    
O7    Zn1   S    
C26   N1    A    
O4    Zn2   S    
C27   O7    A    
C7    C8    A    
Br1   C14   S    
C16   C35   S    
C13   C26   A    
C3    C11   A    
C7    H13   S    
O5    Zn1   S    
N1    Zn1   S    
C22   C24   A    
C2    C38   A    
C20   C21   A    
C6    C34   A    
C9    H12   S    
C1    O2    A    
C38   H16   S    
C16   O5    A    
C29   H1    S    
C4    O3    A    
O3    Zn1   S    
C28   C33   S    
C23   C33   S    
C12   C23   S    
C12   C32   S    
C28   C29   S    
C30   C31   S    
O6    Zn2   S    
C4    C33   S    
C32   C33   S    
N2    Zn2   S    
C36   H15   S    
O1    Zn1   S    
C32   H8    S    
C2    C3    A    
C24   H6    S    
C1    O1    A    
C23   H10   S    
C15   H5    S    
C16   O6    A    
C31   H7    S    
C12   C30   S    
C27   C30   S    
C27   O8    A    
C4    O4    A    
C26   H19   S    
C5    C9    A    
C12   H9    S    
C9    C35   A    
C5    C6    A    
C13   H21   S    
C31   C32   S    
C13   C21   A    
C10   C34   A    
C10   H11   S    
C17   H4    S    
C37   C38   A    
C14   N2    A    
C8    H18   S    
O2    Zn2   S    
C19   N2    A    
C23   C29   S    
C37   H17   S    
C15   C17   A    
C21   C22   A    
O8    Zn2   S    
C3    C8    A    
C25   H2    S    
