data_mof_unit_32562.cif
_audit_creation_date              2013-03-05T15:59:29-0500
_audit_creation_method            fapswitch 2.2
_symmetry_space_group_name_H-M    P1
_symmetry_Int_Tables_number       1
_space_group_crystal_system       triclinic
_cell_length_a                    18.276304
_cell_length_b                    25.821826
_cell_length_c                    18.35589
_cell_angle_alpha                 90.576634
_cell_angle_beta                  89.854392
_cell_angle_gamma                 90.028545
_cell_volume                      8662.18240112

loop_
_atom_site_label
_atom_site_type_symbol
_atom_site_description
_atom_site_fract_x
_atom_site_fract_y
_atom_site_fract_z
_atom_type_partial_charge
Zn1   Zn    Zn3+2 0.500000 0.706650 0.586810 1.043469
Zn2   Zn    Zn3+2 0.500000 0.293350 0.413190 1.049736
Zn3   Zn    Zn3+2 0.500000 0.706650 0.413190 1.042810
Zn4   Zn    Zn3+2 0.500000 0.293350 0.586810 1.052550
Zn5   Zn    Zn3+2 1.000000 0.206650 0.086810 1.051813
Zn6   Zn    Zn3+2 1.000000 0.793350 0.913190 1.049204
Zn7   Zn    Zn3+2 1.000000 0.206650 0.913190 1.042765
Zn8   Zn    Zn3+2 1.000000 0.793350 0.086810 1.051759
Zn9   Zn    Zn3+2 0.586710 0.793420 0.500000 1.130853
Zn10  Zn    Zn3+2 0.413290 0.206580 0.500000 1.136702
Zn11  Zn    Zn3+2 0.413290 0.793420 0.500000 1.134917
Zn12  Zn    Zn3+2 0.586710 0.206580 0.500000 1.137697
Zn13  Zn    Zn3+2 0.086710 0.293420 0.000000 1.129732
Zn14  Zn    Zn3+2 0.913290 0.706580 0.000000 1.140525
Zn15  Zn    Zn3+2 0.913290 0.293420 0.000000 1.134173
Zn16  Zn    Zn3+2 0.086710 0.706580 0.000000 1.136937
O1    O     O_3   0.500000 0.750040 0.500000 -0.547238
O2    O     O_3   0.500000 0.249960 0.500000 -0.556796
O3    O     O_3   1.000000 0.250040 0.000000 -0.548628
O4    O     O_3   1.000000 0.749960 0.000000 -0.557508
O5    O     O_R   0.585420 0.719700 0.353880 -0.652131
O6    O     O_R   0.414580 0.280300 0.646120 -0.641779
O7    O     O_R   0.414580 0.719700 0.646120 -0.648834
O8    O     O_R   0.585420 0.280300 0.353880 -0.645764
O9    O     O_R   0.585420 0.280300 0.646120 -0.623659
O10   O     O_R   0.414580 0.719700 0.353880 -0.629737
O11   O     O_R   0.414580 0.280300 0.353880 -0.619041
O12   O     O_R   0.585420 0.719700 0.646120 -0.632867
O13   O     O_R   0.085420 0.219700 0.853880 -0.652268
O14   O     O_R   0.914580 0.780300 0.146120 -0.641148
O15   O     O_R   0.914580 0.219700 0.146120 -0.646969
O16   O     O_R   0.085420 0.780300 0.853880 -0.645307
O17   O     O_R   0.085420 0.780300 0.146120 -0.624530
O18   O     O_R   0.914580 0.219700 0.853880 -0.628209
O19   O     O_R   0.914580 0.780300 0.853880 -0.620119
O20   O     O_R   0.085420 0.219700 0.146120 -0.626662
O21   O     O_R   0.646120 0.780390 0.585510 -0.570942
O22   O     O_R   0.353880 0.219610 0.414490 -0.580868
O23   O     O_R   0.353880 0.780390 0.414490 -0.569417
O24   O     O_R   0.646120 0.219610 0.585510 -0.574136
O25   O     O_R   0.646120 0.219610 0.414490 -0.551397
O26   O     O_R   0.353880 0.780390 0.585510 -0.549970
O27   O     O_R   0.353880 0.219610 0.585510 -0.551226
O28   O     O_R   0.646120 0.780390 0.414490 -0.549551
O29   O     O_R   0.146120 0.280390 0.085510 -0.571420
O30   O     O_R   0.853880 0.719610 0.914490 -0.576877
O31   O     O_R   0.853880 0.280390 0.914490 -0.569598
O32   O     O_R   0.146120 0.719610 0.085510 -0.572804
O33   O     O_R   0.146120 0.719610 0.914490 -0.551616
O34   O     O_R   0.853880 0.280390 0.085510 -0.550450
O35   O     O_R   0.853880 0.719610 0.085510 -0.551652
O36   O     O_R   0.146120 0.280390 0.914490 -0.549543
O37   O     O_R   0.560660 0.865840 0.500000 -0.607984
O38   O     O_R   0.439340 0.134160 0.500000 -0.593614
O39   O     O_R   0.439340 0.865840 0.500000 -0.604454
O40   O     O_R   0.560660 0.134160 0.500000 -0.593335
O41   O     O_R   0.060660 0.365840 0.000000 -0.608145
O42   O     O_R   0.939340 0.634160 0.000000 -0.593017
O43   O     O_R   0.939340 0.365840 0.000000 -0.605064
O44   O     O_R   0.060660 0.634160 0.000000 -0.593957
O45   O     O_R   0.500000 0.634240 0.439310 -0.626080
O46   O     O_R   0.500000 0.365760 0.560690 -0.628135
O47   O     O_R   0.500000 0.634240 0.560690 -0.621364
O48   O     O_R   0.500000 0.365760 0.439310 -0.615361
O49   O     O_R   1.000000 0.134240 0.939310 -0.626946
O50   O     O_R   0.000000 0.865760 0.060690 -0.629478
O51   O     O_R   1.000000 0.134240 0.060690 -0.617478
O52   O     O_R   1.000000 0.865760 0.939310 -0.615174
C1    C     C_R   0.639310 0.750945 0.359079 0.927801
C2    C     C_R   0.360710 0.249068 0.640913 0.904887
C3    C     C_R   0.360531 0.750941 0.640587 0.921697
C4    C     C_R   0.639427 0.249014 0.359365 0.893691
C5    C     C_R   0.641266 0.250881 0.639033 0.884153
C6    C     C_R   0.358711 0.749234 0.360931 0.903843
C7    C     C_R   0.358843 0.250519 0.361005 0.890231
C8    C     C_R   0.641239 0.749355 0.638896 0.896487
C9    C     C_R   0.139306 0.250948 0.859075 0.927007
C10   C     C_R   0.860712 0.749066 0.140915 0.904279
C11   C     C_R   0.860533 0.250942 0.140589 0.920451
C12   C     C_R   0.139426 0.749014 0.859363 0.893411
C13   C     C_R   0.141272 0.750882 0.139027 0.882653
C14   C     C_R   0.858724 0.249247 0.860918 0.903704
C15   C     C_R   0.858852 0.750506 0.860995 0.888849
C16   C     C_R   0.141236 0.249359 0.138898 0.895588
C17   C     C_R   0.500014 0.890117 0.499979 0.841805
C18   C     C_R   0.499981 0.109892 0.499981 0.880906
C19   C     C_R   0.000014 0.390115 0.999982 0.840822
C20   C     C_R   0.999975 0.609891 0.999953 0.876308
C21   C     C_R   0.499684 0.610014 0.499305 0.856091
C22   C     C_R   0.497729 0.390286 0.501522 0.816598
C23   C     C_R   0.999734 0.109981 0.999322 0.855016
C24   C     C_R   0.997182 0.890271 0.001505 0.815602
C25   C     C_R   0.387394 0.553566 0.416271 0.035610
C26   C     C_R   0.550164 0.455911 0.627592 0.113892
C27   C     C_R   0.609346 0.547859 0.574477 0.055328
C28   C     C_R   0.384318 0.446811 0.417022 0.042783
C29   C     C_R   0.889375 0.053632 0.913360 0.038801
C30   C     C_R   0.042885 0.955984 0.130439 0.106114
C31   C     C_R   0.105451 0.047480 0.079637 0.044159
C32   C     C_R   0.885715 0.946900 0.914183 0.044256
C33   C     C_R   0.352493 0.527548 0.358022 0.240058
C34   C     C_R   0.611913 0.477439 0.662225 0.180902
C35   C     C_R   0.641042 0.524933 0.636699 0.249284
C36   C     C_R   0.351164 0.472574 0.358170 0.313356
C37   C     C_R   0.855845 0.027656 0.854290 0.238842
C38   C     C_R   0.102872 0.977466 0.168096 0.192174
C39   C     C_R   0.133722 0.024709 0.143605 0.310539
C40   C     C_R   0.854146 0.972692 0.854508 0.312994
C41   C     C_R   0.438906 0.472674 0.458697 -0.062708
C42   C     C_R   0.545041 0.526173 0.543134 -0.078282
C43   C     C_R   0.526222 0.475481 0.560129 -0.089232
C44   C     C_R   0.441664 0.527327 0.456932 -0.063691
C45   C     C_R   0.939311 0.972675 0.957191 -0.062979
C46   C     C_R   0.042552 0.025977 0.045383 -0.080112
C47   C     C_R   0.022617 0.975401 0.061728 -0.091940
C48   C     C_R   0.942454 0.027326 0.955421 -0.064506
C49   C     C_R   0.485121 0.446505 0.508085 -0.031900
C50   C     C_R   0.496977 0.553734 0.497584 -0.022744
C51   C     C_R   0.983780 0.946450 0.008014 -0.030929
C52   C     C_R   0.996647 0.053648 0.997747 -0.020353
C53   C     C_R   0.272325 0.798312 0.721925 0.448604
C54   C     C_R   0.727502 0.201604 0.277873 0.369284
C55   C     C_R   0.727535 0.798354 0.279146 0.448595
C56   C     C_R   0.272754 0.201660 0.721032 0.370906
C57   C     C_R   0.227703 0.239178 0.322159 0.362027
C58   C     C_R   0.772387 0.760424 0.677729 0.369511
C59   C     C_R   0.772261 0.239673 0.677443 0.367194
C60   C     C_R   0.227949 0.762159 0.322134 0.374342
C61   C     C_R   0.772334 0.298315 0.221934 0.448765
C62   C     C_R   0.227489 0.701601 0.777860 0.370744
C63   C     C_R   0.227536 0.298359 0.779148 0.449291
C64   C     C_R   0.772792 0.701652 0.221071 0.370619
C65   C     C_R   0.727723 0.739093 0.822139 0.372673
C66   C     C_R   0.272385 0.260415 0.177725 0.367293
C67   C     C_R   0.272211 0.739401 0.177503 0.368398
C68   C     C_R   0.727910 0.261951 0.822187 0.375642
C69   C     C_R   0.717360 0.295788 0.274338 -0.256583
C70   C     C_R   0.282500 0.704131 0.725485 -0.279074
C71   C     C_R   0.282986 0.295861 0.727214 -0.250229
C72   C     C_R   0.717257 0.704151 0.272926 -0.277560
C73   C     C_R   0.677284 0.738308 0.765601 -0.240315
C74   C     C_R   0.322845 0.261215 0.234237 -0.202548
C75   C     C_R   0.322504 0.737777 0.234074 -0.227648
C76   C     C_R   0.677489 0.262843 0.765722 -0.203230
C77   C     C_R   0.217354 0.795786 0.774331 -0.256425
C78   C     C_R   0.782512 0.204133 0.225498 -0.276945
C79   C     C_R   0.782969 0.795855 0.227197 -0.249584
C80   C     C_R   0.217220 0.204160 0.772884 -0.278079
C81   C     C_R   0.177260 0.238396 0.265624 -0.223963
C82   C     C_R   0.822846 0.761214 0.734238 -0.199242
C83   C     C_R   0.822586 0.238069 0.733992 -0.223907
C84   C     C_R   0.177549 0.763053 0.265655 -0.206586
H1    H     H_    0.692389 0.331255 0.294312 0.213825
H2    H     H_    0.307403 0.668667 0.705412 0.215530
H3    H     H_    0.308130 0.331323 0.708362 0.217331
H4    H     H_    0.692235 0.668681 0.291886 0.215201
H5    H     H_    0.620450 0.729960 0.777563 0.215265
H6    H     H_    0.379715 0.269410 0.222215 0.221113
H7    H     H_    0.379115 0.728644 0.221974 0.215418
H8    H     H_    0.620813 0.271811 0.777748 0.228440
H9    H     H_    0.192383 0.831252 0.794305 0.213950
H10   H     H_    0.807419 0.168670 0.205430 0.216012
H11   H     H_    0.808079 0.831317 0.208315 0.217239
H12   H     H_    0.192177 0.168691 0.791822 0.214831
H13   H     H_    0.120417 0.230081 0.277587 0.218672
H14   H     H_    0.879713 0.769426 0.722219 0.221024
H15   H     H_    0.879250 0.229134 0.721844 0.215814
H16   H     H_    0.120914 0.772169 0.277643 0.231040
C85   C     C_R   0.695342 0.248211 0.302973 -0.175308
C86   C     C_R   0.304584 0.751719 0.696929 -0.179591
C87   C     C_R   0.305138 0.248295 0.697496 -0.180441
C88   C     C_R   0.694972 0.751728 0.302542 -0.181622
C89   C     C_R   0.698375 0.749279 0.694057 -0.164140
C90   C     C_R   0.301714 0.250446 0.305837 -0.167943
C91   C     C_R   0.301608 0.749297 0.305783 -0.168578
C92   C     C_R   0.698408 0.251366 0.694075 -0.182694
C93   C     C_R   0.195337 0.748209 0.802967 -0.175145
C94   C     C_R   0.804591 0.251722 0.196936 -0.179472
C95   C     C_R   0.805144 0.748290 0.197502 -0.180218
C96   C     C_R   0.194960 0.251735 0.802528 -0.181343
C97   C     C_R   0.198367 0.249300 0.194064 -0.168692
C98   C     C_R   0.801722 0.750421 0.805830 -0.163174
C99   C     C_R   0.801630 0.249322 0.805763 -0.169026
C100  C     C_R   0.198419 0.751354 0.194064 -0.186879
C101  C     C_R   0.466045 0.972481 0.442303 0.114178
C102  C     C_R   0.533625 0.027563 0.557788 0.133989
C103  C     C_R   0.533960 0.973341 0.557635 0.102423
C104  C     C_R   0.466282 0.026704 0.442169 0.131601
C105  C     C_R   0.965898 0.472468 0.942373 0.108119
C106  C     C_R   0.033753 0.527564 0.057687 0.135791
C107  C     C_R   0.034041 0.473342 0.057572 0.102589
C108  C     C_R   0.966024 0.526693 0.942279 0.132808
C109  C     C_R   0.499948 0.053810 0.499981 -0.169539
C110  C     C_R   0.500032 0.946212 0.499960 -0.191538
C111  C     C_R   0.999917 0.553806 0.999963 -0.176190
C112  C     C_R   0.000026 0.446209 0.999954 -0.193126
S1    S     S_3+6 0.710704 0.559224 0.685476 0.108603
O53   O     O_2   0.784166 0.543522 0.655740 -0.186509
O54   O     O_2   0.701898 0.616691 0.676515 -0.316532
O55   O     O_3   0.708401 0.547119 0.775255 -0.422001
H17   H     H_    0.663588 0.564638 0.793327 0.360864
S2    S     S_3+6 0.302091 0.435219 0.292034 0.126511
O56   O     O_2   0.330474 0.380611 0.290242 -0.284746
O57   O     O_2   0.222540 0.434586 0.312979 -0.216708
O58   O     O_3   0.310426 0.459027 0.207620 -0.423717
H18   H     H_    0.277724 0.437331 0.177029 0.404206
S3    S     S_3+6 0.311346 0.564259 0.287166 0.117814
O59   O     O_2   0.233853 0.546664 0.275518 -0.157719
O60   O     O_2   0.310966 0.621326 0.303623 -0.303747
O61   O     O_3   0.359096 0.555335 0.209662 -0.452707
H19   H     H_    0.409380 0.567018 0.221381 0.358624
S4    S     S_3+6 0.654916 0.440445 0.731379 0.131281
O62   O     O_2   0.627470 0.458123 0.804735 -0.166431
O63   O     O_2   0.636653 0.384030 0.721673 -0.283451
O64   O     O_3   0.746449 0.446730 0.728513 -0.413524
H20   H     H_    0.761117 0.431532 0.680915 0.363015
S5    S     S_3+6 0.200978 0.058981 0.195595 0.100893
O65   O     O_2   0.275748 0.042935 0.169644 -0.233504
O66   O     O_2   0.192416 0.116376 0.185817 -0.303453
O67   O     O_3   0.193253 0.047163 0.285171 -0.441471
H21   H     H_    0.236861 0.063544 0.307587 0.388312
S6    S     S_3+6 0.806220 0.935439 0.787436 0.126952
O68   O     O_2   0.834333 0.880759 0.786275 -0.283450
O69   O     O_2   0.726271 0.935024 0.806824 -0.218861
O70   O     O_3   0.816349 0.959167 0.703166 -0.422148
H22   H     H_    0.783391 0.937988 0.672137 0.405236
S7    S     S_3+6 0.816608 0.064448 0.782491 0.117153
O71   O     O_2   0.739232 0.047188 0.769190 -0.159875
O72   O     O_2   0.816410 0.121518 0.798923 -0.303478
O73   O     O_3   0.865971 0.055259 0.706053 -0.450109
H23   H     H_    0.916144 0.066560 0.718925 0.359563
S8    S     S_3+6 0.141726 0.940806 0.239993 0.144617
O74   O     O_2   0.110444 0.959170 0.311489 -0.130569
O75   O     O_2   0.123569 0.884382 0.230168 -0.285115
O76   O     O_3   0.233330 0.946731 0.242034 -0.432477
H24   H     H_    0.250493 0.930940 0.195650 0.362847
I1    I     I_    0.328166 0.615707 0.468087 -0.191559
I2    I     I_    0.469077 0.422080 0.697704 -0.037929
I3    I     I_    0.673169 0.601544 0.511517 -0.171535
I4    I     I_    0.327588 0.381193 0.461697 -0.108731
I5    I     I_    0.828557 0.115432 0.964074 -0.192504
I6    I     I_    0.958297 0.921533 0.195727 -0.028927
I7    I     I_    0.172727 0.100645 0.019430 -0.173938
I8    I     I_    0.827557 0.881535 0.957759 -0.110712
S9    S     S_3+6 0.301076 0.860246 0.691996 0.093483
O77   O     O_2   0.268617 0.870194 0.618282 -0.200606
O78   O     O_2   0.275775 0.901704 0.744336 -0.238941
O79   O     O_3   0.392911 0.862194 0.686032 -0.565623
H25   H     H_    0.403931 0.894698 0.659972 0.388718
S10   S     S_3+6 0.698392 0.139614 0.307449 0.097431
O80   O     O_2   0.616217 0.137490 0.309371 -0.267070
O81   O     O_2   0.726028 0.097799 0.256881 -0.236319
O82   O     O_3   0.730590 0.128788 0.391665 -0.437988
H26   H     H_    0.784099 0.134295 0.387878 0.375759
S11   S     S_3+6 0.698720 0.860324 0.310537 0.094216
O83   O     O_2   0.731041 0.870451 0.384552 -0.203481
O84   O     O_2   0.724146 0.901685 0.259242 -0.234047
O85   O     O_3   0.606883 0.862229 0.316371 -0.568731
H27   H     H_    0.595810 0.895087 0.342433 0.387841
S12   S     S_3+6 0.302219 0.139655 0.690150 0.095506
O86   O     O_2   0.384406 0.137770 0.688329 -0.269402
O87   O     O_2   0.274688 0.097932 0.739774 -0.237321
O88   O     O_3   0.270212 0.128440 0.605642 -0.440130
H28   H     H_    0.216705 0.133982 0.609395 0.374219
S13   S     S_3+6 0.194715 0.227328 0.411684 0.102303
O89   O     O_2   0.225076 0.267044 0.463799 -0.239990
O90   O     O_2   0.112565 0.229919 0.414195 -0.234251
O91   O     O_3   0.221416 0.168117 0.438132 -0.465742
H29   H     H_    0.208088 0.144713 0.397161 0.359119
S14   S     S_3+6 0.805418 0.771260 0.588044 0.113901
O92   O     O_2   0.783834 0.824756 0.564834 -0.177516
O93   O     O_2   0.887438 0.767066 0.585241 -0.235387
O94   O     O_3   0.769297 0.727719 0.529676 -0.521391
H30   H     H_    0.788135 0.693870 0.546203 0.376122
S15   S     S_3+6 0.805251 0.229155 0.587331 0.093539
O95   O     O_2   0.773720 0.269081 0.537332 -0.266152
O96   O     O_2   0.887320 0.232845 0.584771 -0.242201
O97   O     O_3   0.779894 0.169889 0.558115 -0.455260
H31   H     H_    0.797522 0.145940 0.596064 0.382522
S16   S     S_3+6 0.195160 0.776086 0.411482 0.123160
O98   O     O_2   0.219883 0.829423 0.433860 -0.147350
O99   O     O_2   0.112927 0.774559 0.413846 -0.236263
O100  O     O_3   0.228088 0.732958 0.471020 -0.527993
H32   H     H_    0.200647 0.700646 0.460652 0.376278
S17   S     S_3+6 0.801097 0.360248 0.192017 0.093441
O101  O     O_2   0.768639 0.370206 0.118305 -0.201496
O102  O     O_2   0.775805 0.401703 0.244364 -0.238876
O103  O     O_3   0.892933 0.362187 0.186051 -0.565123
H33   H     H_    0.903960 0.394694 0.159999 0.388877
S18   S     S_3+6 0.198367 0.639612 0.807427 0.095335
O104  O     O_2   0.116192 0.637496 0.809348 -0.269475
O105  O     O_2   0.225996 0.597799 0.756852 -0.237829
O106  O     O_3   0.230562 0.628777 0.891642 -0.439225
H34   H     H_    0.284069 0.634299 0.887864 0.374143
S19   S     S_3+6 0.198701 0.360327 0.810532 0.093230
O107  O     O_2   0.231010 0.370462 0.884550 -0.204592
O108  O     O_2   0.224120 0.401688 0.759235 -0.234960
O109  O     O_3   0.106862 0.362219 0.816356 -0.569228
H35   H     H_    0.095776 0.395080 0.842405 0.386849
S20   S     S_3+6 0.802295 0.639649 0.190223 0.095865
O110  O     O_2   0.884483 0.637791 0.188399 -0.268719
O111  O     O_2   0.774793 0.597932 0.239873 -0.236710
O112  O     O_3   0.770292 0.628401 0.105722 -0.440142
H36   H     H_    0.716784 0.633944 0.109468 0.372953
S21   S     S_3+6 0.694735 0.727176 0.911638 0.095509
O113  O     O_2   0.725225 0.766747 0.963906 -0.240199
O114  O     O_2   0.612593 0.729893 0.914213 -0.244690
O115  O     O_3   0.721275 0.667864 0.937816 -0.464855
H37   H     H_    0.704258 0.644188 0.898578 0.361247
S22   S     S_3+6 0.305410 0.271255 0.088037 0.111490
O116  O     O_2   0.283895 0.324776 0.064876 -0.176825
O117  O     O_2   0.387425 0.267013 0.085220 -0.237474
O118  O     O_3   0.269222 0.227770 0.029621 -0.523032
H38   H     H_    0.288645 0.193953 0.045612 0.373859
S23   S     S_3+6 0.305197 0.728587 0.087448 0.091552
O119  O     O_2   0.273991 0.768526 0.037270 -0.266085
O120  O     O_2   0.387293 0.731981 0.084929 -0.244451
O121  O     O_3   0.279447 0.669356 0.058437 -0.456145
H39   H     H_    0.296834 0.645423 0.096514 0.381118
S24   S     S_3+6 0.695109 0.275631 0.911602 0.121373
O122  O     O_2   0.719509 0.329015 0.934117 -0.147340
O123  O     O_2   0.612887 0.273843 0.914012 -0.239430
O124  O     O_3   0.728360 0.232529 0.971005 -0.529450
H40   H     H_    0.700626 0.200279 0.961062 0.375994
I9    I     I_    0.417545 0.929832 0.353692 -0.099082
I10   I     I_    0.580339 0.070364 0.647183 -0.050856
I11   I     I_    0.582483 0.932017 0.646259 -0.106356
I12   I     I_    0.419387 0.068163 0.352813 -0.113750
I13   I     I_    0.917390 0.429795 0.853782 -0.074070
I14   I     I_    0.080734 0.570360 0.146953 -0.047607
I15   I     I_    0.082571 0.432026 0.146204 -0.109153
I16   I     I_    0.918451 0.568111 0.853215 -0.035435

loop_
_geom_bond_atom_site_label_1
_geom_bond_atom_site_label_2
_geom_bond_distance
_ccdc_geom_bond_type
Zn6   O16   1.928864 S    
S11   O84   1.503536 D    
Zn7   O13   1.932417 S    
S18   O106  1.681547 S    
C102  C109  1.407939 A    
C75   C91   1.398781 A    
Zn5   O51   1.925573 S    
O34   C11   1.277252 A    
C42   C50   1.411933 A    
C46   C47   1.391082 A    
C8    C89   1.456401 S    
C24   C51   1.474901 S    
C18   C109  1.448158 S    
C38   C39   1.420301 A    
S10   O81   1.503509 D    
Zn5   O20   1.933066 S    
C26   C43   1.412750 A    
Zn6   O19   1.933068 S    
C35   S1    1.787552 S    
O23   C6    1.266988 A    
S1    O54   1.503382 D    
C107  C112  1.408507 A    
C33   S3    1.784993 S    
C101  I9    2.148126 S    
C103  I11   2.148183 S    
S3    O61   1.681051 S    
C71   C87   1.398537 A    
C76   H8    1.083205 S    
C29   C37   1.410494 A    
C70   H2    1.083632 S    
S10   O82   1.681547 S    
S9    O77   1.503326 D    
C74   H6    1.083211 S    
O11   C7    1.283244 A    
S22   O117  1.503711 D    
C9    C96   1.451691 S    
S2    O56   1.502724 D    
O124  H40   0.990315 S    
S24   O124  1.680902 S    
Zn16  O33   1.938414 S    
Zn14  O30   1.943065 S    
C25   C33   1.410687 A    
C1    C88   1.451671 S    
Zn12  O24   1.937397 S    
O64   H20   0.990567 S    
C62   C93   1.412193 A    
O16   C12   1.280601 A    
C56   C80   1.390746 A    
O40   C18   1.273507 A    
S7    O71   1.502326 D    
Zn16  O4    1.941107 S    
S8    O75   1.503318 D    
C3    C86   1.452481 S    
C69   H1    1.083620 S    
C27   I3    2.154453 S    
C57   C81   1.389853 A    
C72   H4    1.083656 S    
C73   H5    1.083137 S    
Zn7   O3    1.938699 S    
C28   C36   1.412407 A    
S14   O93   1.503690 D    
O109  H35   0.990563 S    
O36   C9    1.270102 A    
C62   C70   1.391276 A    
Zn6   O4    1.957147 S    
S20   O110  1.503162 D    
C61   C94   1.412024 A    
C59   C92   1.415143 A    
O49   C23   1.272689 A    
C102  I10   2.147711 S    
C60   C91   1.417428 A    
C57   S13   1.778350 S    
C58   S14   1.776765 S    
Zn3   O10   1.937155 S    
C59   S15   1.777464 S    
O42   C20   1.273369 A    
C28   C41   1.421063 A    
C30   C38   1.408177 A    
O33   C12   1.277325 A    
Zn10  O22   1.943065 S    
C12   C93   1.452748 S    
C61   S17   1.775071 S    
O35   C10   1.270197 A    
S17   O102  1.503450 D    
Zn13  O29   1.943063 S    
C105  C112  1.408605 A    
C77   H9    1.083619 S    
Zn10  O2    1.940197 S    
C83   H15   1.083276 S    
C68   C99   1.417356 A    
O52   C24   1.300690 A    
Zn3   O1    1.938699 S    
C54   C78   1.391270 A    
O43   C19   1.273530 A    
C30   I6    2.151330 S    
C25   C44   1.419329 A    
O41   C19   1.273632 A    
C61   C69   1.391141 A    
S4    O62   1.502510 D    
C26   C34   1.408081 A    
S9    O79   1.682452 S    
O37   C17   1.273648 A    
C102  C103  1.400107 A    
C106  C107  1.400096 A    
C31   C46   1.421675 A    
Zn4   O9    1.937153 S    
O44   C20   1.273617 A    
S19   O108  1.503532 D    
C107  I15   2.148250 S    
O82   H26   0.990532 S    
Zn13  O41   1.929901 S    
C82   H14   1.083223 S    
O32   C13   1.268301 A    
C78   C94   1.399673 A    
Zn16  O44   1.929441 S    
S8    O74   1.502658 D    
C59   C83   1.389560 A    
C42   C43   1.391486 A    
C60   C84   1.388927 A    
C25   I1    2.148684 S    
S21   O114  1.503531 D    
C55   C88   1.412978 A    
C32   I8    2.153951 S    
S20   O112  1.681587 S    
C67   C75   1.389508 A    
C53   C86   1.412031 A    
C7    C90   1.456367 S    
O47   C21   1.283283 A    
C57   C90   1.415403 A    
O67   H21   0.990585 S    
C27   C35   1.416979 A    
O94   H30   0.990307 S    
C32   C40   1.412295 A    
C80   H12   1.083649 S    
S15   O97   1.681790 S    
C81   H13   1.083129 S    
S16   O98   1.502894 D    
O38   C18   1.273450 A    
O50   C24   1.263971 A    
S6    O70   1.679266 S    
S5    O65   1.503083 D    
C48   C52   1.428011 A    
O5    C1    1.276016 A    
S24   O123  1.503957 D    
O106  H34   0.990534 S    
C79   C95   1.398491 A    
C54   S10   1.776281 S    
Zn4   O6    1.932419 S    
S4    O64   1.681406 S    
C71   H3    1.083781 S    
C76   C92   1.397618 A    
S6    O69   1.503076 D    
S13   O90   1.503496 D    
C106  C111  1.408013 A    
S7    O72   1.501223 D    
C104  C109  1.408009 A    
C47   C51   1.422325 A    
O8    C4    1.280608 A    
S23   O121  1.681801 S    
C64   S20   1.776433 S    
C105  I13   2.148217 S    
S12   O86   1.503163 D    
C63   C96   1.412968 A    
C66   S22   1.776805 S    
C83   C99   1.398777 A    
Zn1   O1    1.957146 S    
C43   C49   1.423177 A    
C4    C85   1.452744 S    
C108  C111  1.408188 A    
Zn4   O2    1.938698 S    
C79   H11   1.083699 S    
C58   C82   1.389692 A    
C30   C47   1.412337 A    
C68   S24   1.778070 S    
O9    C5    1.278219 A    
C37   S7    1.784509 S    
C34   C35   1.420090 A    
C63   C71   1.390645 A    
O13   C9    1.276002 A    
O100  H32   0.990318 S    
S3    O60   1.501271 D    
O97   H31   0.990683 S    
O18   C14   1.280241 A    
C13   C100  1.454886 S    
C60   S16   1.778090 S    
S15   O95   1.503197 D    
C20   C111  1.448214 S    
S16   O100  1.680847 S    
O48   C22   1.300796 A    
C101  C110  1.408635 A    
C41   C49   1.417265 A    
O88   H28   0.990531 S    
C82   C98   1.399410 A    
S5    O67   1.680912 S    
Zn15  O3    1.941108 S    
C78   H10   1.083629 S    
S2    O57   1.503053 D    
C17   C110  1.448489 S    
Zn2   O2    1.957147 S    
Zn4   O46   1.934921 S    
O24   C5    1.268379 A    
Zn11  O26   1.938412 S    
S18   O104  1.503162 D    
C106  I14   2.147807 S    
C45   C51   1.416510 A    
S2    O58   1.679277 S    
Zn1   O12   1.933066 S    
O76   H24   0.990628 S    
Zn2   O11   1.933068 S    
C55   S11   1.775016 S    
C53   S9    1.775070 S    
S11   O85   1.682300 S    
S23   O119  1.503195 D    
C80   C96   1.398809 A    
C81   C97   1.399373 A    
C28   I4    2.154143 S    
S14   O94   1.681175 S    
S12   O88   1.681583 S    
C84   H16   1.083181 S    
S20   O111  1.503497 D    
Zn14  O42   1.929901 S    
Zn13  O3    1.940196 S    
S3    O59   1.502319 D    
Zn14  O4    1.940197 S    
S19   O107  1.503293 D    
O19   C15   1.283299 A    
S10   O80   1.503157 D    
C10   C95   1.451129 S    
O39   C17   1.273553 A    
S1    O55   1.680865 S    
C22   C49   1.473656 S    
Zn12  O25   1.938414 S    
O7    C3    1.280549 A    
C66   C74   1.389743 A    
Zn13  O36   1.933110 S    
Zn14  O35   1.933109 S    
C54   C85   1.412194 A    
O51   C23   1.283424 A    
O28   C1    1.270079 A    
C29   C48   1.419013 A    
C58   C89   1.414794 A    
O21   C8    1.275059 A    
S4    O63   1.503273 D    
C33   C36   1.419747 A    
S9    O78   1.503452 D    
C103  C110  1.408549 A    
Zn7   O18   1.937155 S    
Zn9   O37   1.929901 S    
O12   C8    1.282666 A    
Zn11  O39   1.929441 S    
O79   H25   0.990586 S    
S22   O116  1.502848 D    
Zn11  O1    1.941108 S    
Zn15  O43   1.929441 S    
C27   C42   1.422011 A    
C75   H7    1.083258 S    
Zn5   O3    1.957146 S    
C64   C72   1.390770 A    
C31   C39   1.417278 A    
C65   C73   1.389826 A    
Zn8   O14   1.932419 S    
C5    C92   1.454890 S    
C6    C91   1.455786 S    
C68   C76   1.389019 A    
O103  H33   0.990589 S    
C34   S4    1.780933 S    
O118  H38   0.990287 S    
C56   C87   1.412630 A    
O26   C3    1.277241 A    
O85   H27   0.990562 S    
C31   I7    2.154015 S    
O73   H23   0.990591 S    
C29   I5    2.148298 S    
O30   C15   1.274436 A    
O91   H29   0.990853 S    
C56   S12   1.776465 S    
S21   O113  1.502503 D    
S14   O92   1.502856 D    
C46   C52   1.412756 A    
S22   O118  1.681258 S    
Zn8   O50   1.934921 S    
C70   C86   1.399672 A    
Zn15  O31   1.937398 S    
C2    C87   1.451119 S    
Zn16  O32   1.937397 S    
C74   C90   1.399441 A    
O58   H18   0.990661 S    
Zn8   O4    1.938698 S    
C16   C97   1.456379 S    
S15   O96   1.503533 D    
S16   O99   1.503944 D    
C19   C112  1.448449 S    
S17   O103  1.682456 S    
O31   C14   1.266987 A    
Zn7   O49   1.934921 S    
Zn15  O34   1.938412 S    
C26   I2    2.151116 S    
O112  H36   0.990531 S    
C38   S8    1.781180 S    
O55   H17   0.990681 S    
C84   C100  1.397581 A    
S13   O89   1.502375 D    
C69   C85   1.399604 A    
C45   C48   1.413028 A    
Zn6   O52   1.925573 S    
C72   C88   1.398815 A    
C39   S5    1.786815 S    
C73   C89   1.399390 A    
S1    O53   1.502437 D    
C67   C100  1.415249 A    
Zn1   O47   1.925573 S    
O45   C21   1.272003 A    
S19   O109  1.682311 S    
O22   C7    1.274496 A    
Zn3   O45   1.934921 S    
C37   C40   1.419628 A    
S23   O120  1.503536 D    
C104  I12   2.148090 S    
Zn2   O48   1.925573 S    
S12   O87   1.503494 D    
C41   C44   1.412833 A    
C101  C104  1.400166 A    
C14   C99   1.455749 S    
S8    O76   1.681553 S    
C15   C98   1.456334 S    
C36   S2    1.785969 S    
C105  C108  1.400195 A    
O121  H39   0.990673 S    
C40   S6    1.785812 S    
S21   O115  1.681810 S    
C62   S18   1.776275 S    
Zn9   O21   1.943063 S    
O70   H22   0.990699 S    
C11   C94   1.452489 S    
C63   S19   1.775019 S    
Zn11  O23   1.937398 S    
C65   S21   1.778215 S    
Zn12  O40   1.929441 S    
O25   C4    1.277316 A    
Zn9   O1    1.940196 S    
C55   C79   1.390603 A    
Zn1   O7    1.928866 S    
O27   C2    1.270195 A    
Zn2   O8    1.928864 S    
C53   C77   1.391137 A    
Zn3   O5    1.932417 S    
O29   C16   1.275024 A    
C66   C97   1.414787 A    
Zn12  O2    1.941107 S    
S11   O83   1.503293 D    
O115  H37   0.990620 S    
C67   S23   1.777579 S    
Zn9   O28   1.933110 S    
Zn10  O27   1.933109 S    
C32   C45   1.420704 A    
S17   O101  1.503324 D    
O15   C11   1.280538 A    
S5    O66   1.502955 D    
S24   O122  1.502886 D    
C108  I16   2.148454 S    
C44   C50   1.427100 A    
O20   C16   1.282690 A    
O46   C22   1.263515 A    
O10   C6    1.280260 A    
O6    C2    1.275530 A    
S18   O105  1.503509 D    
Zn8   O17   1.937153 S    
S6    O68   1.502688 D    
Zn10  O38   1.929901 S    
S13   O91   1.681756 S    
C64   C95   1.412626 A    
O14   C10   1.275535 A    
C65   C98   1.415467 A    
S7    O73   1.681041 S    
C21   C50   1.454085 S    
O61   H19   0.990583 S    
C77   C93   1.399598 A    
C23   C52   1.455685 S    
O17   C13   1.278305 A    
Zn5   O15   1.928866 S    
