data_mof_unit_59170.cif
_audit_creation_date              2013-03-05T15:50:15-0500
_audit_creation_method            fapswitch 2.2
_symmetry_space_group_name_H-M    P1
_symmetry_Int_Tables_number       1
_space_group_crystal_system       triclinic
_cell_length_a                    18.40806
_cell_length_b                    25.890243
_cell_length_c                    18.233907
_cell_angle_alpha                 90.215473
_cell_angle_beta                  90.30574
_cell_angle_gamma                 89.283116
_cell_volume                      8689.21896071

loop_
_atom_site_label
_atom_site_type_symbol
_atom_site_description
_atom_site_fract_x
_atom_site_fract_y
_atom_site_fract_z
_atom_type_partial_charge
Zn1   Zn    Zn3+2 0.249990 0.293780 0.913250 1.006705
Zn2   Zn    Zn3+2 0.249990 0.706220 0.086750 1.037374
Zn3   Zn    Zn3+2 0.249990 0.706220 0.913250 1.029306
Zn4   Zn    Zn3+2 0.249990 0.293780 0.086750 1.048090
Zn5   Zn    Zn3+2 0.749990 0.793780 0.413250 1.020406
Zn6   Zn    Zn3+2 0.749990 0.206220 0.586750 1.001849
Zn7   Zn    Zn3+2 0.749990 0.206220 0.413250 1.043711
Zn8   Zn    Zn3+2 0.749990 0.793780 0.586750 1.021019
Zn9   Zn    Zn3+2 0.336760 0.206240 0.000000 1.014935
Zn10  Zn    Zn3+2 0.336760 0.793760 0.000000 0.989295
Zn11  Zn    Zn3+2 0.836760 0.706240 0.500000 0.971121
Zn12  Zn    Zn3+2 0.836760 0.293760 0.500000 1.020367
Zn13  Zn    Zn3+2 0.163250 0.206230 0.000000 1.018527
Zn14  Zn    Zn3+2 0.163250 0.793770 0.000000 1.005399
Zn15  Zn    Zn3+2 0.663250 0.706230 0.500000 0.987436
Zn16  Zn    Zn3+2 0.663250 0.293770 0.500000 0.986701
O1    O     O_3   0.249990 0.250010 0.000000 -0.504822
O2    O     O_3   0.249990 0.749990 0.000000 -0.498774
O3    O     O_3   0.749990 0.750010 0.500000 -0.495700
O4    O     O_3   0.749990 0.249990 0.500000 -0.508464
O5    O     O_R   0.335430 0.280650 0.146160 -0.598386
O6    O     O_R   0.335430 0.719350 0.853840 -0.638149
O7    O     O_R   0.335430 0.719350 0.146160 -0.593605
O8    O     O_R   0.335430 0.280650 0.853840 -0.633938
O9    O     O_R   0.835430 0.780650 0.646160 -0.641836
O10   O     O_R   0.835430 0.219350 0.353840 -0.615976
O11   O     O_R   0.835430 0.219350 0.646160 -0.634779
O12   O     O_R   0.835430 0.780650 0.353840 -0.643825
O13   O     O_R   0.164550 0.280640 0.853840 -0.637535
O14   O     O_R   0.164550 0.719360 0.146160 -0.633693
O15   O     O_R   0.164550 0.719360 0.853840 -0.641378
O16   O     O_R   0.164550 0.280640 0.146160 -0.594722
O17   O     O_R   0.664550 0.780640 0.353840 -0.607810
O18   O     O_R   0.664550 0.219360 0.646160 -0.635509
O19   O     O_R   0.664550 0.219360 0.353840 -0.581322
O20   O     O_R   0.664550 0.780640 0.646160 -0.633345
O21   O     O_R   0.396160 0.219380 0.914560 -0.612736
O22   O     O_R   0.396160 0.780620 0.085440 -0.654430
O23   O     O_R   0.396160 0.780620 0.914560 -0.651566
O24   O     O_R   0.396160 0.219380 0.085440 -0.653410
O25   O     O_R   0.896160 0.719380 0.414560 -0.669759
O26   O     O_R   0.896160 0.280620 0.585440 -0.613213
O27   O     O_R   0.896160 0.280620 0.414560 -0.612433
O28   O     O_R   0.896160 0.719380 0.585440 -0.648100
O29   O     O_R   0.103840 0.219370 0.085450 -0.628473
O30   O     O_R   0.103840 0.780630 0.914550 -0.625595
O31   O     O_R   0.103840 0.780630 0.085450 -0.654168
O32   O     O_R   0.103840 0.219370 0.914550 -0.625339
O33   O     O_R   0.603840 0.719370 0.585450 -0.639497
O34   O     O_R   0.603840 0.280630 0.414550 -0.653423
O35   O     O_R   0.603840 0.280630 0.585450 -0.637069
O36   O     O_R   0.603840 0.719370 0.414550 -0.644470
O37   O     O_R   0.310730 0.133160 0.000000 -0.627075
O38   O     O_R   0.310730 0.866840 0.000000 -0.635593
O39   O     O_R   0.810730 0.633160 0.500000 -0.651127
O40   O     O_R   0.810730 0.366840 0.500000 -0.604302
O41   O     O_R   0.249970 0.366860 0.060720 -0.634631
O42   O     O_R   0.249970 0.633140 0.939280 -0.611076
O43   O     O_R   0.249970 0.633140 0.060720 -0.632662
O44   O     O_R   0.249970 0.366860 0.939280 -0.637319
O45   O     O_R   0.749970 0.866860 0.560720 -0.615740
O46   O     O_R   0.749970 0.133140 0.439280 -0.627244
O47   O     O_R   0.749970 0.133140 0.560720 -0.643158
O48   O     O_R   0.749970 0.866860 0.439280 -0.641421
O49   O     O_R   0.189290 0.133150 0.000000 -0.631788
O50   O     O_R   0.189290 0.866850 0.000000 -0.652178
O51   O     O_R   0.689290 0.633150 0.500000 -0.638520
O52   O     O_R   0.689290 0.366850 0.500000 -0.667527
C1    C     C_R   0.389417 0.249535 0.140360 0.843562
C2    C     C_R   0.393406 0.746337 0.863021 0.830163
C3    C     C_R   0.388665 0.750451 0.140775 0.795748
C4    C     C_R   0.388801 0.248691 0.859156 0.809360
C5    C     C_R   0.892965 0.753972 0.637082 0.820583
C6    C     C_R   0.888042 0.250966 0.358678 0.803211
C7    C     C_R   0.889154 0.250472 0.640120 0.804580
C8    C     C_R   0.889539 0.748957 0.359357 0.844568
C9    C     C_R   0.111087 0.249802 0.859076 0.808581
C10   C     C_R   0.109311 0.749387 0.139593 0.811589
C11   C     C_R   0.107728 0.746893 0.861758 0.820348
C12   C     C_R   0.111071 0.249759 0.140957 0.799145
C13   C     C_R   0.610488 0.750192 0.360123 0.775378
C14   C     C_R   0.610934 0.250449 0.641201 0.816168
C15   C     C_R   0.610303 0.250320 0.359953 0.809314
C16   C     C_R   0.606672 0.753928 0.636800 0.819088
C17   C     C_R   0.251521 0.109120 0.994530 0.815777
C18   C     C_R   0.248692 0.890984 0.004892 0.856713
C19   C     C_R   0.750922 0.609525 0.490860 0.828732
C20   C     C_R   0.749169 0.391330 0.504896 0.841920
C21   C     C_R   0.247093 0.391234 0.000058 0.799571
C22   C     C_R   0.246750 0.608800 0.000006 0.829911
C23   C     C_R   0.747711 0.891297 0.499702 0.829751
C24   C     C_R   0.748635 0.108777 0.499669 0.806911
C25   C     C_3   0.198804 0.470204 0.068800 -0.256503
C26   C     C_3   0.202920 0.530437 0.928647 -0.271331
C27   C     C_3   0.201604 0.530774 0.071601 -0.250045
C28   C     C_3   0.208649 0.470119 0.925265 -0.253398
C29   C     C_3   0.682509 0.970552 0.550880 -0.257858
C30   C     C_3   0.728999 0.030311 0.418462 -0.242866
C31   C     C_3   0.686794 0.031053 0.555886 -0.236712
C32   C     C_3   0.733419 0.970189 0.417045 -0.254510
H1    H     H_    0.230848 0.456970 0.117476 0.170121
H2    H     H_    0.235909 0.544412 0.881964 0.187064
H3    H     H_    0.238780 0.540214 0.118036 0.161690
H4    H     H_    0.250824 0.461242 0.883192 0.144731
H5    H     H_    0.697204 0.956378 0.606750 0.171552
H6    H     H_    0.775534 0.043460 0.384606 0.159743
H7    H     H_    0.711450 0.039277 0.610652 0.137397
H8    H     H_    0.785330 0.959980 0.388856 0.138041
H9    H     H_    0.345743 0.456492 0.057964 0.188911
H10   H     H_    0.350513 0.541854 0.954582 0.186026
H11   H     H_    0.349022 0.544235 0.051939 0.192284
H12   H     H_    0.353970 0.453992 0.960505 0.182624
H13   H     H_    0.827368 0.957305 0.583468 0.203052
H14   H     H_    0.861562 0.041250 0.483143 0.180471
H15   H     H_    0.835071 0.044831 0.577088 0.197653
H16   H     H_    0.862695 0.953333 0.492930 0.183913
C33   C     C_3   0.319742 0.469598 0.005849 -0.450174
C34   C     C_3   0.319491 0.529116 0.003057 -0.423671
C35   C     C_3   0.817250 0.969685 0.526124 -0.413744
C36   C     C_3   0.818944 0.029231 0.522460 -0.456772
C37   C     C_3   0.241017 0.448826 0.999819 0.008176
C38   C     C_3   0.240445 0.551248 0.000588 -0.016074
C39   C     C_3   0.743004 0.948975 0.497887 -0.018652
C40   C     C_3   0.743483 0.051325 0.498507 0.006377
H17   H     H_    0.884478 0.312698 0.967598 0.172985
H18   H     H_    0.921023 0.888042 0.103633 0.176764
H19   H     H_    0.870929 0.805880 0.958682 0.155526
H20   H     H_    0.920381 0.368046 0.061150 0.168728
H21   H     H_    0.463943 0.906284 0.388766 0.199112
H22   H     H_    0.392788 0.176063 0.533594 0.179173
H23   H     H_    0.481736 0.089768 0.382424 0.227601
H24   H     H_    0.388423 0.660229 0.553652 0.188064
C41   C     C_R   0.146329 0.247407 0.701845 -0.142390
C42   C     C_R   0.099964 0.663585 0.248201 -0.157821
C43   C     C_R   0.118373 0.682410 0.721666 -0.173784
C44   C     C_R   0.133999 0.205355 0.285000 -0.195014
C45   C     C_R   0.604911 0.670150 0.251796 -0.189220
C46   C     C_R   0.645280 0.250991 0.799913 -0.135240
C47   C     C_R   0.581300 0.339875 0.272538 -0.158098
C48   C     C_R   0.597399 0.833741 0.757843 -0.151260
C49   C     C_R   0.162133 0.243596 0.626898 0.015926
C50   C     C_R   0.116543 0.636425 0.312487 -0.002385
C51   C     C_R   0.136540 0.667274 0.650074 0.003585
C52   C     C_R   0.143656 0.178429 0.351046 0.031260
C53   C     C_R   0.604702 0.631389 0.197922 0.047801
C54   C     C_R   0.660332 0.255233 0.875211 0.009114
C55   C     C_R   0.567837 0.384297 0.230867 0.015223
C56   C     C_R   0.612145 0.858351 0.824796 -0.020572
C57   C     C_R   0.549942 0.632018 0.144579 -0.144959
C58   C     C_R   0.604913 0.271094 0.922393 -0.179965
C59   C     C_R   0.515861 0.382380 0.174916 -0.170900
C60   C     C_R   0.585887 0.836639 0.889356 -0.204841
C61   C     C_R   0.106864 0.230319 0.578162 -0.179209
C62   C     C_R   0.084231 0.652476 0.377695 -0.211431
C63   C     C_R   0.102343 0.692067 0.591228 -0.203521
C64   C     C_R   0.083434 0.169550 0.395143 -0.216433
C65   C     C_R   0.496538 0.670641 0.144847 -0.172216
C66   C     C_R   0.533778 0.274132 0.896894 -0.163349
C67   C     C_R   0.476600 0.337554 0.162535 -0.177814
C68   C     C_R   0.538107 0.795387 0.885963 -0.124482
C69   C     C_R   0.035607 0.227636 0.602327 -0.162394
C70   C     C_R   0.031695 0.691588 0.377127 -0.164953
C71   C     C_R   0.044274 0.725707 0.603813 -0.141772
C72   C     C_R   0.016654 0.192151 0.378014 -0.177546
C73   C     C_R   0.496431 0.710319 0.198577 0.091212
C74   C     C_R   0.516409 0.259253 0.824084 0.077993
C75   C     C_R   0.486303 0.293274 0.207473 0.078503
C76   C     C_R   0.515269 0.774874 0.817735 0.079899
C77   C     C_R   0.017449 0.241218 0.675435 0.081147
C78   C     C_R   0.008680 0.715068 0.310386 0.086430
C79   C     C_R   0.020351 0.736301 0.675845 0.091352
C80   C     C_R   0.007592 0.223047 0.314531 0.103368
C81   C     C_R   0.073583 0.246526 0.727421 0.041466
C82   C     C_R   0.053178 0.707716 0.249129 0.055829
C83   C     C_R   0.064067 0.720623 0.735406 0.046754
C84   C     C_R   0.065553 0.226493 0.264804 0.044816
C85   C     C_R   0.551603 0.710146 0.252346 0.049437
C86   C     C_R   0.572869 0.253438 0.772892 0.041296
C87   C     C_R   0.540339 0.294270 0.262151 0.070559
C88   C     C_R   0.553964 0.789020 0.754547 0.046766
C89   C     C_R   0.442785 0.750084 0.199059 -0.129846
C90   C     C_R   0.445032 0.245880 0.803422 -0.124722
C91   C     C_R   0.443478 0.248401 0.198224 -0.145788
C92   C     C_R   0.455661 0.740699 0.811127 -0.149256
C93   C     C_R   0.945206 0.253099 0.696034 -0.120561
C94   C     C_R   0.942887 0.744277 0.300473 -0.148925
C95   C     C_R   0.953885 0.762065 0.689242 -0.153214
C96   C     C_R   0.942451 0.251018 0.301135 -0.143349
C97   C     C_R   0.443072 0.789882 0.253289 0.004191
C98   C     C_R   0.431642 0.222949 0.733636 0.012071
C99   C     C_R   0.451813 0.204399 0.245134 0.011254
C100  C     C_R   0.447774 0.711118 0.745602 0.001757
C101  C     C_R   0.929966 0.274334 0.766298 0.005436
C102  C     C_R   0.930167 0.770037 0.232757 0.005517
C103  C     C_R   0.940511 0.784355 0.759734 0.006566
C104  C     C_R   0.932912 0.281343 0.236355 -0.006467
C105  C     C_R   0.983045 0.267661 0.822089 0.073797
C106  C     C_R   0.991518 0.782112 0.191695 0.045898
C107  C     C_R   0.982053 0.766246 0.819513 0.055915
C108  C     C_R   0.990047 0.280980 0.183968 0.091749
C109  C     C_R   0.502439 0.791583 0.302975 0.053777
C110  C     C_R   0.484173 0.229983 0.677925 0.064134
C111  C     C_R   0.507834 0.206061 0.299136 0.058068
C112  C     C_R   0.484546 0.727450 0.682175 0.063741
C113  C     C_R   0.054786 0.252678 0.802484 -0.107758
C114  C     C_R   0.051133 0.746620 0.193837 -0.176302
C115  C     C_R   0.049171 0.741445 0.806440 -0.185108
C116  C     C_R   0.054585 0.252158 0.197334 -0.127186
C117  C     C_R   0.554249 0.750841 0.303882 -0.124226
C118  C     C_R   0.554537 0.247208 0.697502 -0.134340
C119  C     C_R   0.552544 0.249919 0.305334 -0.115886
C120  C     C_R   0.545372 0.759806 0.689356 -0.185350
C121  C     C_R   0.387030 0.828641 0.260009 -0.003625
C122  C     C_R   0.369993 0.191428 0.717494 0.010897
C123  C     C_R   0.407596 0.158513 0.241883 0.015946
C124  C     C_R   0.405358 0.665426 0.739715 -0.003768
C125  C     C_R   0.865380 0.303600 0.783033 0.019010
C126  C     C_R   0.861148 0.788017 0.206392 0.013633
C127  C     C_R   0.886956 0.823442 0.774494 0.007580
C128  C     C_R   0.869385 0.312557 0.221028 0.021833
C129  C     C_R   0.397408 0.871377 0.306068 -0.200903
C130  C     C_R   0.356550 0.175835 0.645081 -0.145450
C131  C     C_R   0.422034 0.117338 0.289775 -0.188076
C132  C     C_R   0.383195 0.648409 0.669904 -0.164449
C133  C     C_R   0.850081 0.316569 0.855858 -0.147513
C134  C     C_R   0.858716 0.831324 0.160331 -0.187754
C135  C     C_R   0.860191 0.829031 0.846131 -0.182891
C136  C     C_R   0.866174 0.343111 0.157943 -0.124630
C137  C     C_R   0.897943 0.303204 0.911626 -0.132617
C138  C     C_R   0.922809 0.853286 0.136408 -0.177508
C139  C     C_R   0.891822 0.801581 0.903564 -0.147842
C140  C     C_R   0.922975 0.343132 0.108631 -0.166106
C141  C     C_R   0.457858 0.873997 0.351410 -0.120936
C142  C     C_R   0.403816 0.188632 0.589220 -0.121901
C143  C     C_R   0.474677 0.120833 0.343478 -0.154463
C144  C     C_R   0.406821 0.673054 0.607122 -0.140220
C145  C     C_R   0.964758 0.280755 0.895205 -0.132277
C146  C     C_R   0.988879 0.828264 0.150074 -0.110022
C147  C     C_R   0.954489 0.772433 0.891203 -0.072680
C148  C     C_R   0.983257 0.311545 0.120096 -0.166503
C149  C     C_R   0.508195 0.833675 0.352261 -0.125312
C150  C     C_R   0.467738 0.214309 0.605333 -0.158969
C151  C     C_R   0.516900 0.164426 0.348617 -0.167459
C152  C     C_R   0.458798 0.711263 0.612834 -0.121197
C153  C     C_R   0.388849 0.045374 0.019962 -0.050449
C154  C     C_R   0.362671 0.949028 0.078788 -0.099855
C155  C     C_R   0.888745 0.546477 0.477618 -0.100759
C156  C     C_R   0.876921 0.452748 0.548877 -0.101234
C157  C     C_R   0.443364 0.019595 0.059133 -0.111092
C158  C     C_R   0.429266 0.972341 0.091134 -0.131824
C159  C     C_R   0.950880 0.521764 0.504591 -0.130588
C160  C     C_R   0.944507 0.475990 0.543181 -0.114178
C161  C     C_R   0.308251 0.973310 0.035126 0.057867
C162  C     C_R   0.317773 0.024727 0.013433 0.073950
C163  C     C_R   0.814076 0.474973 0.515731 0.061016
C164  C     C_R   0.818856 0.525610 0.489246 0.078708
C165  C     C_R   0.244748 0.947365 0.013273 -0.173031
C166  C     C_R   0.256397 0.052845 0.985665 -0.174224
C167  C     C_R   0.747165 0.448444 0.508712 -0.173392
C168  C     C_R   0.753930 0.553675 0.475324 -0.173907
C169  C     C_R   0.183623 0.975691 0.985376 0.054798
C170  C     C_R   0.193366 0.026787 0.963448 0.054059
C171  C     C_R   0.682534 0.476376 0.488151 0.071284
C172  C     C_R   0.688696 0.527242 0.463070 0.061830
C173  C     C_R   0.112190 0.955894 0.980987 -0.189336
C174  C     C_R   0.139898 0.050903 0.918939 -0.175619
C175  C     C_R   0.611509 0.455973 0.492372 -0.173141
C176  C     C_R   0.629514 0.550877 0.426054 -0.163965
C177  C     C_R   0.056092 0.982117 0.943446 -0.072732
C178  C     C_R   0.072020 0.028563 0.906960 -0.059878
C179  C     C_R   0.551708 0.479803 0.457713 -0.077860
C180  C     C_R   0.561239 0.527753 0.422696 -0.064198
H25   H     H_    0.405501 0.079944 0.992455 0.191442
H26   H     H_    0.354065 0.912080 0.104350 0.190738
H27   H     H_    0.896478 0.581095 0.445797 0.175570
H28   H     H_    0.874624 0.417846 0.580561 0.214982
H29   H     H_    0.496607 0.036497 0.064830 0.157223
H30   H     H_    0.470718 0.952915 0.123544 0.153766
H31   H     H_    0.003753 0.538691 0.496739 0.165019
H32   H     H_    0.992163 0.457798 0.567305 0.166950
C181  C     C_2   0.312143 0.822070 0.232501 0.854279
O53   O     O_2   0.283499 0.855349 0.194333 -0.685510
O54   O     O_R   0.272264 0.779734 0.255968 -0.763030
H33   H     H_    0.219541 0.782066 0.240159 0.339757
C182  C     C_2   0.326059 0.165634 0.774130 0.847337
O55   O     O_2   0.356243 0.141723 0.823562 -0.615678
O56   O     O_R   0.250463 0.164851 0.767510 -0.835813
H34   H     H_    0.226628 0.145486 0.808979 0.325952
C183  C     C_2   0.341997 0.150480 0.195945 0.904143
O57   O     O_2   0.293073 0.182656 0.194596 -0.652961
O58   O     O_R   0.332201 0.102688 0.161694 -0.806443
H35   H     H_    0.281475 0.098837 0.140778 0.331628
C184  C     C_2   0.395756 0.629077 0.801785 0.957728
O59   O     O_2   0.432694 0.632939 0.857464 -0.663282
O60   O     O_R   0.347344 0.588207 0.794444 -0.791634
H36   H     H_    0.351617 0.562624 0.835967 0.327229
C185  C     C_2   0.819789 0.330137 0.727301 0.851291
O61   O     O_2   0.848581 0.354821 0.678805 -0.654934
O62   O     O_R   0.744239 0.330912 0.733853 -0.838635
H37   H     H_    0.719344 0.351010 0.693027 0.330860
C186  C     C_2   0.793418 0.757866 0.214803 0.939844
O63   O     O_2   0.796350 0.712803 0.234679 -0.642391
O64   O     O_R   0.726296 0.780487 0.196833 -0.799939
H38   H     H_    0.684664 0.755545 0.201193 0.340412
C187  C     C_2   0.868591 0.865141 0.721493 0.984411
O65   O     O_2   0.908454 0.873655 0.669557 -0.647427
O66   O     O_R   0.806633 0.895830 0.732527 -0.790916
H39   H     H_    0.800753 0.924001 0.694621 0.340563
C188  C     C_2   0.804368 0.315677 0.267667 0.852204
O67   O     O_2   0.751943 0.288888 0.253295 -0.612767
O68   O     O_R   0.801913 0.350793 0.325962 -0.770402
H40   H     H_    0.754336 0.349468 0.353542 0.333807
H41   H     H_    0.801434 0.338479 0.869604 0.167312
H42   H     H_    0.807463 0.847703 0.141735 0.197460
H43   H     H_    0.817190 0.856572 0.858558 0.199496
H44   H     H_    0.819076 0.367495 0.146925 0.153414
H45   H     H_    0.355937 0.901301 0.310614 0.170148
H46   H     H_    0.310138 0.152091 0.631949 0.177496
H47   H     H_    0.389124 0.082887 0.288566 0.186756
H48   H     H_    0.350157 0.614500 0.663342 0.207010
H49   H     H_    0.002203 0.275657 0.940429 0.152006
H50   H     H_    0.036877 0.846815 0.129868 0.178253
H51   H     H_    0.980041 0.753569 0.937709 0.148524
H52   H     H_    0.025764 0.312972 0.079407 0.133781
H53   H     H_    0.551802 0.836012 0.391967 0.174308
H54   H     H_    0.505136 0.219532 0.560582 0.159110
H55   H     H_    0.556494 0.165006 0.392636 0.169743
H56   H     H_    0.477678 0.728699 0.562688 0.160207
C189  C     C_2   0.020129 0.054271 0.855657 0.965346
O69   O     O_2   0.020066 0.101300 0.849218 -0.617293
O70   O     O_R   0.973189 0.024692 0.812526 -0.765396
H57   H     H_    0.941133 0.046643 0.779323 0.352759
C190  C     C_2   0.981293 0.961452 0.947885 0.955359
O71   O     O_2   0.928600 0.990670 0.945923 -0.574833
O72   O     O_R   0.971125 0.908562 0.957979 -0.815600
H58   H     H_    0.917956 0.899726 0.963314 0.339511
C191  C     C_2   0.500374 0.556985 0.387974 0.964588
O73   O     O_2   0.511000 0.582000 0.332392 -0.618030
O74   O     O_R   0.431613 0.557731 0.420234 -0.763343
H59   H     H_    0.395116 0.579538 0.391788 0.362827
C192  C     C_2   0.481955 0.451533 0.455677 0.977135
O75   O     O_2   0.442758 0.453623 0.401379 -0.579175
O76   O     O_R   0.462645 0.420421 0.514834 -0.796356
H60   H     H_    0.414693 0.402389 0.506594 0.361484
C193  C     C_2   0.124588 0.446774 0.080896 1.003788
O77   O     O_2   0.072031 0.459995 0.044074 -0.548279
O78   O     O_R   0.116005 0.411391 0.137833 -0.767823
H61   H     H_    0.063713 0.400580 0.143903 0.346701
C194  C     C_2   0.127607 0.553154 0.914090 1.021457
O79   O     O_2   0.073994 0.536007 0.944233 -0.550341
O80   O     O_R   0.119618 0.593332 0.863687 -0.776535
H62   H     H_    0.067288 0.605419 0.858034 0.334405
C195  C     C_2   0.131122 0.557742 0.094972 1.008372
O81   O     O_2   0.106147 0.594591 0.061066 -0.640487
O82   O     O_R   0.097000 0.541854 0.159286 -0.779149
H63   H     H_    0.051161 0.562531 0.170198 0.345428
C196  C     C_2   0.142233 0.443446 0.892829 1.012821
O83   O     O_2   0.111451 0.408860 0.925300 -0.616552
O84   O     O_R   0.118576 0.457420 0.822549 -0.781834
H64   H     H_    0.074918 0.436978 0.805610 0.353280
C197  C     C_2   0.607837 0.947770 0.537445 1.019680
O85   O     O_2   0.562970 0.969407 0.498205 -0.559488
O86   O     O_R   0.590525 0.901049 0.570968 -0.818694
H65   H     H_    0.539821 0.889049 0.558005 0.327636
C198  C     C_2   0.662596 0.053109 0.379933 0.998078
O87   O     O_2   0.601445 0.040972 0.397995 -0.592936
O88   O     O_R   0.672337 0.085795 0.319975 -0.754066
H66   H     H_    0.624871 0.096243 0.295553 0.348446
C199  C     C_2   0.614307 0.059821 0.562063 1.001045
O89   O     O_2   0.598541 0.095811 0.521551 -0.652170
O90   O     O_R   0.566801 0.046435 0.618301 -0.778105
H67   H     H_    0.520905 0.068510 0.618526 0.352173
C200  C     C_2   0.677119 0.945289 0.366745 1.007625
O91   O     O_2   0.630804 0.916604 0.390449 -0.630821
O92   O     O_R   0.680102 0.954973 0.291420 -0.790772
H68   H     H_    0.640703 0.936489 0.262900 0.351373
H69   H     H_    0.096942 0.922524 0.012228 0.205913
H70   H     H_    0.151764 0.086866 0.891591 0.165636
H71   H     H_    0.600364 0.422233 0.524527 0.212145
H72   H     H_    0.636379 0.587729 0.399160 0.186458
H73   H     H_    0.191517 0.253876 0.738121 0.220705
H74   H     H_    0.122097 0.648506 0.197817 0.215122
H75   H     H_    0.144026 0.661356 0.765575 0.250550
H76   H     H_    0.180541 0.211131 0.250703 0.215318
H77   H     H_    0.648188 0.669459 0.292191 0.163708
H78   H     H_    0.690423 0.242270 0.764626 0.222255
H79   H     H_    0.623360 0.341754 0.313902 0.178223
H80   H     H_    0.617152 0.851251 0.708215 0.231755
C201  C     C_2   0.235001 0.256916 0.599162 0.912894
O93   O     O_2   0.252383 0.245705 0.536356 -0.617915
O94   O     O_R   0.283139 0.284185 0.644063 -0.795673
H81   H     H_    0.330358 0.292357 0.618459 0.359415
C202  C     C_2   0.170635 0.593478 0.312170 0.970153
O95   O     O_2   0.176900 0.565127 0.365417 -0.586654
O96   O     O_R   0.215556 0.585795 0.251414 -0.799706
H82   H     H_    0.250455 0.555539 0.258003 0.353199
C203  C     C_2   0.189161 0.624401 0.637214 0.895577
O97   O     O_2   0.213261 0.616390 0.575758 -0.619324
O98   O     O_R   0.209732 0.592007 0.695146 -0.756029
H83   H     H_    0.242891 0.562609 0.678955 0.367095
C204  C     C_2   0.216989 0.162302 0.376308 0.942307
O99   O     O_2   0.224272 0.126982 0.420218 -0.631888
O100  O     O_R   0.277821 0.189192 0.352686 -0.766152
H84   H     H_    0.324204 0.176948 0.377668 0.347516
C205  C     C_2   0.662195 0.590700 0.196629 0.980151
O101  O     O_2   0.705551 0.586755 0.247455 -0.635434
O102  O     O_R   0.667289 0.556842 0.136873 -0.776075
H85   H     H_    0.708730 0.530943 0.142287 0.362044
C206  C     C_2   0.732077 0.239140 0.905029 0.907041
O103  O     O_2   0.748658 0.249512 0.968415 -0.623682
O104  O     O_R   0.780026 0.210253 0.861385 -0.789128
H86   H     H_    0.826540 0.200463 0.888229 0.367744
C207  C     C_2   0.607551 0.432701 0.246561 0.914721
O105  O     O_2   0.592336 0.472204 0.212979 -0.601159
O106  O     O_R   0.661816 0.433561 0.300551 -0.815016
H87   H     H_    0.684383 0.468873 0.306424 0.366237
C208  C     C_2   0.653803 0.906958 0.826839 0.963959
O107  O     O_2   0.679002 0.922843 0.884772 -0.617949
O108  O     O_R   0.662896 0.935452 0.762589 -0.778632
H88   H     H_    0.691164 0.968318 0.771098 0.360574
H89   H     H_    0.548163 0.602527 0.102351 0.188105
H90   H     H_    0.615564 0.277632 0.980154 0.182727
H91   H     H_    0.505214 0.415692 0.140544 0.175193
H92   H     H_    0.599585 0.852935 0.942376 0.183104
H93   H     H_    0.118057 0.225123 0.520457 0.179771
H94   H     H_    0.098781 0.634199 0.429088 0.181401
H95   H     H_    0.117973 0.683556 0.535400 0.167572
H96   H     H_    0.088831 0.147600 0.445387 0.173135
H97   H     H_    0.455660 0.669045 0.102069 0.131955
H98   H     H_    0.492407 0.284282 0.936501 0.131152
H99   H     H_    0.438076 0.338618 0.117600 0.126377
H100  H     H_    0.519911 0.779524 0.937364 0.172729
H101  H     H_    0.994807 0.218353 0.561646 0.131126
H102  H     H_    0.012744 0.703546 0.430273 0.171085
H103  H     H_    0.018056 0.743362 0.556762 0.146251
H104  H     H_    0.972773 0.185981 0.416132 0.117087

loop_
_geom_bond_atom_site_label_1
_geom_bond_atom_site_label_2
_geom_bond_distance
_ccdc_geom_bond_type
C13   C117  1.453280 S    
C196  O83   1.222190 D    
C106  C114  1.422934 A    
C189  O70   1.398701 S    
O58   H35   1.012695 S    
C83   C115  1.427671 A    
C168  C172  1.405982 A    
H10   C34   1.108352 S    
C191  O73   1.222734 D    
C190  O71   1.223049 D    
C171  C175  1.418816 A    
C62   H94   1.082261 S    
O26   C7    1.276601 A    
H11   C34   1.113863 S    
C165  C169  1.427822 A    
C25   C37   1.576909 S    
C167  C171  1.433431 A    
C128  C188  1.473118 S    
C203  O98   1.398956 S    
O30   C11   1.299048 A    
C179  C180  1.411458 A    
O78   H61   1.012562 S    
Zn12  O26   1.927407 S    
C122  C130  1.400921 A    
C204  O100  1.396806 S    
C54   C58   1.394892 A    
C105  C145  1.415699 A    
C146  H50   1.078189 S    
C46   H78   1.074911 S    
C137  C145  1.387409 A    
H19   C139  1.082849 S    
C189  O69   1.223652 D    
C66   H98   1.081684 S    
C29   H5    1.114908 S    
C188  O68   1.396675 S    
C207  O106  1.399052 S    
C99   C111  1.422962 A    
O11   C7    1.288858 A    
C195  O82   1.398896 S    
O34   C15   1.270451 A    
C122  C182  1.481260 S    
C177  C190  1.486146 S    
C70   H102  1.074843 S    
C178  C189  1.486528 S    
C154  H26   1.079498 S    
Zn1   O44   1.948946 S    
C25   H1    1.115670 S    
Zn2   O43   1.948954 S    
H23   C143  1.081080 S    
C186  O63   1.223436 D    
C65   H97   1.081959 S    
Zn5   O48   1.948946 S    
C61   C69   1.388615 A    
Zn6   O47   1.948954 S    
C133  H41   1.084047 S    
C124  C132  1.405565 A    
Zn7   O46   1.952417 S    
C9    C113  1.460034 S    
O16   C12   1.278866 A    
O64   H38   1.011954 S    
C176  H72   1.083491 S    
Zn16  O4    1.946528 S    
C112  C120  1.411955 A    
Zn1   O13   1.937861 S    
C100  C112  1.412006 A    
C26   C28   1.564907 S    
H24   C144  1.082767 S    
C143  C151  1.380970 A    
Zn4   O16   1.948645 S    
C56   C208  1.482100 S    
C26   C38   1.575596 S    
C27   C38   1.579014 S    
C28   H4    1.115637 S    
C201  O93   1.223585 D    
C65   C73   1.416866 A    
Zn6   O4    1.949287 S    
Zn9   O21   1.941618 S    
C78   C82   1.399665 A    
C130  C142  1.386905 A    
C42   C82   1.422265 A    
C175  H71   1.076348 S    
O92   H68   1.014021 S    
C154  C161  1.418477 A    
C35   C39   1.558612 S    
C202  O95   1.223424 D    
C30   H6    1.115921 S    
Zn10  O22   1.927407 S    
C84   C116  1.412776 A    
C200  O92   1.398590 S    
C125  C185  1.480115 S    
C182  O56   1.396547 S    
C198  O87   1.219792 D    
O25   C8    1.271444 A    
Zn13  O29   1.935010 S    
Zn10  O2    1.969960 S    
C11   C115  1.479971 S    
C48   C88   1.416188 A    
C67   C75   1.420543 A    
O29   C12   1.286973 A    
C68   C76   1.414749 A    
C132  C144  1.387272 A    
C47   C87   1.420413 A    
O72   H58   1.013169 S    
C26   H2    1.112469 S    
O84   H64   1.013974 S    
C82   C114  1.427812 A    
O37   C17   1.265143 A    
C90   C98   1.423737 A    
O48   C23   1.269014 A    
C206  O103  1.223529 D    
C28   C196  1.526995 S    
C41   C81   1.420825 A    
C126  C134  1.403568 A    
C156  C160  1.393306 A    
C59   C67   1.391923 A    
C26   C194  1.521579 S    
C135  C139  1.389076 A    
C44   C84   1.414888 A    
C194  O79   1.221363 D    
C73   C85   1.407845 A    
C3    C89   1.452766 S    
O108  H88   1.013954 S    
C74   C90   1.411836 A    
Zn16  O35   1.941869 S    
C103  C127  1.429769 A    
C204  O99   1.223332 D    
Zn15  O33   1.935010 S    
C30   C40   1.578240 S    
C157  C158  1.385455 A    
Zn7   O10   1.948598 S    
C28   C37   1.579791 S    
O33   C16   1.293933 A    
C136  H44   1.084433 S    
H17   C137  1.078309 S    
C169  C170  1.397419 A    
O40   C20   1.294924 A    
O98   H83   1.013732 S    
C55   C207  1.484880 S    
C86   C118  1.422778 A    
C34   C38   1.557629 S    
C41   H73   1.074380 S    
C88   C120  1.415741 A    
C20   C167  1.480091 S    
C60   H92   1.083158 S    
C176  C180  1.399822 A    
C157  H29   1.082680 S    
C187  O66   1.396835 S    
Zn5   O17   1.937861 S    
C31   C199  1.524469 S    
C179  C192  1.486140 S    
C69   C77   1.417976 A    
C155  C164  1.418842 A    
C43   C51   1.402495 A    
C25   C27   1.570295 S    
C23   C39   1.495219 S    
C185  O62   1.396379 S    
C111  C119  1.414545 A    
C166  C170  1.406422 A    
C54   C206  1.481112 S    
C121  C129  1.400933 A    
C109  C117  1.413258 A    
C208  O108  1.398735 S    
C27   H3    1.114175 S    
C103  C107  1.406643 A    
C192  O76   1.398732 S    
C32   H8    1.115838 S    
Zn8   O3    1.942358 S    
C63   H95   1.080475 S    
C61   H93   1.080826 S    
O38   C18   1.298340 A    
C98   C110  1.420003 A    
C48   H80   1.080417 S    
C63   C71   1.389854 A    
C134  C138  1.389152 A    
C49   C201  1.481239 S    
C44   H76   1.075674 S    
C53   C205  1.484114 S    
O5    C1    1.276013 A    
C47   H79   1.079410 S    
O32   C9    1.292969 A    
C52   C64   1.394823 A    
C55   C59   1.396115 A    
C184  O59   1.223370 D    
C45   H77   1.082108 S    
C51   C63   1.395517 A    
Zn15  O51   1.946012 S    
C27   C195  1.527556 S    
C183  O57   1.219346 D    
Zn11  O28   1.930167 S    
C50   C62   1.392054 A    
C97   C121  1.435539 A    
C142  C150  1.388251 A    
C2    C92   1.495427 S    
C12   C116  1.466657 S    
C1    C91   1.446629 S    
C187  O65   1.223479 D    
C72   C80   1.417453 A    
O8    C4    1.280035 A    
Zn9   O1    1.946832 S    
C153  C157  1.393488 A    
C129  C141  1.384923 A    
C94   C102  1.422459 A    
C56   C60   1.397567 A    
C107  C147  1.412571 A    
O50   C18   1.268748 A    
C155  C159  1.391959 A    
C181  O54   1.396581 S    
Zn1   O1    1.949288 S    
C131  H47   1.084561 S    
Zn2   O14   1.940334 S    
C132  H48   1.080133 S    
C29   C39   1.574071 S    
C67   H99   1.080950 S    
C33   C34   1.541936 S    
C68   H100  1.081198 S    
C49   C61   1.392752 A    
C102  C106  1.397646 A    
C151  H55   1.081486 S    
C46   C54   1.403385 A    
C164  C168  1.413241 A    
O9    C5    1.268409 A    
O39   C19   1.276103 A    
O36   C13   1.283110 A    
C159  H31   1.082802 S    
C161  C165  1.410371 A    
O13   C9    1.279201 A    
Zn1   O8    1.940293 S    
C196  O84   1.398672 S    
C124  C184  1.487323 S    
H20   C140  1.082084 S    
Zn2   O7    1.937816 S    
C77   C81   1.406154 A    
Zn3   O6    1.948598 S    
O18   C14   1.268796 A    
O31   C10   1.281398 A    
O6    C2    1.292698 A    
C80   C84   1.407758 A    
C125  C133  1.397713 A    
C31   C40   1.577509 S    
C199  O90   1.398635 S    
C58   H90   1.083350 S    
C75   C87   1.404968 A    
C207  O105  1.222737 D    
C105  C113  1.418975 A    
O68   H40   1.013252 S    
C60   C68   1.393009 A    
C195  O81   1.222373 D    
C156  C163  1.418856 A    
H9    C33   1.113879 S    
C159  C160  1.387092 A    
Zn14  O30   1.930419 S    
C121  C181  1.476027 S    
Zn15  O3    1.969656 S    
C197  O86   1.398441 S    
Zn11  O3    1.946832 S    
O41   C21   1.276042 A    
C158  H30   1.082695 S    
C45   C53   1.401688 A    
Zn16  O34   1.930419 S    
C24   C40   1.491718 S    
H12   C33   1.113769 S    
O90   H67   1.014099 S    
C128  C136  1.399053 A    
Zn8   O20   1.948645 S    
C173  C177  1.405089 A    
C148  H52   1.082210 S    
C99   C123  1.449317 A    
C106  C146  1.418104 A    
C191  O74   1.398488 S    
H13   C35   1.108908 S    
C89   C97   1.425459 A    
O80   H62   1.013978 S    
C173  H69   1.077592 S    
O86   H65   1.013861 S    
C92   C100  1.424486 A    
C145  H49   1.079356 S    
C74   C86   1.406972 A    
C193  O78   1.398036 S    
C71   C79   1.412346 A    
Zn6   O11   1.937816 S    
C186  O64   1.398608 S    
C134  H42   1.082852 S    
C177  C178  1.411187 A    
Zn8   O9    1.932333 S    
C112  C152  1.411912 A    
C62   C70   1.391472 A    
C6    C96   1.454400 S    
C190  O72   1.397371 S    
O66   H39   1.011151 S    
O7    C3    1.280499 A    
C102  C126  1.429103 A    
C107  C115  1.406327 A    
C108  C116  1.415531 A    
C175  C179  1.403691 A    
O60   H36   1.009949 S    
O19   C15   1.277725 A    
C32   C200  1.527402 S    
C192  O75   1.222936 D    
H22   C142  1.082966 S    
Zn9   O24   1.930167 S    
C133  C137  1.383998 A    
Zn6   O18   1.940334 S    
C91   C99   1.433381 A    
Zn10  O23   1.934759 S    
C101  C125  1.435382 A    
O70   H57   1.013947 S    
C108  C148  1.414605 A    
C169  C173  1.419033 A    
C182  O55   1.222535 D    
C42   C50   1.399516 A    
O74   H59   1.013975 S    
C70   C78   1.422530 A    
C78   C94   1.430780 A    
Zn15  O36   1.927660 S    
O49   C17   1.300852 A    
O42   C22   1.278109 A    
C126  C186  1.488160 S    
Zn4   O1    1.942358 S    
C30   C32   1.557826 S    
C152  H56   1.082146 S    
Zn9   O37   1.957595 S    
O12   C8    1.286311 A    
C136  C140  1.382668 A    
Zn11  O39   1.957595 S    
C42   H74   1.076918 S    
C58   C66   1.388603 A    
C174  H70   1.083066 S    
C19   C168  1.472837 S    
O96   H82   1.013929 S    
C16   C120  1.490285 S    
Zn5   O3    1.949288 S    
C129  H45   1.084096 S    
C31   H7    1.115565 S    
C153  C162  1.423774 A    
C41   C49   1.401567 A    
C32   C39   1.583212 S    
C29   C197  1.520834 S    
C205  O102  1.398655 S    
C160  H32   1.082593 S    
C44   C52   1.403139 A    
C30   C198  1.520519 S    
C76   C88   1.409776 A    
C161  C162  1.403497 A    
C21   C37   1.493872 S    
O28   C5    1.298144 A    
C4    C90   1.455436 S    
Zn13  O1    1.969656 S    
Zn3   O42   1.952417 S    
C57   H89   1.082983 S    
Zn7   O4    1.942359 S    
O21   C4    1.271428 A    
C147  H51   1.082572 S    
O104  H86   1.013894 S    
C201  O94   1.399114 S    
C81   C113  1.421416 A    
C127  C135  1.404831 A    
C203  O97   1.223447 D    
C57   C65   1.393481 A    
C64   H96   1.083365 S    
C53   C57   1.397015 A    
C110  C150  1.415269 A    
O76   H60   1.013934 S    
C130  H46   1.083997 S    
Zn2   O2    1.949287 S    
C185  O61   1.220240 D    
Zn14  O2    1.946528 S    
O100  H84   1.013486 S    
C104  C108  1.424469 A    
C48   C56   1.401783 A    
C10   C114  1.464281 S    
C208  O107  1.223295 D    
O94   H81   1.013869 S    
C18   C165  1.468034 S    
Zn13  O49   1.946012 S    
C188  O67   1.222187 D    
C202  O96   1.398073 S    
C47   C55   1.399602 A    
C153  H25   1.076324 S    
H18   C138  1.082138 S    
C80   C96   1.413655 A    
C156  H28   1.075752 S    
Zn12  O27   1.934759 S    
C198  O88   1.398716 S    
C71   H103  1.082069 S    
C111  C151  1.415991 A    
C162  C166  1.427904 A    
C69   H101  1.081339 S    
C87   C119  1.409756 A    
C109  C149  1.414550 A    
Zn3   O2    1.942359 S    
C139  C147  1.389516 A    
C104  C128  1.439883 A    
C85   C117  1.410260 A    
C33   C37   1.555246 S    
O10   C6    1.278338 A    
C75   C91   1.421138 A    
O82   H63   1.013837 S    
C52   C204  1.479689 S    
C76   C92   1.422488 A    
O46   C24   1.271548 A    
O47   C24   1.277692 A    
O102  H85   1.014006 S    
Zn16  O52   1.957640 S    
C17   C166  1.466994 S    
C206  O104  1.399376 S    
C43   H75   1.074195 S    
C50   C202  1.483299 S    
Zn8   O45   1.952407 S    
O27   C6    1.282734 A    
C194  O80   1.396507 S    
C22   C38   1.496089 S    
Zn12  O4    1.969960 S    
C7    C93   1.448689 S    
C110  C118  1.418585 A    
C59   H91   1.083314 S    
C127  C187  1.486278 S    
C29   C31   1.571660 S    
C163  C167  1.422686 A    
O24   C1    1.273096 A    
C25   C193  1.519223 S    
C174  C178  1.399190 A    
O62   H37   1.014008 S    
C97   C109  1.416807 A    
C181  O53   1.222271 D    
C79   C83   1.406285 A    
H21   C141  1.082826 S    
O43   C22   1.273252 A    
C43   C83   1.420197 A    
Zn4   O41   1.952407 S    
Zn3   O15   1.932375 S    
O88   H66   1.012788 S    
C51   C203  1.482872 S    
O106  H87   1.013967 S    
C172  C176  1.412596 A    
C135  H43   1.083025 S    
Zn14  O50   1.957640 S    
Zn5   O12   1.940293 S    
H14   C36   1.113571 S    
C35   C36   1.544060 S    
C98   C122  1.434673 A    
O35   C14   1.289595 A    
C96   C104  1.429607 A    
Zn12  O40   1.945972 S    
C131  C143  1.377510 A    
C141  C149  1.387241 A    
C123  C183  1.482304 S    
O56   H34   1.013672 S    
C150  H54   1.080371 S    
O52   C20   1.280875 A    
C138  C146  1.392558 A    
C163  C164  1.402792 A    
C46   C86   1.419365 A    
O54   H33   1.012098 S    
C8    C94   1.462591 S    
C199  O89   1.222397 D    
C154  C158  1.390082 A    
O44   C21   1.274250 A    
O22   C3    1.287356 A    
C95   C103  1.428284 A    
Zn7   O19   1.932375 S    
C93   C101  1.420230 A    
C123  C131  1.402523 A    
C170  C174  1.413196 A    
Zn13  O32   1.927660 S    
O15   C11   1.266980 A    
Zn14  O31   1.941869 S    
C197  O85   1.221893 D    
O51   C19   1.293413 A    
C72   H104  1.082189 S    
H16   C35   1.113555 S    
C79   C95   1.408223 A    
C73   C89   1.417652 A    
C144  C152  1.388060 A    
C171  C172  1.401834 A    
C77   C93   1.413660 A    
C184  O60   1.397494 S    
C200  O91   1.219599 D    
Zn4   O5    1.932333 S    
O17   C13   1.283136 A    
O20   C16   1.287697 A    
C101  C105  1.416303 A    
C180  C191  1.484492 S    
C183  O58   1.397196 S    
O23   C2    1.291466 A    
Zn11  O25   1.941618 S    
C205  O101  1.223547 D    
Zn10  O38   1.945972 S    
C5    C95   1.482915 S    
O14   C10   1.277616 A    
C66   C74   1.416987 A    
C36   C40   1.556614 S    
C45   C85   1.417724 A    
C64   C72   1.389382 A    
H15   C36   1.113664 S    
C140  C148  1.385630 A    
C149  H53   1.080216 S    
C14   C118  1.467268 S    
C193  O77   1.220836 D    
C155  H27   1.080837 S    
C100  C124  1.428932 A    
C15   C119  1.453045 S    
O45   C23   1.282186 A    
