data_mof_unit_64319.cif
_audit_creation_date              2013-03-05T15:39:57-0500
_audit_creation_method            fapswitch 2.2
_symmetry_space_group_name_H-M    P1
_symmetry_Int_Tables_number       1
_space_group_crystal_system       triclinic
_cell_length_a                    14.128586
_cell_length_b                    16.39694
_cell_length_c                    15.202229
_cell_angle_alpha                 90.264743
_cell_angle_beta                  92.088936
_cell_angle_gamma                 89.900797
_cell_volume                      3519.45084598

loop_
_atom_site_label
_atom_site_type_symbol
_atom_site_description
_atom_site_fract_x
_atom_site_fract_y
_atom_site_fract_z
_atom_type_partial_charge
Zn1   Zn    Zn3+2 0.493670 0.096680 0.574000 0.991854
Zn2   Zn    Zn3+2 0.493670 0.903320 0.574000 1.000946
Zn3   Zn    Zn3+2 0.993670 0.596680 0.574000 0.991757
Zn4   Zn    Zn3+2 0.993670 0.403320 0.574000 1.000768
Zn5   Zn    Zn3+2 0.617760 0.000000 0.438070 1.023043
Zn6   Zn    Zn3+2 0.117760 0.500000 0.438070 1.022851
Zn7   Zn    Zn3+2 0.394920 1.000000 0.413930 1.051175
Zn8   Zn    Zn3+2 0.894920 0.500000 0.413930 1.051818
O1    O     O_3   0.500000 0.000000 0.500000 -0.521140
O2    O     O_3   0.000000 0.500000 0.500000 -0.521234
O3    O     O_R   0.605310 0.837110 0.563680 -0.621039
O4    O     O_R   0.605310 0.162890 0.563680 -0.628764
O5    O     O_R   0.105310 0.337110 0.563680 -0.621180
O6    O     O_R   0.105310 0.662890 0.563680 -0.628833
O7    O     O_R   0.385830 0.162890 0.539910 -0.646150
O8    O     O_R   0.385830 0.837110 0.539910 -0.639437
O9    O     O_R   0.885830 0.662890 0.539910 -0.646289
O10   O     O_R   0.885830 0.337110 0.539910 -0.639637
O11   O     O_R   0.692160 0.095230 0.468550 -0.625351
O12   O     O_R   0.692160 0.904770 0.468550 -0.620228
O13   O     O_R   0.192160 0.595230 0.468550 -0.625292
O14   O     O_R   0.192160 0.404770 0.468550 -0.620031
O15   O     O_R   0.316720 0.904790 0.427870 -0.635382
O16   O     O_R   0.316720 0.095210 0.427870 -0.610520
O17   O     O_R   0.816720 0.404790 0.427870 -0.634936
O18   O     O_R   0.816720 0.595210 0.427870 -0.610141
O19   O     O_R   0.594900 1.000000 0.310900 -0.623012
O20   O     O_R   0.094900 0.500000 0.310900 -0.623224
O21   O     O_R   0.483090 0.932320 0.697550 -0.613329
O22   O     O_R   0.483090 0.067680 0.697550 -0.645321
O23   O     O_R   0.983090 0.432320 0.697550 -0.613495
O24   O     O_R   0.983090 0.567680 0.697550 -0.645015
O25   O     O_R   0.438930 1.000000 0.294000 -0.590818
O26   O     O_R   0.938930 0.500000 0.294000 -0.589883
C1    C     C_R   0.680164 0.844849 0.520138 0.872833
C2    C     C_R   0.679967 0.155531 0.519955 0.868444
C3    C     C_R   0.180165 0.344849 0.520139 0.872917
C4    C     C_R   0.179967 0.655530 0.519956 0.868290
C5    C     C_R   0.320104 0.156292 0.480351 0.900934
C6    C     C_R   0.320007 0.843859 0.480325 0.878928
C7    C     C_R   0.820103 0.656292 0.480352 0.900587
C8    C     C_R   0.820007 0.343859 0.480325 0.878731
C9    C     C_R   0.520511 0.998681 0.260977 0.896914
C10   C     C_R   0.020516 0.498704 0.260950 0.895262
C11   C     C_R   0.480411 0.000391 0.738950 0.847215
C12   C     C_R   0.980387 0.500389 0.738923 0.847514
C13   C     C_R   0.527818 0.992568 0.165508 -0.196751
C14   C     C_R   0.027866 0.492766 0.165427 -0.197718
C15   C     C_R   0.474103 0.003650 0.834377 -0.095436
C16   C     C_R   0.974036 0.503592 0.834302 -0.094709
C17   C     C_R   0.412861 0.078469 0.958129 0.217712
C18   C     C_R   0.911469 0.577467 0.958064 0.218117
C19   C     C_R   0.415065 0.063105 0.868556 -0.261381
C20   C     C_R   0.914000 0.562281 0.868471 -0.261536
C21   C     C_R   0.533465 0.956939 0.890460 0.116619
C22   C     C_R   0.034258 0.457630 0.890329 0.116197
C23   C     C_R   0.530668 0.969791 0.982295 0.014458
C24   C     C_R   0.031287 0.470371 0.982159 0.014731
C25   C     C_R   0.468888 0.030027 0.017519 -0.046275
C26   C     C_R   0.968330 0.529656 0.017423 -0.046274
C27   C     C_R   0.466855 0.039494 0.110168 0.242777
C28   C     C_R   0.965961 0.538868 0.110076 0.242304
C29   C     C_R   0.589428 0.935147 0.129626 0.114217
C30   C     C_R   0.090698 0.436349 0.129455 0.115338
C31   C     C_R   0.589875 0.924037 0.039425 -0.160623
C32   C     C_R   0.091411 0.425425 0.039237 -0.161016
H1    H     H_    0.636707 0.877662 0.015456 0.210830
H2    H     H_    0.139223 0.379827 0.015197 0.210770
H3    H     H_    0.372054 0.100456 0.823977 0.185445
H4    H     H_    0.870397 0.599144 0.823881 0.184860
C33   C     C_2   0.248431 0.219538 0.472470 -0.306554
C34   C     C_2   0.248085 0.780780 0.472456 -0.321445
C35   C     C_2   0.748429 0.719536 0.472471 -0.306167
C36   C     C_2   0.748084 0.280780 0.472456 -0.320952
H5    H     H_    0.692485 0.714399 0.421663 0.170863
H6    H     H_    0.692161 0.285720 0.421655 0.165677
H7    H     H_    0.192490 0.214403 0.421659 0.170466
H8    H     H_    0.192161 0.785719 0.421656 0.165208
C37   C     C_2   0.751759 0.782969 0.527499 -0.282535
C38   C     C_2   0.751277 0.217684 0.527470 -0.287625
C39   C     C_2   0.251760 0.282970 0.527500 -0.282224
C40   C     C_2   0.251277 0.717683 0.527471 -0.287215
H9    H     H_    0.306560 0.289448 0.579051 0.173017
H10   H     H_    0.306087 0.711477 0.579006 0.172025
H11   H     H_    0.806562 0.789451 0.579046 0.172900
H12   H     H_    0.806086 0.211477 0.579006 0.171906
N1    N     N_R   0.400391 0.093151 0.149698 0.226523
O27   O     O_R   0.313301 0.069267 0.157538 -0.325148
O28   O     O_R   0.430719 0.156828 0.193635 -0.368200
N2    N     N_R   0.897955 0.591123 0.149535 0.227174
O29   O     O_R   0.811382 0.565588 0.156799 -0.324901
O30   O     O_R   0.926408 0.655297 0.193720 -0.367438
I1    I     I_    0.677337 0.854734 0.206451 -0.213616
I2    I     I_    0.180198 0.356936 0.206012 -0.211597
I3    I     I_    0.329433 0.183721 0.986845 -0.156315
I4    I     I_    0.826289 0.681656 0.986897 -0.156453
I5    I     I_    0.633720 0.873782 0.834781 -0.301141
I6    I     I_    0.135805 0.375766 0.834480 -0.301986

loop_
_geom_bond_atom_site_label_1
_geom_bond_atom_site_label_2
_geom_bond_distance
_ccdc_geom_bond_type
C32   H2    1.078240 S    
N1    O27   1.301690 A    
C29   C31   1.382718 A    
Zn8   O18   1.926357 S    
O22   C11   1.274051 A    
C22   I6    2.157005 S    
C19   H3    1.084510 S    
Zn5   O12   1.929604 S    
C16   C20   1.392866 A    
C36   H6    1.087716 S    
Zn2   O21   1.946326 S    
O11   C2    1.272827 A    
O10   C8    1.279370 A    
C13   C29   1.403132 A    
Zn7   O15   1.931040 S    
C23   C25   1.431901 A    
C24   C26   1.431952 A    
Zn7   O16   1.926357 S    
Zn6   O14   1.929604 S    
O16   C5    1.277479 A    
C26   C28   1.417525 A    
Zn4   O5    1.923977 S    
C38   H12   1.086309 S    
C27   N1    1.431916 S    
Zn5   O19   1.948416 S    
O12   C1    1.275357 A    
N2    O30   1.302038 A    
C24   C32   1.402736 A    
Zn6   O20   1.948416 S    
O13   C4    1.272828 A    
C31   H1    1.077995 S    
O23   C12   1.279804 A    
C34   H8    1.087716 S    
Zn3   O9    1.926277 S    
Zn1   O7    1.926277 S    
O4    C2    1.272373 A    
Zn2   O8    1.926551 S    
O5    C3    1.274760 A    
Zn4   O10   1.926551 S    
C36   C38   1.333032 D    
C4    C40   1.435554 S    
Zn8   O17   1.931040 S    
C35   H5    1.087912 S    
C3    C39   1.433332 S    
Zn1   O4    1.927873 S    
Zn2   O3    1.923977 S    
C39   H9    1.086368 S    
C18   C20   1.385191 A    
C8    C36   1.452692 S    
C25   C27   1.417621 A    
Zn7   O25   1.947652 S    
O25   C9    1.273982 A    
Zn1   O1    1.943436 S    
C2    C38   1.435551 S    
C15   C21   1.403075 A    
O14   C3    1.275357 A    
O20   C10   1.274091 A    
C16   C22   1.402945 A    
O21   C11   1.280016 A    
C17   C19   1.385134 A    
C30   C32   1.382742 A    
Zn5   O1    1.941324 S    
O6    C4    1.272372 A    
C14   C28   1.412228 A    
C20   H4    1.084621 S    
C11   C15   1.457408 S    
C21   I5    2.156865 S    
C35   C37   1.331585 D    
O26   C10   1.274220 A    
Zn8   O26   1.947652 S    
C10   C14   1.462419 S    
O7    C5    1.277489 A    
Zn3   O6    1.927873 S    
O8    C6    1.279369 A    
Zn8   O2    1.942827 S    
C40   H10   1.086310 S    
C21   C23   1.412916 A    
C17   C25   1.423043 A    
Zn4   O2    1.952151 S    
C33   H7    1.087911 S    
Zn7   O1    1.942827 S    
C12   C16   1.456709 S    
C6    C34   1.452691 S    
O24   C12   1.273882 A    
C23   C31   1.402780 A    
O17   C8    1.280907 A    
C13   C27   1.411564 A    
Zn5   O11   1.929083 S    
C29   I1    2.132596 S    
O3    C1    1.274759 A    
C30   I2    2.133082 S    
Zn3   O2    1.943436 S    
Zn6   O13   1.929083 S    
N2    O29   1.302163 A    
C15   C19   1.392908 A    
C28   N2    1.432335 S    
C1    C37   1.433331 S    
Zn1   O22   1.950689 S    
C37   H11   1.086367 S    
C22   C24   1.412733 A    
C18   I4    2.140900 S    
Zn3   O24   1.950689 S    
O9    C7    1.277492 A    
Zn4   O23   1.946326 S    
C14   C30   1.403836 A    
Zn6   O2    1.941324 S    
C7    C35   1.450480 S    
O19   C9    1.273911 A    
C18   C26   1.423310 A    
N1    O28   1.301596 A    
C5    C33   1.450481 S    
Zn2   O1    1.952151 S    
C9    C13   1.461735 S    
C34   C40   1.333032 D    
O15   C6    1.280909 A    
O18   C7    1.277476 A    
C17   I3    2.140525 S    
C33   C39   1.331588 D    
