data_mof_unit_12008.cif
_audit_creation_date              2012-12-11T14:36:14-0500
_audit_creation_method            fapswitch 2.2
_symmetry_space_group_name_H-M    P1
_symmetry_Int_Tables_number       1
_space_group_crystal_system       triclinic
_cell_length_a                    13.473624
_cell_length_b                    13.473912
_cell_length_c                    27.538275
_cell_angle_alpha                 90.776198
_cell_angle_beta                  90.233477
_cell_angle_gamma                 60.179027
_cell_volume                      4336.94823083

loop_
_atom_site_label
_atom_site_type_symbol
_atom_type_description
_atom_site_fract_x
_atom_site_fract_y
_atom_site_fract_z
_atom_type_partial_charge
C1    C     C_R   0.620185 0.101242 0.570280 0.545713
C2    C     C_1   0.631811 0.731153 0.616167 -0.007541
C3    C     C_3   0.684620 0.561197 0.766973 -0.124326
C4    C     C_3   0.685893 0.646249 0.804724 0.092172
C5    C     C_3   0.581465 0.661707 0.741376 -0.112715
C6    C     C_3   0.666004 0.679293 0.710094 0.006225
C7    C     C_3   0.585526 0.744394 0.779202 0.264487
C8    C     C_3   0.667281 0.764745 0.747698 -0.087834
C9    C     C_1   0.692625 0.627431 0.857172 0.005569
C10   C     C_1   0.650913 0.702601 0.657985 -0.049550
C11   C     C_3   0.100033 0.117849 0.738198 -0.139074
C12   C     C_R   0.599694 0.779508 0.568758 0.544463
C13   C     C_3   0.196498 0.059716 0.776800 -0.147353
C14   C     C_1   0.094806 0.202675 0.901525 0.006587
C15   C     C_1   0.227630 0.139379 0.617102 -0.000793
C16   C     C_3   0.048807 0.229319 0.768716 0.267434
C17   C     C_3   0.143304 0.172249 0.806741 0.052812
C18   C     C_3   0.121365 0.268645 0.741678 0.278062
C19   C     C_3   0.173736 0.158391 0.711234 0.046799
C20   C     C_3   0.217009 0.212659 0.779711 -0.120582
C21   C     C_3   0.270524 0.099914 0.749030 -0.150772
C22   C     C_1   0.121280 0.184661 0.859211 -0.004228
C23   C     C_R   0.277479 0.122003 0.569603 0.543284
C24   C     C_1   0.197891 0.149753 0.658982 -0.013270
C25   C     C_3   0.685497 0.247324 0.738517 -0.096584
C26   C     C_3   0.584625 0.285132 0.774633 -0.097346
C27   C     C_1   0.691534 0.208110 0.902813 -0.003278
C28   C     C_1   0.635328 0.133130 0.618485 -0.011157
C29   C     C_3   0.763999 0.148784 0.772747 -0.092019
C30   C     C_3   0.662982 0.186266 0.808072 0.052099
C31   C     C_3   0.728976 0.068291 0.746773 -0.109293
C32   C     C_3   0.650650 0.167041 0.713287 0.049009
C33   C     C_3   0.628177 0.105951 0.782814 -0.108600
C34   C     C_R   0.622560 0.100435 0.431665 0.545973
C35   C     C_3   0.549560 0.204521 0.748551 -0.101073
C36   C     C_1   0.674700 0.197117 0.860560 -0.043264
C37   C     C_1   0.643618 0.151973 0.660793 -0.053738
C38   C     C_R   0.737189 0.701066 0.361040 -0.117553
C39   C     C_R   0.750797 0.684436 0.310609 0.048149
C40   C     C_R   0.767612 0.661956 0.208464 -0.008160
C41   C     C_R   0.855088 0.663886 0.235948 -0.112159
C42   C     C_R   0.848001 0.674124 0.286754 0.099649
C43   C     C_R   0.777844 0.640896 0.157748 0.228137
C44   C     C_R   0.687264 0.639001 0.132381 0.038129
C45   C     C_R   0.602155 0.775039 0.430646 0.544789
C46   C     C_R   0.555522 0.704578 0.356600 -0.124242
C47   C     C_R   0.564006 0.694503 0.306590 0.010337
C48   C     C_R   0.661436 0.685115 0.283206 0.037913
C49   C     C_R   0.472694 0.701262 0.279622 -0.101705
C50   C     C_R   0.477215 0.699200 0.229351 -0.111971
C51   C     C_R   0.575090 0.685374 0.205702 -0.002397
C52   C     C_R   0.668223 0.677635 0.232432 0.018930
C53   C     C_R   0.583382 0.671933 0.155806 -0.176838
C54   C     C_R   0.636848 0.717604 0.383426 -0.015992
C55   C     C_R   0.202060 0.059880 0.359214 0.083954
C56   C     C_R   0.277076 0.120784 0.431113 0.567101
C57   C     C_R   0.176281 0.073531 0.309088 0.021941
C58   C     C_R   0.139254 0.098054 0.208084 0.015298
C59   C     C_R   0.148415 0.002209 0.231402 -0.131314
C60   C     C_R   0.167308 0.989615 0.281338 -0.132335
C61   C     C_R   0.116589 0.113262 0.158402 -0.132203
C62   C     C_R   0.102986 0.212140 0.135907 -0.002815
C63   C     C_R   0.190266 0.246562 0.361660 -0.158399
C64   C     C_R   0.168253 0.259502 0.312404 -0.003863
C65   C     C_R   0.163843 0.171944 0.285651 0.043358
C66   C     C_R   0.156715 0.356558 0.289182 -0.105301
C67   C     C_3   0.768930 0.578784 0.734745 -0.107442
C68   C     C_R   0.143452 0.366055 0.239156 -0.112161
C69   C     C_R   0.139075 0.279731 0.212070 0.006806
C70   C     C_R   0.147788 0.182934 0.235249 0.064960
C71   C     C_R   0.120624 0.291576 0.162395 -0.128324
C72   C     C_R   0.216029 0.144173 0.384561 0.034915
C73   C     C_R   0.559229 0.238843 0.363818 -0.130298
C74   C     C_R   0.564222 0.258301 0.314040 -0.039754
C75   C     C_R   0.580910 0.289384 0.213447 -0.038696
C76   C     C_R   0.489461 0.375421 0.241410 0.291049
C77   C     C_R   0.477530 0.356743 0.290542 0.288829
C78   C     C_3   0.770279 0.663579 0.773293 -0.123084
C79   C     C_R   0.592605 0.300415 0.163181 -0.132825
C80   C     C_R   0.684942 0.213517 0.137224 -0.004121
C81   C     C_R   0.740636 0.061566 0.358584 -0.125820
C82   C     C_R   0.747233 0.077924 0.309483 0.027203
C83   C     C_R   0.658550 0.175660 0.286769 0.013913
C84   C     C_R   0.838856 0.994201 0.282407 -0.122180
C85   C     C_R   0.841124 0.004072 0.232561 -0.117964
C86   C     C_R   0.754489 0.100447 0.209637 0.026505
C87   C     C_R   0.664218 0.188801 0.236615 0.012712
C88   C     C_R   0.760692 0.111309 0.160205 -0.117230
C89   C     C_1   0.699200 0.604305 0.899580 0.008261
C90   C     C_R   0.644006 0.137914 0.385232 -0.004118
C91   C     C_R   0.048849 0.236443 0.949663 0.545362
C92   C     C_R   0.711892 0.562340 0.948029 0.545657
C93   C     C_R   0.722252 0.225536 0.950830 0.549501
C94   C     C_R   0.047901 0.245439 0.088518 0.544513
C95   C     C_R   0.708027 0.575852 0.086260 0.567813
C96   C     C_R   0.719226 0.234199 0.089703 0.546142
Cr1   Cr    Cr6+3 0.417550 0.169090 0.500530 1.031048
Cr2   Cr    Cr6+3 0.669180 0.913420 0.499920 1.029577
Cr3   Cr    Cr6+3 0.413260 0.917540 0.499520 1.048713
Cr4   Cr    Cr6+3 0.909170 0.177380 0.020380 1.030919
Cr5   Cr    Cr6+3 0.912710 0.429210 0.018220 1.069848
Cr6   Cr    Cr6+3 0.657170 0.432570 0.019030 1.030103
H1    H     H_    0.847887 0.663759 0.786849 0.114854
H2    H     H_    0.264606 0.251775 0.796602 0.110957
H3    H     H_    0.525101 0.374411 0.786696 0.112108
H4    H     H_    0.708986 0.305171 0.719759 0.101187
H5    H     H_    0.461110 0.227502 0.737999 0.118623
H6    H     H_    0.604525 0.047998 0.801394 0.124773
H7    H     H_    0.788594 0.978982 0.734762 0.110016
H8    H     H_    0.852524 0.125639 0.783243 0.137641
H9    H     H_    0.844398 0.510240 0.715321 0.163880
H10   H     H_    0.800242 0.709179 0.382593 0.153247
H11   H     H_    0.929389 0.658269 0.218415 0.115119
H12   H     H_    0.512602 0.674043 0.135987 0.134836
H13   H     H_    0.405335 0.705532 0.208975 0.120557
H14   H     H_    0.396815 0.710578 0.297395 0.129964
H15   H     H_    0.478906 0.714542 0.373927 0.138195
H16   H     H_    0.103251 0.051558 0.137946 0.124237
H17   H     H_    0.141107 0.936791 0.211000 0.107748
H18   H     H_    0.658215 0.849398 0.739633 0.106605
H19   H     H_    0.175407 0.913420 0.297706 0.109209
H20   H     H_    0.111130 0.367694 0.145178 0.135828
H21   H     H_    0.135278 0.441430 0.221741 0.123949
H22   H     H_    0.160001 0.424163 0.309614 0.143392
H23   H     H_    0.196961 0.313350 0.381268 0.137331
H24   H     H_    0.533395 0.376442 0.143883 0.130597
H25   H     H_    0.488206 0.298821 0.386091 0.134371
H26   H     H_    0.831375 0.042556 0.140356 0.137674
H27   H     H_    0.911855 0.937289 0.212021 0.107197
H28   H     H_    0.907651 0.919938 0.299634 0.097781
H29   H     H_    0.807025 0.984062 0.375061 0.127856
H30   H     H_    0.503173 0.662324 0.728217 0.108468
H31   H     H_    0.691780 0.477624 0.775564 0.132105
H32   H     H_    0.227051 0.973545 0.792072 0.133496
H33   H     H_    0.050697 0.080769 0.721187 0.105764
H34   H     H_    0.362766 0.046893 0.739951 0.119657
O1    O     O_R   0.301710 0.195650 0.554160 -0.498536
O2    O     O_R   0.658900 0.818120 0.449760 -0.503454
O3    O     O_R   0.503220 0.801620 0.445520 -0.511341
O4    O     O_R   0.319370 0.022040 0.450020 -0.455193
O5    O     O_3   0.499990 0.000010 0.499990 -0.253226
O6    O     O_R   0.818720 0.150820 0.967160 -0.502518
O7    O     O_R   0.006410 0.181720 0.970200 -0.494086
O8    O     O_R   0.027890 0.334070 0.964920 -0.505942
O9    O     O_R   0.809600 0.521790 0.967960 -0.495373
O10   O     O_R   0.635520 0.542770 0.964420 -0.503807
O11   O     O_R   0.665950 0.325030 0.970100 -0.493895
O12   O     O_R   0.522390 0.158990 0.550460 -0.492859
O13   O     O_R   0.816620 0.158530 0.074540 -0.521435
O14   O     O_R   0.004460 0.188870 0.069750 -0.504960
O15   O     O_R   0.025800 0.341780 0.072300 -0.505478
O16   O     O_R   0.807650 0.528950 0.067500 -0.436714
O17   O     O_R   0.633420 0.550490 0.071810 -0.538007
O18   O     O_R   0.664000 0.332180 0.069640 -0.501071
O19   O     O_3   0.826350 0.346390 0.019210 -0.256831
O20   O     O_R   0.694390 0.003530 0.554040 -0.505438
O21   O     O_R   0.657700 0.819660 0.549320 -0.493577
O22   O     O_R   0.501930 0.803280 0.552920 -0.507471
O23   O     O_R   0.318170 0.023580 0.549580 -0.498936
O24   O     O_R   0.303010 0.193990 0.446760 -0.534257
O25   O     O_R   0.523600 0.157450 0.450900 -0.503592
O26   O     O_R   0.695690 0.001860 0.446640 -0.519140
O27   O     O_3   0.080391 0.377752 0.722603 -0.704233
H35   H     H_    0.053382 0.430694 0.751020 0.323665
O28   O     O_3   0.932863 0.298695 0.779922 -0.717104
H36   H     H_    0.892416 0.312124 0.748480 0.310689
O29   O     O_3   0.876104 0.616630 0.132679 -0.682220
H37   H     H_    0.942907 0.565436 0.152707 0.309501
N1    N     N_3   0.939934 0.672462 0.314171 -0.643142
H38   H     H_    0.909982 0.754326 0.328925 0.218168
H39   H     H_    0.008560 0.656097 0.291444 0.231142
N2    N     N_3   0.218114 0.960096 0.384162 -0.601663
H40   H     H_    0.285062 0.887650 0.367516 0.224943
H41   H     H_    0.142989 0.955680 0.381433 0.222021
O30   O     O_3   0.406646 0.477025 0.221860 -0.667212
H42   H     H_    0.443306 0.502702 0.197935 0.303097
O31   O     O_3   0.381301 0.439074 0.314528 -0.666119
H43   H     H_    0.354842 0.400264 0.336961 0.301583
O32   O     O_3   0.490690 0.830513 0.803811 -0.702423
H44   H     H_    0.430752 0.866341 0.778756 0.310146

loop_
_geom_bond_atom_site_label_1
_geom_bond_atom_site_label_2
_ccdc_geom_bond_type
C83   C87   A    
C40   C52   A    
O28   H36   S    
Cr3   O23   S    
C41   C42   A    
C71   H20   S    
C66   C68   A    
O27   H35   S    
C74   C83   A    
C43   C44   A    
C34   O25   A    
C2    C12   S    
C49   C50   A    
C81   C82   A    
C7    C8    S    
C47   C49   A    
C85   C86   A    
C53   H12   S    
C33   H6    S    
C11   C19   S    
C20   C21   S    
Cr2   O2    S    
C94   O15   A    
C19   C21   S    
C73   C90   A    
C18   C19   S    
C5    C6    S    
C56   O4    A    
Cr5   O8    S    
C86   C88   A    
C81   H29   S    
Cr5   O19   S    
C65   C70   A    
C13   H32   S    
C45   O3    A    
C17   C20   S    
C68   H21   S    
C50   H13   S    
C73   C74   A    
C69   C71   A    
C85   H27   S    
C44   C53   A    
C40   C43   A    
C96   O18   A    
O30   H42   S    
C16   C17   S    
C56   C72   S    
C74   C77   A    
C23   O23   A    
C1    C28   S    
C31   C33   S    
C12   O21   A    
C80   C96   S    
Cr6   O18   S    
C21   H34   S    
C55   C72   A    
C61   C62   A    
C25   C32   S    
C15   C23   S    
C92   O9    A    
C59   C60   A    
C8    C78   S    
N1    H39   S    
Cr3   O3    S    
C69   C70   A    
C67   C78   S    
C4    C7    S    
C26   H3    S    
Cr1   O1    S    
Cr2   O26   S    
N2    H41   S    
C25   H4    S    
C39   C42   A    
C91   O7    A    
C5    H30   S    
C25   C29   S    
Cr2   O20   S    
C92   O10   A    
C51   C52   A    
Cr1   O24   S    
C29   H8    S    
C76   C77   A    
C9    C89   T    
O29   H37   S    
C5    C7    S    
C86   C87   A    
C68   C69   A    
C57   C60   A    
C6    C8    S    
Cr4   O14   S    
C25   C26   S    
C73   H25   S    
Cr5   O15   S    
C77   O31   S    
O32   H44   S    
C46   H15   S    
C51   C53   A    
C64   C66   A    
C1    O20   A    
C75   C76   A    
C34   C90   S    
C4    C78   S    
C29   C30   S    
C42   N1    S    
C11   H33   S    
Cr6   O11   S    
C18   O27   S    
C47   C48   A    
C38   C54   A    
Cr2   O21   S    
C16   O28   S    
C29   C31   S    
Cr5   O9    S    
C46   C54   A    
C50   C51   A    
C31   H7    S    
C13   C21   S    
N1    H38   S    
C32   C37   S    
C84   C85   A    
C89   C92   S    
Cr6   O17   S    
Cr1   O5    S    
C63   H23   S    
C81   C90   A    
Cr4   O19   S    
C16   C18   S    
C15   C24   T    
C79   H24   S    
C45   C54   S    
C82   C83   A    
C82   C84   A    
C62   C94   S    
Cr2   O5    S    
C27   C36   T    
Cr1   O12   S    
C66   H22   S    
Cr3   O4    S    
C27   C93   S    
C38   H10   S    
C3    C4    S    
C2    C10   T    
C3    C5    S    
C55   N2    S    
N2    H40   S    
C8    H18   S    
C91   O8    A    
C78   H1    S    
C67   H9    S    
C76   O30   S    
C46   C47   A    
C40   C41   A    
C59   H17   S    
C30   C33   S    
C61   H16   S    
C23   O1    A    
C31   C32   S    
C58   C70   A    
C32   C35   S    
C41   H11   S    
C63   C64   A    
C34   O26   A    
Cr4   O7    S    
C6    C10   S    
Cr3   O5    S    
C20   H2    S    
C30   C36   S    
Cr4   O13   S    
C94   O14   A    
Cr5   O16   S    
Cr1   O25   S    
C17   C22   S    
C13   C17   S    
C7    O32   S    
C12   O22   A    
C64   C65   A    
C14   C22   T    
C55   C57   A    
C19   C24   S    
C58   C59   A    
C80   C88   A    
C44   C95   S    
C6    C67   S    
Cr6   O10   S    
C43   O29   S    
C11   C13   S    
C38   C39   A    
C3    C67   S    
C28   C37   T    
C58   C61   A    
C96   O13   A    
C84   H28   S    
C45   O2    A    
C33   C35   S    
C62   C71   A    
C93   O11   A    
C18   C20   S    
C60   H19   S    
C14   C91   S    
C11   C16   S    
C35   H5    S    
C93   O6    A    
C79   C80   A    
C26   C35   S    
C48   C52   A    
C49   H14   S    
C63   C72   A    
C88   H26   S    
O31   H43   S    
Cr3   O22   S    
C3    H31   S    
C1    O12   A    
Cr4   O6    S    
C95   O16   A    
C95   O17   A    
C4    C9    S    
C75   C79   A    
Cr6   O19   S    
C75   C87   A    
C39   C48   A    
C57   C65   A    
C26   C30   S    
C56   O24   A    
