data_mof_unit_41858.cif
_audit_creation_date              2012-12-11T15:46:38-0500
_audit_creation_method            fapswitch 2.2
_symmetry_space_group_name_H-M    P1
_symmetry_Int_Tables_number       1
_space_group_crystal_system       triclinic
_cell_length_a                    11.671447
_cell_length_b                    11.605581
_cell_length_c                    19.553786
_cell_angle_alpha                 90.955935
_cell_angle_beta                  89.929503
_cell_angle_gamma                 60.115545
_cell_volume                      2295.99422625

loop_
_atom_site_label
_atom_site_type_symbol
_atom_type_description
_atom_site_fract_x
_atom_site_fract_y
_atom_site_fract_z
_atom_type_partial_charge
Br1   Br    Br    0.355959 0.277521 0.161895 -0.570709
Br2   Br    Br    0.138146 0.507166 0.356175 -0.664469
C1    C     C_R   0.639744 0.117377 0.599205 0.538418
C2    C     C_1   0.651786 0.150404 0.668627 0.006544
C3    C     C_R   0.704826 0.581181 0.204397 0.009960
C4    C     C_R   0.611252 0.747708 0.598771 0.544354
C5    C     C_R   0.581827 0.646820 0.233306 0.033966
C6    C     C_R   0.560672 0.678262 0.300488 0.003340
C7    C     C_R   0.793019 0.589225 0.316308 -0.144079
C8    C     C_R   0.814161 0.549084 0.246534 -0.167103
C9    C     C_3   0.464219 0.772078 0.213291 0.029116
C10   C     C_3   0.437282 0.806322 0.288206 -0.187951
C11   C     C_R   0.662976 0.657578 0.342540 0.011777
C12   C     C_1   0.639782 0.705430 0.668068 0.007451
C13   C     C_R   0.143539 0.189240 0.190535 0.078884
C14   C     C_R   0.136433 0.290636 0.231525 -0.030727
C15   C     C_R   0.159762 0.276059 0.299758 0.035880
C16   C     C_R   0.241525 0.145397 0.598152 0.546917
C17   C     C_R   0.170550 0.066025 0.295490 -0.174862
C18   C     C_R   0.162885 0.070274 0.222677 0.138719
C19   C     C_3   0.203436 0.369816 0.222980 0.027923
C20   C     C_3   0.233263 0.349486 0.298935 0.030821
C21   C     C_R   0.183209 0.162967 0.333523 -0.022719
C22   C     C_R   0.675280 0.198560 0.199135 0.039856
C23   C     C_1   0.126594 0.198154 0.859341 0.006723
C24   C     C_R   0.755899 0.072731 0.227154 -0.053072
C25   C     C_R   0.756355 0.053952 0.296504 0.068331
C26   C     C_R   0.586251 0.280154 0.314247 -0.135519
C27   C     C_R   0.585841 0.305825 0.244092 0.158047
C28   C     C_R   0.646729 0.114472 0.404886 0.539035
C29   C     C_3   0.903613 0.996962 0.225305 -0.249271
C30   C     C_3   0.902146 0.988747 0.301778 -0.002834
C31   C     C_R   0.670325 0.154355 0.339702 -0.041163
C32   C     C_R   0.081521 0.231044 0.928686 0.552321
C33   C     C_R   0.684765 0.602905 0.929426 0.550266
C34   C     C_1   0.171624 0.170774 0.727670 -0.029500
C35   C     C_R   0.709605 0.206481 0.930133 0.561118
C36   C     C_R   0.085597 0.232986 0.123729 0.561970
C37   C     C_R   0.711107 0.549255 0.132319 0.541708
C38   C     C_R   0.711143 0.216178 0.129472 0.561733
C39   C     C_R   0.621172 0.731202 0.406106 0.538726
C40   C     C_R   0.245041 0.139238 0.400941 0.547348
C41   C     C_1   0.671299 0.645110 0.860103 0.003839
C42   C     C_1   0.653834 0.684419 0.728430 -0.028986
C43   C     C_1   0.663621 0.666098 0.799716 -0.029614
C44   C     C_3   0.373279 0.524864 0.249950 -0.283315
C45   C     C_1   0.150157 0.182004 0.798927 -0.029441
C46   C     C_3   0.037091 0.833398 0.389722 -0.239032
C47   C     C_3   0.592058 0.893671 0.193871 -0.250150
C48   C     C_3   0.208423 0.919778 0.115073 -0.233770
C49   C     C_1   0.195559 0.161714 0.667335 0.005142
C50   C     C_1   0.680494 0.189940 0.860833 0.006942
C51   C     C_1   0.658204 0.167382 0.729077 -0.029112
C52   C     C_1   0.666824 0.179961 0.800417 -0.029570
Cr1   Cr    Cr6+3 0.404720 0.198220 0.499960 1.062250
Cr2   Cr    Cr6+3 0.698290 0.897110 0.500380 1.044626
Cr3   Cr    Cr6+3 0.396970 0.904720 0.499610 1.018128
Cr4   Cr    Cr6+3 0.926290 0.152010 0.028150 0.995894
Cr5   Cr    Cr6+3 0.921440 0.451830 0.027490 1.039103
Cr6   Cr    Cr6+3 0.626370 0.446880 0.028730 1.028723
H1    H     H_    0.874486 0.573300 0.348300 0.194483
H2    H     H_    0.352307 0.799955 0.308388 0.100877
H3    H     H_    0.174490 0.983660 0.322128 0.111149
H4    H     H_    0.133449 0.474352 0.209272 0.156106
H5    H     H_    0.520407 0.472980 0.177298 0.301479
H6    H     H_    0.298333 0.550831 0.209458 0.171122
H7    H     H_    0.364680 0.617068 0.270456 0.121302
H8    H     H_    0.351852 0.479780 0.292617 0.201822
H9    H     H_    0.997432 0.777883 0.293683 0.275476
H10   H     H_    0.035319 0.754900 0.420276 0.207442
H11   H     H_    0.995797 0.923859 0.423242 0.146372
H12   H     H_    0.339768 0.285220 0.310521 0.179352
H13   H     H_    0.140607 0.803003 0.375386 0.127014
H14   H     H_    0.489959 0.847898 0.121635 0.272026
H15   H     H_    0.575433 0.984246 0.167227 0.188407
H16   H     H_    0.691252 0.811997 0.178288 0.155218
H17   H     H_    0.590693 0.913287 0.249507 0.153531
H18   H     H_    0.171996 0.883002 0.216054 0.227416
H19   H     H_    0.271980 0.811292 0.107527 0.097156
H20   H     H_    0.260546 0.969688 0.094187 0.172661
H21   H     H_    0.120391 0.940407 0.084570 0.180374
H22   H     H_    0.524111 0.358382 0.350319 0.145022
H23   H     H_    0.940222 0.063671 0.209537 0.178916
H24   H     H_    0.943538 0.901127 0.196328 0.142690
H25   H     H_    0.934665 0.053485 0.328061 0.125063
H26   H     H_    0.911965 0.502030 0.224760 0.143617
H27   H     H_    0.395236 0.746058 0.189780 0.143036
H28   H     H_    0.440832 0.895618 0.306190 0.161585
N1    N     N_2   0.504154 0.439690 0.221861 -0.507003
N2    N     N_2   0.958890 0.855882 0.328684 -0.475338
N3    N     N_2   0.490293 0.862846 0.173711 -0.486592
N4    N     N_2   0.169743 0.957016 0.186612 -0.529212
O1    O     O_R   0.267750 0.231960 0.575440 -0.493849
O2    O     O_R   0.596230 0.579400 0.952760 -0.503893
O3    O     O_R   0.639160 0.321170 0.958690 -0.481735
O4    O     O_R   0.527290 0.186640 0.570530 -0.494951
O5    O     O_R   0.821370 0.124220 0.104400 -0.529966
O6    O     O_R   0.037020 0.167050 0.097880 -0.523098
O7    O     O_R   0.056310 0.349620 0.102920 -0.500247
O8    O     O_R   0.797790 0.564880 0.097980 -0.504466
O9    O     O_R   0.596000 0.584270 0.104310 -0.548704
O10   O     O_R   0.638950 0.325690 0.099180 -0.503509
O11   O     O_3   0.824700 0.350240 0.028120 -0.288653
O12   O     O_R   0.685950 0.784660 0.430010 -0.486677
O13   O     O_R   0.728110 0.003450 0.576380 -0.510536
O14   O     O_R   0.682980 0.789190 0.570500 -0.493782
O15   O     O_R   0.499300 0.771880 0.575540 -0.505107
O16   O     O_R   0.285350 0.030870 0.569740 -0.496900
O17   O     O_R   0.270960 0.227070 0.423890 -0.467665
O18   O     O_R   0.530270 0.182120 0.430040 -0.508705
O19   O     O_R   0.731320 0.998570 0.424830 -0.485755
O20   O     O_R   0.502510 0.767000 0.423980 -0.523945
O21   O     O_R   0.288320 0.026340 0.429250 -0.519871
O22   O     O_3   0.499990 0.000020 0.499980 -0.268980
O23   O     O_R   0.821590 0.119350 0.952850 -0.504457
O24   O     O_R   0.037230 0.162540 0.957390 -0.504506
O25   O     O_R   0.056530 0.344750 0.951370 -0.492361
O26   O     O_R   0.798000 0.560370 0.957490 -0.489184

loop_
_geom_bond_atom_site_label_1
_geom_bond_atom_site_label_2
_ccdc_geom_bond_type
Br1   C19   S    
C14   C19   S    
C2    C51   T    
Cr5   O7    S    
C17   C18   A    
Cr4   O6    S    
C36   O6    A    
C48   H19   S    
C27   N1    S    
C5    C6    A    
C44   N1    S    
C51   C52   S    
C1    O13   A    
C5    C9    S    
C18   N4    S    
C24   C25   A    
C6    C11   A    
C21   C40   S    
C28   O18   A    
C7    H1    S    
C26   C27   A    
C40   O17   A    
C22   C24   A    
C44   H6    S    
Cr3   O20   S    
C32   O24   A    
C13   C14   A    
C29   H23   S    
C35   O3    A    
C34   C45   S    
C7    C11   A    
C22   C27   A    
C19   H4    S    
C30   N2    S    
C17   H3    S    
C14   C15   A    
C39   O20   A    
Br2   C20   S    
C4    O15   A    
C47   H15   S    
C1    O4    A    
Cr6   O11   S    
C33   C41   S    
C7    C8    A    
C23   C45   T    
Cr2   O19   S    
Cr1   O1    S    
C23   C32   S    
C32   O25   A    
C24   C29   S    
Cr5   O25   S    
C46   N2    S    
C19   C20   S    
Cr1   O17   S    
Cr4   O24   S    
Cr5   O8    S    
Cr4   O5    S    
C47   N3    S    
Cr6   O10   S    
C20   H12   S    
C50   C52   T    
C16   C49   S    
C37   O9    A    
C13   C18   A    
C10   H28   S    
C26   H22   S    
Cr2   O12   S    
C9    H27   S    
C38   O5    A    
C3    C5    A    
C35   C50   S    
Cr1   O4    S    
Cr3   O21   S    
H18   N4    S    
C25   C31   A    
C29   H24   S    
H14   N3    S    
C17   C21   A    
C13   C36   S    
C44   H8    S    
C4    C12   S    
C10   H2    S    
C40   O21   A    
C29   C30   S    
C6    C10   S    
C4    O14   A    
C47   H16   S    
C15   C21   A    
C41   C43   T    
Cr2   O14   S    
C34   C49   T    
C48   N4    S    
Cr3   O15   S    
C26   C31   A    
Cr5   O26   S    
C3    C37   S    
Cr1   O18   S    
Cr4   O23   S    
Cr6   O9    S    
C46   H11   S    
C1    C2    S    
C42   C43   S    
C12   C42   T    
C33   O2    A    
C8    H26   S    
C28   C31   S    
C25   C30   S    
C46   H13   S    
C46   H10   S    
C36   O7    A    
C48   H20   S    
C9    C10   S    
Cr3   O22   S    
C35   O23   A    
Cr1   O22   S    
H5    N1    S    
C15   C20   S    
C39   O12   A    
C28   O19   A    
Cr5   O11   S    
C3    C8    A    
C37   O8    A    
C30   H25   S    
C22   C38   S    
C47   H17   S    
C16   O16   A    
Cr2   O13   S    
C38   O10   A    
Cr6   O3    S    
C9    N3    S    
C44   H7    S    
Cr3   O16   S    
C16   O1    A    
Cr2   O22   S    
C11   C39   S    
C33   O26   A    
Cr4   O11   S    
H9    N2    S    
C48   H21   S    
Cr6   O2    S    
