data_mof_unit_19691.cif
_audit_creation_date              2012-12-10T17:49:38-0500
_audit_creation_method            fapswitch 2.2
_symmetry_space_group_name_H-M    P1
_symmetry_Int_Tables_number       1
_space_group_crystal_system       triclinic
_cell_length_a                    14.638989
_cell_length_b                    14.541577
_cell_length_c                    15.835004
_cell_angle_alpha                 77.494936
_cell_angle_beta                  102.498319
_cell_angle_gamma                 114.659026
_cell_volume                      2960.43884484

loop_
_atom_site_label
_atom_site_type_symbol
_atom_type_description
_atom_site_fract_x
_atom_site_fract_y
_atom_site_fract_z
_atom_type_partial_charge
C1    C     C_R   0.879989 0.311372 0.514448 0.843473
C2    C     C_3   0.969161 0.375201 0.066435 0.309671
C3    C     C_3   0.992824 0.485580 0.084252 -0.016677
C4    C     C_3   0.098967 0.557811 0.057174 0.180738
C5    C     C_3   0.097269 0.558547 0.958826 -0.373590
C6    C     C_1   0.995610 0.488726 0.176534 0.042676
C7    C     C_1   0.992636 0.491927 0.824822 0.044670
C8    C     C_1   0.995268 0.495825 0.749084 -0.158041
C9    C     C_R   0.811255 0.202570 0.530307 -0.275511
C10   C     C_R   0.185975 0.797384 0.482000 -0.117197
C11   C     C_R   0.777056 0.030025 0.605717 -0.273507
C12   C     C_R   0.998905 0.499296 0.659663 0.823144
C13   C     C_R   0.846751 0.127203 0.578540 0.394904
C14   C     C_R   0.706229 0.175446 0.502286 0.296791
C15   C     C_R   0.635578 0.080696 0.537167 0.008422
C16   C     C_R   0.672641 0.006019 0.584778 0.036079
C17   C     C_R   0.529131 0.056692 0.523907 0.027132
C18   C     C_R   0.461322 0.953855 0.540244 0.090553
C19   C     C_R   0.501198 0.880803 0.586863 -0.168491
C20   C     C_R   0.604992 0.907494 0.610646 -0.141228
C21   C     C_R   0.488807 0.132689 0.501418 -0.267217
C22   C     C_R   0.384877 0.109035 0.482364 0.393527
C23   C     C_R   0.119631 0.688359 0.486003 0.823208
C24   C     C_R   0.316293 0.005955 0.480106 -0.013410
C25   C     C_R   0.355773 0.927861 0.511150 -0.014415
C26   C     C_R   0.210495 0.976428 0.448474 0.429477
C27   C     C_R   0.146841 0.873060 0.452076 -0.240383
C28   C     C_R   0.289623 0.825266 0.508854 -0.216336
C29   C     C_R   0.726546 0.683733 0.368518 0.320132
C30   C     C_R   0.802149 0.645191 0.384954 0.002556
C31   C     C_R   0.713941 0.509623 0.486962 0.093584
C32   C     C_R   0.636819 0.547217 0.479366 -0.077128
C33   C     C_R   0.643581 0.637142 0.417750 -0.038204
C34   C     C_R   0.999740 0.498520 0.340458 0.809098
C35   C     C_R   0.553472 0.498224 0.530093 -0.021871
C36   C     C_R   0.469529 0.529338 0.506095 -0.013623
C37   C     C_R   0.481185 0.620509 0.448516 -0.256641
C38   C     C_R   0.567943 0.676646 0.409025 0.419552
C39   C     C_R   0.553522 0.425607 0.607365 0.314447
C40   C     C_R   0.470666 0.385615 0.655142 0.416375
C41   C     C_R   0.378476 0.396993 0.618030 -0.075059
C42   C     C_R   0.378802 0.473169 0.545213 -0.087073
C43   C     C_R   0.287250 0.338339 0.654464 0.318815
C44   C     C_R   0.202432 0.362837 0.623472 -0.003320
C45   C     C_3   0.965613 0.376346 0.966623 0.204469
C46   C     C_R   0.288052 0.491481 0.515263 0.053993
C47   C     C_3   0.909003 0.524084 0.929002 0.102805
C48   C     C_3   0.913072 0.527182 0.027182 0.152318
C49   C     C_1   0.998009 0.493312 0.251620 -0.170761
C50   C     C_3   0.991339 0.487998 0.917564 -0.005782
Cu1   Cu    Cu3+1 0.081750 0.475690 0.522550 0.945253
Cu2   Cu    Cu3+1 0.918250 0.524310 0.477450 0.973646
H1    H     H_    0.033250 0.352801 0.101886 0.167580
H2    H     H_    0.113374 0.637342 0.065736 0.097495
H3    H     H_    0.632492 0.849836 0.647706 0.145894
H4    H     H_    0.317952 0.765193 0.525323 0.159830
H5    H     H_    0.066473 0.851910 0.428633 0.188119
H6    H     H_    0.804879 0.973235 0.644172 0.176610
H7    H     H_    0.886120 0.328070 0.940680 0.110634
H8    H     H_    0.453760 0.803332 0.609871 0.131219
H9    H     H_    0.537062 0.212106 0.503701 0.207523
H10   H     H_    0.281581 0.546407 0.458948 0.129693
H11   H     H_    0.133802 0.320568 0.653070 0.183895
H12   H     H_    0.867553 0.683047 0.350611 0.170747
H13   H     H_    0.711205 0.439498 0.526140 0.185770
H14   H     H_    0.426395 0.654905 0.438417 0.160052
H15   H     H_    0.833375 0.469015 0.903453 0.159300
H16   H     H_    0.936778 0.607658 0.037784 0.170341
H17   H     H_    0.156429 0.533482 0.950038 0.234815
H18   H     H_    0.117369 0.638204 0.924283 0.188228
N1    N     N_R   0.795410 0.560790 0.443550 -0.225689
N2    N     N_R   0.204590 0.439170 0.556520 -0.210077
O1    O     O_R   0.977910 0.338120 0.529720 -0.565450
O2    O     O_R   0.839850 0.379180 0.491640 -0.545830
O3    O     O_R   0.069060 0.479460 0.639610 -0.584040
O4    O     O_R   0.931000 0.520530 0.601530 -0.556233
O5    O     O_R   0.160150 0.620820 0.508360 -0.591712
O6    O     O_R   0.022090 0.661880 0.470280 -0.587552
O7    O     O_R   0.069000 0.479470 0.398470 -0.582400
O8    O     O_R   0.930940 0.520540 0.360390 -0.562888
O9    O     O_3   0.874642 0.304176 0.092839 -0.583157
C51   C     C_3   0.887050 0.244160 0.174577 0.067585
H19   H     H_    0.818828 0.222297 0.206149 0.168615
H20   H     H_    0.953207 0.286560 0.220619 0.129685
C52   C     C_3   0.895110 0.146534 0.161934 -0.395715
H21   H     H_    0.827632 0.103994 0.117301 0.242946
H22   H     H_    0.964222 0.166667 0.132062 0.225924
C53   C     C_3   0.901150 0.077896 0.249004 -0.768190
H23   H     H_    0.967872 0.119241 0.294813 0.267380
H24   H     H_    0.909309 0.008905 0.238250 0.299227
H25   H     H_    0.831031 0.053304 0.278812 0.266064
O10   O     O_3   0.037190 0.338212 0.956340 -0.603571
C54   C     C_3   0.998648 0.271005 0.892656 0.080617
H26   H     H_    0.063832 0.279091 0.862363 0.193809
H27   H     H_    0.943808 0.289818 0.838392 0.118155
C55   C     C_3   0.949944 0.160173 0.935315 -0.382628
H28   H     H_    0.004550 0.142671 0.990335 0.245184
H29   H     H_    0.881207 0.149602 0.961598 0.212822
C56   C     C_3   0.919900 0.085855 0.869702 -0.828708
H30   H     H_    0.866020 0.102178 0.813439 0.254288
H31   H     H_    0.882689 0.006361 0.901916 0.265201
H32   H     H_    0.988220 0.092169 0.845248 0.281317
Cl1   Cl    Cl    0.349430 0.214039 0.468790 -0.576656
O11   O     O_3   0.949280 0.148964 0.603811 -0.601068
C57   C     C_3   0.988239 0.126750 0.539563 0.140171
H33   H     H_    0.067886 0.182771 0.538520 0.181490
H34   H     H_    0.949339 0.139131 0.471634 0.121307
C58   C     C_3   0.990152 0.018957 0.563493 -0.340324
H35   H     H_    0.067155 0.023808 0.560234 0.244375
H36   H     H_    0.975020 0.986975 0.631795 0.243359
C59   C     C_3   0.913463 0.945292 0.501754 -0.793545
H37   H     H_    0.835141 0.938026 0.502478 0.267422
H38   H     H_    0.916682 0.868568 0.522480 0.255018
H39   H     H_    0.931716 0.972730 0.433992 0.283795
O12   O     O_3   0.673795 0.241977 0.439373 -0.608908
C60   C     C_3   0.661788 0.214591 0.356263 0.067855
H40   H     H_    0.605898 0.134417 0.352897 0.166360
H41   H     H_    0.735984 0.222567 0.341350 0.122992
C61   C     C_3   0.622290 0.286227 0.287903 -0.324262
H42   H     H_    0.550919 0.282619 0.304901 0.243017
H43   H     H_    0.679383 0.366043 0.288143 0.247888
C62   C     C_3   0.601057 0.257257 0.196540 -0.795826
H44   H     H_    0.671659 0.262495 0.177155 0.285074
H45   H     H_    0.572108 0.310571 0.148851 0.278887
H46   H     H_    0.542984 0.178200 0.194559 0.248768
Cl2   Cl    Cl    0.151596 0.061359 0.394633 -0.610788
Cl3   Cl    Cl    0.578517 0.800642 0.357920 -0.609762
O13   O     O_3   0.484208 0.339276 0.740606 -0.563448
C63   C     C_3   0.495501 0.405253 0.799788 0.090484
H47   H     H_    0.477469 0.357110 0.863545 0.202280
H48   H     H_    0.440997 0.443999 0.779975 0.125168
C64   C     C_3   0.604701 0.484842 0.813396 -0.362112
H49   H     H_    0.658289 0.445608 0.834427 0.250780
H50   H     H_    0.623748 0.536355 0.751221 0.236301
C65   C     C_3   0.618109 0.549623 0.882627 -0.793912
H51   H     H_    0.567286 0.592144 0.861819 0.232972
H52   H     H_    0.697928 0.605572 0.891760 0.305853
H53   H     H_    0.600434 0.500436 0.946035 0.281724
Cl4   Cl    Cl    0.740644 0.785366 0.281543 -0.585835
Cl5   Cl    Cl    0.921520 0.646443 0.865967 -0.634002
O14   O     O_3   0.642892 0.413890 0.648505 -0.624169
C66   C     C_3   0.630940 0.309629 0.663490 0.105163
H54   H     H_    0.662929 0.295628 0.612480 0.138063
H55   H     H_    0.550713 0.253320 0.661396 0.179728
C67   C     C_3   0.690708 0.287767 0.751975 -0.316236
H56   H     H_    0.769291 0.347094 0.756928 0.213510
H57   H     H_    0.653675 0.290266 0.805159 0.245386
C68   C     C_3   0.695688 0.182876 0.764110 -0.923602
H58   H     H_    0.618000 0.122213 0.757327 0.277008
H59   H     H_    0.735560 0.167702 0.830355 0.259426
H60   H     H_    0.738064 0.180472 0.714840 0.249959
Cl6   Cl    Cl    0.271395 0.229495 0.734367 -0.584885
Cl7   Cl    Cl    0.788563 0.461295 0.059074 -0.620218
O15   O     O_3   0.174555 0.522569 0.106935 -0.587631
C69   C     C_3   0.251967 0.596912 0.155320 0.095216
H61   H     H_    0.290440 0.556158 0.208497 0.184939
H62   H     H_    0.221234 0.636231 0.188078 0.120154
C70   C     C_3   0.330418 0.673896 0.097435 -0.428206
H63   H     H_    0.356201 0.632039 0.062960 0.245161
H64   H     H_    0.295363 0.720785 0.047628 0.215924
C71   C     C_3   0.422254 0.744595 0.151462 -0.744570
H65   H     H_    0.398337 0.786765 0.187206 0.264043
H66   H     H_    0.476635 0.800800 0.107687 0.267189
H67   H     H_    0.461244 0.699567 0.199012 0.286992

loop_
_geom_bond_atom_site_label_1
_geom_bond_atom_site_label_2
_ccdc_geom_bond_type
C10   C27   A    
C65   H53   S    
C4    O15   S    
C48   Cl7   S    
C54   H26   S    
C30   H12   S    
C69   H62   S    
C41   C42   A    
C36   C42   A    
C35   C36   A    
C68   H60   S    
C9    C14   A    
C3    C6    S    
O13   C63   S    
C67   C68   S    
C30   N1    A    
C28   H4    S    
C7    C8    T    
C52   H21   S    
C60   H40   S    
C25   C28   A    
C57   H34   S    
C26   C27   A    
C37   C38   A    
C46   H10   S    
C1    O2    A    
C36   C37   A    
C24   C26   A    
Cu2   O2    S    
C42   C46   A    
C52   C53   S    
C14   O12   S    
C40   O13   S    
C55   C56   S    
C29   C33   A    
C3    C48   S    
C58   H35   S    
C31   H13   S    
C18   C19   A    
C26   Cl2   S    
C45   O10   S    
C9    C13   A    
C5    H17   S    
C70   C71   S    
C67   H57   S    
C39   O14   S    
C58   H36   S    
C64   H49   S    
C55   H29   S    
C47   Cl5   S    
C47   C48   S    
C11   H6    S    
C21   H9    S    
C8    C12   S    
C63   C64   S    
C34   O8    A    
C23   O5    A    
C31   N1    A    
C6    C49   T    
C21   C22   A    
C55   H28   S    
C69   C70   S    
C70   H64   S    
C41   C43   A    
C66   C67   S    
C18   C25   A    
C20   H3    S    
Cu2   O6    S    
C47   H15   S    
O11   C57   S    
C71   H66   S    
C38   Cl3   S    
C47   C50   S    
C52   H22   S    
C44   H11   S    
C29   Cl4   S    
C57   C58   S    
C15   C16   A    
Cu1   Cu2   S    
C32   C35   A    
C65   H51   S    
C1    C9    S    
C24   C25   A    
C27   H5    S    
C39   C40   A    
C2    H1    S    
O9    C51   S    
C22   Cl1   S    
C35   C39   A    
C43   C44   A    
Cu1   O5    S    
C29   C30   A    
C34   O7    A    
C11   C16   A    
C56   H30   S    
C53   H25   S    
C16   C20   A    
C37   H14   S    
C17   C18   A    
C59   H38   S    
C48   H16   S    
C13   O11   S    
O15   C69   S    
C61   H43   S    
C68   H59   S    
C40   C41   A    
C56   H31   S    
C53   H24   S    
C54   C55   S    
C51   H20   S    
C12   O4    A    
C70   H63   S    
C10   C23   S    
C66   H55   S    
C5    C50   S    
Cu1   N2    S    
C62   H45   S    
C3    C4    S    
C67   H56   S    
C71   H67   S    
C63   H47   S    
C61   C62   S    
C10   C28   A    
C65   H52   S    
C45   H7    S    
C34   C49   S    
C59   H37   S    
C4    H2    S    
C14   C15   A    
C46   N2    A    
C31   C32   A    
Cu1   O1    S    
C7    C50   S    
Cu1   O3    S    
C4    C5    S    
Cu2   O4    S    
C5    H18   S    
C61   H42   S    
C58   C59   S    
C15   C17   A    
C19   H8    S    
C51   C52   S    
C57   H33   S    
C33   C38   A    
C60   C61   S    
C1    O1    A    
C32   C33   A    
C19   C20   A    
C2    C3    S    
Cu2   N1    S    
C71   H65   S    
O14   C66   S    
C11   C13   A    
C54   H27   S    
C45   C50   S    
C62   H46   S    
C64   C65   S    
O10   C54   S    
C60   H41   S    
C44   N2    A    
C59   H39   S    
C22   C24   A    
C68   H58   S    
C23   O6    A    
Cu1   O7    S    
C2    C45   S    
C56   H32   S    
C53   H23   S    
C64   H50   S    
C51   H19   S    
C12   O3    A    
C69   H61   S    
C66   H54   S    
C2    O9    S    
C62   H44   S    
Cu2   O8    S    
C43   Cl6   S    
O12   C60   S    
C63   H48   S    
C17   C21   A    
