data_mof_unit_13374.cif
_audit_creation_date              2012-12-10T17:34:57-0500
_audit_creation_method            fapswitch 2.2
_symmetry_space_group_name_H-M    P1
_symmetry_Int_Tables_number       1
_space_group_crystal_system       triclinic
_cell_length_a                    12.501791
_cell_length_b                    13.290418
_cell_length_c                    13.884117
_cell_angle_alpha                 108.315782
_cell_angle_beta                  73.342386
_cell_angle_gamma                 117.555448
_cell_volume                      1914.05411545

loop_
_atom_site_label
_atom_site_type_symbol
_atom_type_description
_atom_site_fract_x
_atom_site_fract_y
_atom_site_fract_z
_atom_type_partial_charge
C1    C     C_R   0.143964 0.713285 0.507773 0.774609
C2    C     C_1   0.970143 0.503631 0.791499 -0.120220
C3    C     C_R   0.729302 0.964372 0.375664 -0.194240
C4    C     C_R   0.772739 0.162260 0.469393 -0.070925
C5    C     C_R   0.179230 0.919921 0.572563 -0.192426
C6    C     C_R   0.257199 0.036629 0.593924 -0.139124
C7    C     C_R   0.382486 0.072065 0.559796 -0.134914
C8    C     C_R   0.432254 0.991093 0.498331 0.089423
C9    C     C_R   0.350285 0.874391 0.466082 0.128762
C10   C     C_R   0.560388 0.021422 0.468424 0.090234
C11   C     C_R   0.603485 0.937280 0.401929 0.163354
C12   C     C_R   0.982549 0.503244 0.686160 0.780486
C13   C     C_R   0.520803 0.827743 0.360834 -0.211744
C14   C     C_R   0.396043 0.797682 0.390330 -0.151799
C15   C     C_R   0.647405 0.132589 0.503211 -0.199550
C16   C     C_R   0.813540 0.076178 0.409829 -0.155922
C17   C     C_R   0.224887 0.837221 0.511736 -0.078071
C18   C     C_R   0.622471 0.642256 0.689955 -0.278873
C19   C     C_R   0.274108 0.377353 0.344179 0.205659
C20   C     C_R   0.390765 0.382139 0.301332 -0.321200
C21   C     C_R   0.481088 0.434720 0.360721 -0.108067
C22   C     C_R   0.455621 0.477252 0.466759 0.007798
C23   C     C_R   0.855947 0.285954 0.486567 0.812606
C24   C     C_R   0.342681 0.491639 0.505504 0.204547
C25   C     C_R   0.546265 0.519133 0.531185 -0.019190
C26   C     C_R   0.527649 0.582651 0.631623 0.114205
C27   C     C_R   0.417573 0.592928 0.671436 -0.212777
C28   C     C_R   0.334662 0.563953 0.607456 0.020112
C29   C     C_R   0.654117 0.497582 0.501769 0.129526
C30   C     C_R   0.734958 0.636085 0.648824 0.065686
C31   C     C_R   0.016480 0.495334 0.313658 0.801117
C32   C     C_1   0.027771 0.493153 0.208085 -0.116033
C33   C     C_2   0.042451 0.491060 0.014079 -0.000429
C34   C     C_2   0.953035 0.501217 0.984758 0.001039
C35   C     C_1   0.961562 0.502919 0.879667 -0.026666
C36   C     C_1   0.035303 0.491942 0.119602 -0.024595
Cu1   Cu    Cu3+1 0.899780 0.525060 0.522890 0.940733
Cu2   Cu    Cu3+1 0.100220 0.474940 0.477110 0.978927
H1    H     H_    0.610561 0.695426 0.766013 0.140840
H2    H     H_    0.571703 0.443079 0.321063 0.161585
H3    H     H_    0.412213 0.344195 0.220741 0.145136
H4    H     H_    0.909853 0.095620 0.386490 0.213876
H5    H     H_    0.552658 0.764712 0.305866 0.141604
H6    H     H_    0.762583 0.899761 0.326603 0.147026
H7    H     H_    0.083428 0.894070 0.606701 0.158583
H8    H     H_    0.220888 0.099687 0.640919 0.156943
N1    N     N_R   0.748810 0.563010 0.557590 -0.216274
N2    N     N_R   0.250540 0.437620 0.443020 -0.216153
O1    O     O_R   0.025040 0.682470 0.528790 -0.585372
O2    O     O_R   0.194310 0.640150 0.490130 -0.574396
O3    O     O_R   0.903380 0.524130 0.659910 -0.586450
O4    O     O_R   0.072660 0.481800 0.621240 -0.582265
O5    O     O_R   0.805690 0.359850 0.509870 -0.597188
O6    O     O_R   0.974960 0.317530 0.471210 -0.522542
O7    O     O_R   0.927340 0.518200 0.378760 -0.583203
O8    O     O_R   0.096620 0.475870 0.340090 -0.598826
C37   C     C_2   0.841662 0.511634 0.055381 0.342425
H9    H     H_    0.777650 0.523019 0.025377 0.065143
O9    O     O_2   0.818714 0.507100 0.145889 -0.556430
H10   H     H_    0.336187 0.713502 0.352638 0.154126
H11   H     H_    0.808359 0.682279 0.693532 0.128040
H12   H     H_    0.407316 0.644647 0.749007 0.154186
C38   C     C_2   0.652398 0.388962 0.427648 0.381760
H13   H     H_    0.728462 0.387577 0.367223 0.125954
O10   O     O_2   0.562360 0.297627 0.433188 -0.574471
C39   C     C_2   0.184048 0.312956 0.273979 0.435471
H14   H     H_    0.209680 0.325885 0.195723 0.017353
O11   O     O_2   0.084479 0.238673 0.299019 -0.562245
C40   C     C_2   0.295685 0.659551 0.636637 0.467337
H15   H     H_    0.219066 0.660316 0.697494 0.056958
O12   O     O_2   0.363217 0.748940 0.605868 -0.564517
C41   C     C_2   0.153245 0.479577 0.943265 0.332918
H16   H     H_    0.221483 0.476232 0.974627 0.064828
O13   O     O_2   0.170278 0.472910 0.850837 -0.551973
H17   H     H_    0.620353 0.199154 0.555473 0.164922
H18   H     H_    0.437077 0.163598 0.582176 0.163236

loop_
_geom_bond_atom_site_label_1
_geom_bond_atom_site_label_2
_ccdc_geom_bond_type
C2    C35   T    
C15   H17   S    
C29   C38   S    
C39   O11   D    
C28   C40   S    
C18   C26   A    
C9    C14   A    
C2    C12   S    
C38   O10   D    
C20   H3    S    
C7    C8    A    
C26   C27   A    
C29   N1    A    
C32   C36   T    
C10   C15   A    
C5    C6    A    
Cu1   O3    S    
C37   O9    D    
Cu2   O4    S    
C33   C36   S    
C19   C39   S    
C34   C35   S    
C40   O12   D    
C33   C41   S    
C19   C20   A    
C8    C9    A    
C22   C25   A    
C34   C37   S    
C18   C30   A    
C31   O8    A    
Cu1   N1    S    
C1    O2    A    
Cu2   N2    S    
Cu1   O5    S    
C39   H14   S    
C21   C22   A    
C12   O4    A    
C23   O5    A    
C25   C29   A    
C3    H6    S    
C24   N2    A    
C30   N1    A    
C41   O13   D    
C4    C23   S    
C19   N2    A    
C25   C26   A    
C5    H7    S    
C4    C16   A    
C18   H1    S    
Cu1   Cu2   S    
C27   H12   S    
Cu1   O1    S    
C31   C32   S    
Cu2   O6    S    
C33   C34   D    
Cu2   O8    S    
C6    C7    A    
C9    C17   A    
C22   C24   A    
C16   H4    S    
C13   H5    S    
C12   O3    A    
C23   O6    A    
C6    H8    S    
C24   C28   A    
C41   H16   S    
C7    H18   S    
Cu2   O2    S    
C14   H10   S    
C1    C17   S    
C4    C15   A    
C11   C13   A    
C37   H9    S    
C21   H2    S    
C40   H15   S    
C3    C11   A    
C10   C11   A    
C38   H13   S    
Cu1   O7    S    
C5    C17   A    
C20   C21   A    
C8    C10   A    
C30   H11   S    
C27   C28   A    
C31   O7    A    
C13   C14   A    
C1    O1    A    
C3    C16   A    
