data_mof_unit_54527.cif
_audit_creation_date              2012-12-10T17:42:10-0500
_audit_creation_method            fapswitch 2.2
_symmetry_space_group_name_H-M    P1
_symmetry_Int_Tables_number       1
_space_group_crystal_system       triclinic
_cell_length_a                    15.137716
_cell_length_b                    13.811239
_cell_length_c                    10.816231
_cell_angle_alpha                 90.798241
_cell_angle_beta                  87.900825
_cell_angle_gamma                 89.032206
_cell_volume                      2259.27655131

loop_
_atom_site_label
_atom_site_type_symbol
_atom_type_description
_atom_site_fract_x
_atom_site_fract_y
_atom_site_fract_z
_atom_type_partial_charge
C1    C     C_R   0.328851 0.500184 0.503927 0.813707
C2    C     C_3   0.603195 0.503600 0.919366 0.361968
C3    C     C_R   0.817813 0.442996 0.401676 0.254762
C4    C     C_R   0.768027 0.496919 0.492042 -0.112429
C5    C     C_R   0.811137 0.544278 0.586226 -0.193602
C6    C     C_R   0.902372 0.533437 0.594687 0.084934
C7    C     C_R   0.953348 0.492811 0.494743 -0.004253
C8    C     C_R   0.910397 0.454165 0.391891 -0.054431
C9    C     C_R   0.941507 0.554542 0.705848 -0.118791
C10   C     C_R   0.031329 0.534941 0.719720 -0.032691
C11   C     C_R   0.087043 0.515796 0.612104 0.033278
C12   C     C_R   0.500705 0.499515 0.259767 0.774077
C13   C     C_R   0.046471 0.489391 0.499622 0.015915
C14   C     C_R   0.097913 0.455702 0.394407 -0.061372
C15   C     C_R   0.053620 0.416732 0.290639 0.193245
C16   C     C_R   0.961231 0.422852 0.286733 0.308447
C17   C     C_R   0.180744 0.521517 0.612436 -0.070303
C18   C     C_R   0.231498 0.497273 0.504160 -0.142662
C19   C     C_R   0.191090 0.463288 0.396931 0.011324
C20   C     C_R   0.444806 0.796544 0.580553 0.407178
C21   C     C_R   0.443124 0.207648 0.579254 0.418210
C22   C     C_R   0.555584 0.791682 0.419410 -0.017497
C23   C     C_R   0.555579 0.204374 0.419881 0.035530
C24   C     C_R   0.557246 0.894596 0.417348 -0.007404
C25   C     C_R   0.557190 0.101550 0.417634 -0.020177
C26   C     C_R   0.671222 0.499005 0.495977 0.859313
C27   C     C_R   0.500796 0.948408 0.499600 0.071572
C28   C     C_R   0.500690 0.051749 0.499688 0.064200
C29   C     C_R   0.444119 0.899073 0.581934 -0.043489
C30   C     C_R   0.443464 0.105072 0.581564 -0.039797
C31   C     C_R   0.613676 0.945084 0.335348 -0.162436
C32   C     C_R   0.613672 0.047311 0.335523 -0.119580
C33   C     C_R   0.387653 0.054228 0.663627 -0.137814
C34   C     C_R   0.388001 0.953703 0.663865 -0.139570
C35   C     C_R   0.499644 0.500736 0.740038 0.855876
C36   C     C_3   0.465297 0.597053 0.074620 -0.425950
C37   C     C_3   0.444275 0.419570 0.070000 -0.296470
C38   C     C_3   0.453105 0.591631 0.934274 -0.367000
C39   C     C_3   0.458397 0.410402 0.929690 -0.421482
C40   C     C_3   0.604283 0.486763 0.065848 -0.129224
C41   C     C_3   0.505135 0.499491 0.121127 -0.003620
C42   C     C_3   0.504473 0.501829 0.877586 -0.003251
Cu1   Cu    Cu3+1 0.499990 0.597420 0.500010 1.005462
Cu2   Cu    Cu3+1 0.499990 0.402580 0.500010 1.070688
H1    H     H_    0.508547 0.658780 0.096245 0.203320
H2    H     H_    0.452038 0.347784 0.113088 0.261304
H3    H     H_    0.598900 0.749817 0.356466 0.137910
H4    H     H_    0.598278 0.243047 0.356718 0.213338
H5    H     H_    0.657851 0.905551 0.270957 0.161779
H6    H     H_    0.657871 0.083940 0.271280 0.185761
H7    H     H_    0.342801 0.090596 0.729587 0.203227
H8    H     H_    0.343121 0.920372 0.729741 0.205109
H9    H     H_    0.399934 0.613094 0.121803 0.191252
H10   H     H_    0.374219 0.441221 0.089457 0.192321
H11   H     H_    0.381507 0.585691 0.916100 0.204234
H12   H     H_    0.392639 0.402117 0.888733 0.208961
H13   H     H_    0.475216 0.660558 0.892845 0.253529
H14   H     H_    0.498520 0.344004 0.906352 0.249833
H15   H     H_    0.772689 0.580787 0.659727 0.211506
H16   H     H_    0.899784 0.575652 0.785775 0.220420
N1    N     N_R   0.499930 0.743810 0.499950 -0.204395
N2    N     N_R   0.499930 0.256190 0.499950 -0.208293
O1    O     O_R   0.370250 0.582280 0.500040 -0.557764
O2    O     O_R   0.370250 0.417720 0.500040 -0.505819
O3    O     O_R   0.499970 0.582270 0.317700 -0.623425
O4    O     O_R   0.499970 0.417730 0.317700 -0.526665
O5    O     O_R   0.629730 0.582260 0.499980 -0.585555
O6    O     O_R   0.629730 0.417740 0.499980 -0.532443
O7    O     O_R   0.500000 0.582270 0.682320 -0.541393
O8    O     O_R   0.500000 0.417730 0.682320 -0.547050
C43   C     C_2   0.060346 0.519890 0.847970 0.541925
H17   H     H_    0.114911 0.470534 0.865100 0.069773
O9    O     O_2   0.022783 0.561226 0.936095 -0.469043
C44   C     C_2   0.227690 0.558938 0.720767 0.380876
H18   H     H_    0.289112 0.524692 0.747068 0.056610
O10   O     O_2   0.200367 0.630941 0.777856 -0.484128
C45   C     C_2   0.247887 0.446294 0.284713 0.387397
H19   H     H_    0.241601 0.493347 0.205884 0.066536
O11   O     O_2   0.299249 0.377149 0.278587 -0.502354
Br1   Br    Br    0.111174 0.338870 0.158853 -0.380950
Br2   Br    Br    0.908644 0.407651 0.127007 -0.300920
Br3   Br    Br    0.366943 0.732936 0.694330 -0.486136
Br4   Br    Br    0.358689 0.276788 0.687062 -0.532013
C46   C     C_2   0.664593 0.558837 0.128460 0.361351
H20   H     H_    0.638059 0.615345 0.190198 0.075867
O12   O     O_2   0.744466 0.556258 0.107585 -0.456291
C47   C     C_2   0.644429 0.387036 0.092556 0.457540
H21   H     H_    0.713830 0.373134 0.069145 0.202686
O13   O     O_2   0.602612 0.321510 0.139287 -0.560909
Br5   Br    Br    0.655599 0.627909 0.868754 -0.479091
Br6   Br    Br    0.676914 0.408155 0.821992 -0.469861
Br7   Br    Br    0.766136 0.330438 0.328575 -0.464253

loop_
_geom_bond_atom_site_label_1
_geom_bond_atom_site_label_2
_ccdc_geom_bond_type
C47   H21   S    
C20   Br3   S    
C27   C29   A    
C40   C46   S    
Cu2   O4    S    
C24   C27   A    
C6    C9    A    
Cu1   O1    S    
C7    C8    A    
C45   H19   S    
Cu2   O2    S    
C25   C28   A    
C1    C18   S    
C44   O10   D    
C26   O5    A    
C40   C47   S    
C46   O12   D    
C38   C42   S    
C5    C6    A    
C15   C16   A    
C2    Br5   S    
C18   C19   A    
C8    C16   A    
C20   N1    A    
C19   C45   S    
C35   C42   S    
C36   H9    S    
C23   N2    A    
C38   H11   S    
C39   H12   S    
C35   O8    A    
Cu2   O8    S    
C9    C10   A    
C10   C43   S    
C25   C32   A    
C22   H3    S    
Cu1   O7    S    
C13   C14   A    
C36   C41   S    
C31   H5    S    
C1    O1    A    
C33   C34   A    
C39   C42   S    
C20   C29   A    
C45   O11   D    
C44   H18   S    
C5    H15   S    
C21   Br4   S    
C46   H20   S    
C3    C8    A    
C43   O9    D    
Cu2   N2    S    
C39   H14   S    
C12   O4    A    
C29   C34   A    
C3    Br7   S    
Cu1   Cu2   S    
C12   C41   S    
C38   H13   S    
C31   C32   A    
Cu1   O3    S    
C17   C18   A    
C36   H1    S    
C32   H6    S    
C21   N2    A    
C37   H10   S    
C40   C41   S    
C47   O13   D    
C17   C44   S    
C22   C24   A    
Cu2   O6    S    
C3    C4    A    
C1    O2    A    
Cu1   N1    S    
C12   O3    A    
C11   C17   A    
C23   H4    S    
C30   C33   A    
C14   C19   A    
C4    C5    A    
C4    C26   S    
C6    C7    A    
C33   H7    S    
C21   C30   A    
C34   H8    S    
C9    H16   S    
C26   O6    A    
C36   C38   S    
C24   C31   A    
C43   H17   S    
C37   C39   S    
C22   N1    A    
C11   C13   A    
C2    C42   S    
C28   C30   A    
C16   Br2   S    
C23   C25   A    
C37   C41   S    
C2    Br6   S    
C15   Br1   S    
C10   C11   A    
C2    C40   S    
C7    C13   A    
C35   O7    A    
Cu1   O5    S    
C27   C28   A    
C14   C15   A    
C37   H2    S    
