data_mof_unit_59815.cif
_audit_creation_date              2012-12-11T17:00:24-0500
_audit_creation_method            fapswitch 2.2
_symmetry_space_group_name_H-M    P1
_symmetry_Int_Tables_number       1
_space_group_crystal_system       triclinic
_cell_length_a                    6.945874
_cell_length_b                    13.566612
_cell_length_c                    20.26863
_cell_angle_alpha                 103.104939
_cell_angle_beta                  89.799207
_cell_angle_gamma                 90.884439
_cell_volume                      1859.98945991

loop_
_atom_site_label
_atom_site_type_symbol
_atom_type_description
_atom_site_fract_x
_atom_site_fract_y
_atom_site_fract_z
_atom_type_partial_charge
O1    O     O_R   0.506770 0.599700 0.449550 -0.536932
O2    O     O_R   0.179980 0.595740 0.587960 -0.551559
O3    O     O_R   0.004580 0.400300 0.550450 -0.542512
C1    C     C_R   0.348541 0.617702 0.614977 0.704855
O4    O     O_R   0.177380 0.611700 0.452380 -0.538332
O5    O     O_R   0.001970 0.416370 0.413900 -0.534494
C2    C     C_R   0.347425 0.638894 0.436376 0.699887
O6    O     O_R   0.509390 0.583630 0.586100 -0.538552
O7    O     O_3   0.337530 0.435890 0.487530 -0.359791
V1    V     V_3+5 0.064660 0.511890 0.502310 1.460102
O8    O     O_R   0.671950 0.404260 0.412040 -0.522399
C3    C     C_R   0.840237 0.383074 0.384761 0.724122
O9    O     O_R   0.674540 0.388300 0.547620 -0.539304
C4    C     C_R   0.841950 0.361752 0.564556 0.699465
V2    V     V_3+5 0.564030 0.488110 0.497690 1.488880
O10   O     O_3   0.841030 0.564110 0.512470 -0.373861
C5    C     C_R   0.785184 0.104845 0.607468 0.426529
C6    C     C_R   0.844498 0.280247 0.601436 -0.149887
C7    C     C_R   0.911996 0.314443 0.927011 -0.163758
C8    C     C_R   0.926600 0.389148 0.890430 -0.122810
C9    C     C_R   0.902185 0.365106 0.820391 -0.130760
C10   C     C_R   0.859804 0.264422 0.784621 0.114489
C11   C     C_R   0.837814 0.189154 0.822992 0.017338
C12   C     C_R   0.841413 0.236126 0.712308 -0.055287
C13   C     C_R   0.798249 0.133375 0.679514 -0.029808
C14   C     C_R   0.768076 0.061002 0.719346 0.456976
C15   C     C_R   0.789458 0.089657 0.789800 -0.313944
C16   C     C_R   0.864080 0.307442 0.671645 -0.245265
C17   C     C_R   0.807300 0.178582 0.568465 0.224955
C18   C     C_R   0.867421 0.214689 0.894233 -0.058887
H1    H     H_    0.918635 0.427614 0.796236 0.103295
H2    H     H_    0.960133 0.466367 0.916455 0.123827
H3    H     H_    0.767744 0.032417 0.818699 0.132379
C19   C     C_R   0.746268 0.266109 0.198789 -0.020629
C20   C     C_R   0.867622 0.182334 0.184724 -0.226208
C21   C     C_R   0.995335 0.170510 0.237503 0.349682
C22   C     C_R   0.987809 0.238340 0.301701 -0.109812
C23   C     C_R   0.850844 0.315635 0.316451 -0.167369
C24   C     C_R   0.737177 0.330125 0.262754 -0.034883
C25   C     C_3   0.526035 0.346699 0.256377 0.216708
C26   C     C_3   0.536301 0.276555 0.185706 0.123325
H4    H     H_    0.491582 0.426642 0.256885 0.130437
C27   C     C_R   0.484132 0.673939 0.732648 0.091677
C28   C     C_R   0.352323 0.685628 0.683233 -0.168322
C29   C     C_R   0.209181 0.759144 0.702695 -0.154822
C30   C     C_R   0.212803 0.827167 0.766649 0.341322
C31   C     C_R   0.355288 0.817577 0.815265 -0.207809
C32   C     C_R   0.484469 0.737350 0.796926 0.074465
C33   C     C_3   0.699137 0.736317 0.801167 -0.370609
C34   C     C_3   0.698220 0.667521 0.730510 -0.393337
H5    H     H_    0.749273 0.697965 0.840835 0.176587
H6    H     H_    0.748521 0.589816 0.729557 0.156479
C35   C     C_R   0.441148 0.890091 0.392034 -0.121897
H7    H     H_    0.480548 0.967165 0.417029 0.157972
C36   C     C_R   0.362031 0.718980 0.399139 -0.143212
C37   C     C_R   0.302077 0.687936 0.073018 0.310502
C38   C     C_R   0.278247 0.613768 0.110269 -0.171894
C39   C     C_R   0.301156 0.637449 0.180098 -0.165915
C40   C     C_R   0.351207 0.736730 0.215964 0.034814
C41   C     C_R   0.382596 0.812957 0.178302 -0.049984
C42   C     C_R   0.370204 0.762266 0.288103 0.083764
C43   C     C_R   0.422181 0.862526 0.321285 0.007064
C44   C     C_R   0.457222 0.935233 0.284083 -0.207330
C45   C     C_R   0.440259 0.912283 0.213457 0.340126
C46   C     C_R   0.339975 0.691491 0.328786 -0.239981
C47   C     C_R   0.411722 0.819556 0.431524 0.357629
C48   C     C_R   0.353748 0.787099 0.106548 -0.129834
H8    H     H_    0.278171 0.575327 0.204208 0.136320
H9    H     H_    0.239524 0.536781 0.085115 0.130863
O11   O     O_R   0.203450 0.916320 0.913910 -0.536163
O12   O     O_R   0.535520 0.888300 0.047620 -0.527658
O13   O     O_R   0.710860 0.083650 0.086100 -0.531709
C49   C     C_R   0.365970 0.862904 0.065305 0.883285
O14   O     O_R   0.532860 0.904250 0.912040 -0.545629
O15   O     O_R   0.708190 0.099710 0.949550 -0.546964
C50   C     C_R   0.364504 0.884967 0.884024 0.704244
O16   O     O_R   0.206120 0.900260 0.050460 -0.542576
O17   O     O_3   0.375280 0.064080 0.012470 -0.378255
V3    V     V_3+5 0.648180 0.988110 0.997690 1.464870
O18   O     O_R   0.038220 0.111740 0.952370 -0.545284
C51   C     C_R   0.870723 0.137430 0.934706 0.681740
O19   O     O_R   0.040880 0.095790 0.087940 -0.536451
C52   C     C_R   0.872825 0.115577 0.115759 0.712769
V4    V     V_3+5 0.148800 0.011950 0.002300 1.470227
O20   O     O_3   0.871820 0.935920 0.987530 -0.369877
O21   O     O_3   0.788698 0.148536 0.498701 -0.658884
H10   H     H_    0.830282 0.203640 0.476961 0.275808
H11   H     H_    0.081919 0.226275 0.341572 0.157829
O22   O     O_3   0.413229 0.307039 0.302350 -0.637684
H12   H     H_    0.454047 0.236619 0.300669 0.289879
O23   O     O_3   0.507292 0.329323 0.134719 -0.644103
H13   H     H_    0.520882 0.278764 0.091194 0.299916
H14   H     H_    0.449851 0.205176 0.178961 0.138009
H15   H     H_    0.101165 0.768875 0.666343 0.162389
O24   O     O_3   0.083505 0.905244 0.777053 -0.652761
H16   H     H_    0.139931 0.964332 0.809330 0.286137
H17   H     H_    0.765822 0.811859 0.803282 0.202711
O25   O     O_3   0.716575 0.962209 0.688969 -0.587831
H18   H     H_    0.694897 0.922674 0.723965 0.296621
H19   H     H_    0.763113 0.703560 0.691424 0.193318
O26   O     O_3   0.434151 0.852310 0.500826 -0.615877
H20   H     H_    0.399585 0.797152 0.523500 0.285104
H21   H     H_    0.499009 0.011338 0.310436 0.124296
H22   H     H_    0.302557 0.613419 0.307667 0.114088
O27   O     O_3   0.275766 0.665479 0.003568 -0.660744
H23   H     H_    0.239979 0.592867 0.987981 0.282491
O28   O     O_3   0.481570 0.986623 0.178685 -0.647274
H24   H     H_    0.527107 0.049117 0.210656 0.280793
O29   O     O_3   0.751500 0.004166 0.576265 -0.578039
H25   H     H_    0.753615 0.994062 0.526386 0.350660
H26   H     H_    0.891754 0.386505 0.692973 0.117883
H27   H     H_    0.936598 0.334371 0.981224 0.114115
O30   O     O_3   0.120902 0.091051 0.230641 -0.646647
H28   H     H_    0.079395 0.035852 0.192346 0.296380

loop_
_geom_bond_atom_site_label_1
_geom_bond_atom_site_label_2
_ccdc_geom_bond_type
O26   H20   S    
C5    C17   A    
C4    C6    S    
C22   H11   S    
O24   H16   S    
C2    C36   S    
C1    O6    A    
O12   V3    S    
C7    H27   S    
C15   H3    S    
C9    H1    S    
C14   C15   A    
C22   C23   A    
O14   C50   A    
C21   C22   A    
C31   C50   S    
O13   V3    S    
O5    C3    A    
C23   C24   A    
C21   O30   S    
V2    O10   S    
O25   H18   S    
C37   C38   A    
C19   C20   A    
O8    V2    S    
C26   H14   S    
C30   O24   S    
C7    C8    A    
C41   C48   A    
C33   H5    S    
C34   H6    S    
O28   H24   S    
C48   C49   S    
C11   C15   A    
C25   O22   S    
O11   V4    S    
C27   C32   A    
O18   V4    S    
C25   H4    S    
C40   C41   A    
O1    C2    A    
O9    C4    A    
C3    C23   S    
C47   O26   S    
C19   C26   S    
C29   H15   S    
C36   C46   A    
C8    H2    S    
C16   H26   S    
C40   C42   A    
C19   C24   A    
C11   C18   A    
C6    C16   A    
C12   C13   A    
C44   H21   S    
O23   H13   S    
O12   C49   A    
C20   C52   S    
O17   V3    S    
O15   C51   A    
C1    C28   S    
O16   V4    S    
C39   C40   A    
C29   C30   A    
C20   C21   A    
O2    C1    A    
C27   C28   A    
C43   C44   A    
O17   V4    S    
C35   C43   A    
C31   C32   A    
C6    C17   A    
V4    O20   S    
C35   C47   A    
C17   O21   S    
O3    C4    A    
C14   O25   S    
O1    V2    S    
C39   H8    S    
C32   C33   S    
C26   O23   S    
O19   C52   A    
O6    V2    S    
O19   V4    S    
O14   V3    S    
O9    V2    S    
O11   C50   A    
C10   C12   A    
O2    V1    S    
V3    O20   S    
C36   C47   A    
C28   C29   A    
C45   O28   S    
O4    C2    A    
O30   H28   S    
O7    V1    S    
C30   C31   A    
C25   C26   S    
O21   H10   S    
C12   C16   A    
O18   C51   A    
C5    O29   S    
O5    V1    S    
O8    C3    A    
C27   C34   S    
C35   H7    S    
C37   C48   A    
O27   H23   S    
C34   H19   S    
C41   C45   A    
C5    C13   A    
C18   C51   S    
C13   C14   A    
O4    V1    S    
O3    V1    S    
V1    O10   S    
O29   H25   S    
C38   C39   A    
O7    V2    S    
C42   C43   A    
C37   O27   S    
O13   C52   A    
C33   H17   S    
C44   C45   A    
C24   C25   S    
C42   C46   A    
C8    C9    A    
C33   C34   S    
C49   O16   A    
C10   C11   A    
C46   H22   S    
C38   H9    S    
O22   H12   S    
C9    C10   A    
C7    C18   A    
O15   V3    S    
