data_mof_unit_52350.cif
_audit_creation_date              2012-12-10T18:25:11-0500
_audit_creation_method            fapswitch 2.2
_symmetry_space_group_name_H-M    P1
_symmetry_Int_Tables_number       1
_space_group_crystal_system       triclinic
_cell_length_a                    19.392832
_cell_length_b                    15.884001
_cell_length_c                    14.626024
_cell_angle_alpha                 90.81458
_cell_angle_beta                  89.75713
_cell_angle_gamma                 89.972274
_cell_volume                      4504.84200615

loop_
_atom_site_label
_atom_site_type_symbol
_atom_type_description
_atom_site_fract_x
_atom_site_fract_y
_atom_site_fract_z
_atom_type_partial_charge
C1    C     C_R   0.499961 0.339432 0.499370 0.826388
C2    C     C_R   0.500039 0.660567 0.500630 0.826388
C3    C     C_3   0.510828 0.975366 0.584341 0.541767
C4    C     C_3   0.489173 0.024634 0.415659 0.541768
C5    C     C_3   0.561998 0.029099 0.529136 -0.302767
C6    C     C_3   0.438003 0.970901 0.470864 -0.302762
C7    C     C_1   0.499896 0.249813 0.497943 -0.171360
C8    C     C_1   0.500105 0.750187 0.502057 -0.171359
C9    C     C_3   0.449036 0.029805 0.555356 -0.299160
C10   C     C_3   0.550965 0.970195 0.444644 -0.299165
C11   C     C_3   0.499990 0.082825 0.498548 0.074558
C12   C     C_3   0.500011 0.917175 0.501452 0.074559
C13   C     C_1   0.499883 0.174349 0.497444 0.004214
C14   C     C_1   0.500118 0.825651 0.502556 0.004214
C15   C     C_3   0.521008 0.573738 0.971066 0.558031
C16   C     C_3   0.478992 0.426262 0.028934 0.558032
C17   C     C_3   0.456811 0.560656 0.032193 -0.283096
C18   C     C_3   0.543188 0.439344 0.967807 -0.283095
C19   C     C_3   0.564819 0.514708 0.030753 -0.301465
C20   C     C_3   0.435181 0.485292 0.969246 -0.301466
C21   C     C_3   0.500201 0.500210 0.091597 -0.029063
C22   C     C_3   0.499798 0.499790 0.908403 -0.029061
C23   C     C_R   0.367154 0.499878 0.500262 0.811283
C24   C     C_R   0.632846 0.500122 0.499738 0.811283
C25   C     C_1   0.500041 0.499947 0.194191 0.184111
C26   C     C_1   0.499959 0.500053 0.805809 0.184111
C27   C     C_R   0.255343 0.499501 0.584536 -0.271439
C28   C     C_R   0.744657 0.500498 0.415464 -0.271439
C29   C     C_R   0.183227 0.497496 0.586412 0.461753
C30   C     C_R   0.816773 0.502504 0.413588 0.461753
C31   C     C_R   0.146121 0.498140 0.503409 -0.037938
C32   C     C_R   0.853879 0.501860 0.496591 -0.037939
C33   C     C_R   0.182647 0.497486 0.420171 -0.226476
C34   C     C_R   0.817353 0.502514 0.579829 -0.226476
C35   C     C_R   0.254425 0.497864 0.419045 -0.184834
C36   C     C_R   0.745575 0.502136 0.580955 -0.184834
C37   C     C_R   0.291346 0.499175 0.501174 -0.095746
C38   C     C_R   0.708654 0.500825 0.498826 -0.095746
C39   C     C_R   0.930042 0.501093 0.498012 0.410301
C40   C     C_R   0.069957 0.498907 0.501988 0.410301
Cu1   Cu    Cu3+1 0.500010 0.500000 0.590220 0.984191
Cu2   Cu    Cu3+1 0.499990 0.500000 0.409780 0.984191
H1    H     H_    0.282937 0.500881 0.648789 0.168195
H2    H     H_    0.717063 0.499118 0.351211 0.168195
H3    H     H_    0.382150 0.472753 0.944289 0.145559
H4    H     H_    0.617850 0.527247 0.055711 0.145560
H5    H     H_    0.155740 0.497577 0.355444 0.173978
H6    H     H_    0.844260 0.502423 0.644556 0.173978
H7    H     H_    0.280958 0.497555 0.353730 0.168613
H8    H     H_    0.719042 0.502445 0.646270 0.168613
H9    H     H_    0.612252 0.054089 0.553352 0.150518
H10   H     H_    0.387748 0.945911 0.446648 0.150520
H11   H     H_    0.591994 0.944666 0.398921 0.149112
H12   H     H_    0.408006 0.055334 0.601080 0.149114
H13   H     H_    0.422127 0.611271 0.058208 0.149956
H14   H     H_    0.577873 0.388729 0.941792 0.149957
N1    N     N_R   0.033000 0.521707 0.577316 -0.169227
N2    N     N_R   0.967000 0.478293 0.422684 -0.169226
N3    N     N_R   0.964468 0.522626 0.575455 -0.254726
N4    N     N_R   0.035531 0.477373 0.424545 -0.254726
N5    N     N_1   0.499980 0.500000 0.274190 -0.159036
N6    N     N_1   0.500020 0.500000 0.725810 -0.159035
O1    O     O_R   0.500010 0.379080 0.576170 -0.583068
O2    O     O_R   0.499990 0.620920 0.423830 -0.583068
O3    O     O_R   0.500000 0.379080 0.423800 -0.551738
O4    O     O_R   0.500000 0.620920 0.576200 -0.551739
O5    O     O_R   0.400150 0.499990 0.576210 -0.581948
O6    O     O_R   0.599850 0.500010 0.423790 -0.581948
O7    O     O_R   0.400140 0.499990 0.423840 -0.577253
O8    O     O_R   0.599860 0.500010 0.576160 -0.577253
O9    O     O_3   0.149494 0.498449 0.669839 -0.563578
C41   C     C_3   0.147528 0.415508 0.703180 0.061145
H15   H     H_    0.200464 0.392554 0.718498 0.131539
H16   H     H_    0.122593 0.371745 0.653022 0.140390
C42   C     C_3   0.105489 0.414524 0.791157 -0.741286
H17   H     H_    0.052047 0.436190 0.777801 0.260027
H18   H     H_    0.103607 0.349569 0.818146 0.191202
H19   H     H_    0.129447 0.456732 0.843206 0.246641
O10   O     O_3   0.850506 0.501551 0.330161 -0.563578
C43   C     C_3   0.852471 0.584492 0.296820 0.061145
H20   H     H_    0.877407 0.628255 0.346978 0.140390
H21   H     H_    0.799536 0.607446 0.281502 0.131539
C44   C     C_3   0.894511 0.585476 0.208843 -0.741287
H22   H     H_    0.870553 0.543267 0.156794 0.246641
H23   H     H_    0.896393 0.650431 0.181854 0.191202
H24   H     H_    0.947953 0.563810 0.222199 0.260027
O11   O     O_3   0.521767 0.943701 0.672752 -0.599179
C45   C     C_3   0.532289 0.011433 0.734622 0.053530
H25   H     H_    0.487056 0.054703 0.735567 0.134401
H26   H     H_    0.579555 0.047154 0.715896 0.139520
C46   C     C_3   0.541668 0.976767 0.830611 -0.307954
H27   H     H_    0.494471 0.941810 0.850719 0.223752
H28   H     H_    0.586089 0.932535 0.830524 0.231761
C47   C     C_3   0.554804 0.047154 0.900483 -0.952370
H29   H     H_    0.602222 0.082478 0.882310 0.262141
H30   H     H_    0.561801 0.019742 0.969240 0.266259
H31   H     H_    0.510348 0.091205 0.903122 0.257232
O12   O     O_3   0.478233 0.056300 0.327248 -0.599179
C48   C     C_3   0.467718 0.988567 0.265377 0.053524
H32   H     H_    0.420459 0.952835 0.284105 0.139519
H33   H     H_    0.512957 0.945308 0.264427 0.134407
C49   C     C_3   0.458328 0.023234 0.169391 -0.307954
H34   H     H_    0.413901 0.067456 0.169483 0.231762
H35   H     H_    0.505519 0.058202 0.149280 0.223756
C50   C     C_3   0.445201 0.952847 0.099516 -0.952391
H36   H     H_    0.489664 0.908809 0.096868 0.257235
H37   H     H_    0.438192 0.980259 0.030762 0.266261
H38   H     H_    0.397792 0.917508 0.117694 0.262144
O13   O     O_3   0.542046 0.651807 0.935612 -0.571021
C51   C     C_3   0.564799 0.704746 0.007628 0.067615
H39   H     H_    0.613834 0.680572 0.036493 0.139475
H40   H     H_    0.525383 0.710480 0.063012 0.132469
C52   C     C_3   0.578088 0.792240 0.970782 -0.785802
H41   H     H_    0.529381 0.818826 0.943966 0.250750
H42   H     H_    0.597606 0.834149 0.026294 0.193093
H43   H     H_    0.617042 0.789132 0.914950 0.256060
O14   O     O_3   0.457954 0.348193 0.064387 -0.571021
C53   C     C_3   0.435199 0.295254 0.992371 0.067612
H44   H     H_    0.474613 0.289524 0.936984 0.132466
H45   H     H_    0.386162 0.319428 0.963511 0.139477
C54   C     C_3   0.421914 0.207759 0.029216 -0.785801
H46   H     H_    0.382962 0.210864 0.085050 0.256061
H47   H     H_    0.402395 0.165851 0.973704 0.193095
H48   H     H_    0.470622 0.181175 0.056028 0.250748

loop_
_geom_bond_atom_site_label_1
_geom_bond_atom_site_label_2
_ccdc_geom_bond_type
O11   C45   S    
C16   C21   S    
C40   N4    A    
C4    O12   S    
C27   C29   A    
Cu1   Cu2   S    
C23   O7    A    
C6    C9    S    
C19   H4    S    
C24   O8    A    
Cu1   O5    S    
C15   C19   S    
C50   H37   S    
C35   C37   A    
C5    C11   S    
C43   C44   S    
C6    C12   S    
N1    N3    A    
N2    N4    A    
C17   C20   S    
C31   C40   S    
C49   C50   S    
C18   C19   S    
C32   C39   S    
C23   O5    A    
C10   H11   S    
C15   O13   S    
C51   H39   S    
C54   H48   S    
C3    C12   S    
C53   H44   S    
C15   C22   S    
C48   H32   S    
C35   H7    S    
Cu2   O3    S    
C1    O3    A    
C31   C33   A    
C17   H13   S    
C20   H3    S    
C44   H23   S    
C18   H14   S    
C52   H43   S    
C1    C7    S    
Cu2   O6    S    
C47   H29   S    
Cu1   N6    S    
C41   C42   S    
C1    O1    A    
C2    O2    A    
C53   H45   S    
C50   H38   S    
C3    O11   S    
C43   H21   S    
C46   H27   S    
C41   H15   S    
C47   H31   S    
C3    C5    S    
C23   C37   S    
C39   N2    A    
C28   H2    S    
Cu2   O7    S    
C17   C21   S    
C52   H42   S    
C53   C54   S    
C32   C34   A    
C47   H30   S    
C42   H17   S    
C3    C9    S    
C46   H28   S    
C9    C11   S    
C24   C38   S    
C44   H22   S    
C51   C52   S    
C45   C46   S    
C28   C38   A    
C16   C20   S    
C39   N3    A    
C48   C49   S    
C25   N5    T    
C4    C11   S    
C49   H35   S    
C42   H18   S    
Cu2   N5    S    
C54   H46   S    
C10   C12   S    
C30   O10   S    
C41   H16   S    
C48   H33   S    
C20   C22   S    
C33   H5    S    
C4    C6    S    
C34   H6    S    
Cu1   O1    S    
C4    C10   S    
Cu2   O2    S    
C36   H8    S    
C52   H41   S    
C15   C17   S    
C21   C25   S    
C8    C14   T    
C40   N1    A    
C19   C21   S    
C18   C22   S    
C2    C8    S    
C45   H26   S    
C43   H20   S    
C2    O4    A    
Cu1   O4    S    
C50   H36   S    
O14   C53   S    
C28   C30   A    
C12   C14   S    
C5    C10   S    
C29   C31   A    
C16   O14   S    
C46   C47   S    
C30   C32   A    
C11   C13   S    
C27   C37   A    
C36   C38   A    
C33   C35   A    
C34   C36   A    
C26   N6    T    
C49   H34   S    
C42   H19   S    
C51   H40   S    
C54   H47   S    
C24   O6    A    
O10   C43   S    
C27   H1    S    
C7    C13   T    
C44   H24   S    
O9    C41   S    
C45   H25   S    
C16   C18   S    
O12   C48   S    
C22   C26   S    
C5    H9    S    
C9    H12   S    
C6    H10   S    
O13   C51   S    
Cu1   O8    S    
C29   O9    S    
