data_mof_unit_35819.cif
_audit_creation_date              2012-10-26T19:21:34-0400
_audit_creation_method            fapswitch 2.2
_symmetry_space_group_name_H-M    P1
_symmetry_Int_Tables_number       1
_space_group_crystal_system       triclinic
_cell_length_a                    9.887723
_cell_length_b                    11.056226
_cell_length_c                    15.823893
_cell_angle_alpha                 94.266923
_cell_angle_beta                  80.291614
_cell_angle_gamma                 112.364686
_cell_volume                      1576.75177583

loop_
_atom_site_label
_atom_site_type_symbol
_atom_type_description
_atom_site_fract_x
_atom_site_fract_y
_atom_site_fract_z
_atom_type_partial_charge
C1    C     C_R   0.558280 0.746401 0.505715 0.533816
C2    C     C_2   0.483159 0.056154 0.510923 0.232472
C3    C     C_2   0.913491 0.475956 0.505919 0.025099
C4    C     C_2   0.074288 0.501563 0.512146 0.022926
C5    C     C_R   0.411708 0.482664 0.662168 0.533900
C6    C     C_R   0.587981 0.515392 0.337523 0.536716
C7    C     C_R   0.356480 0.450935 0.752631 -0.002532
C8    C     C_R   0.640424 0.535529 0.245304 -0.013649
C9    C     C_R   0.164787 0.324987 0.862889 -0.128244
C10   C     C_R   0.823487 0.648748 0.127217 -0.128527
C11   C     C_R   0.210744 0.366467 0.778449 -0.147887
C12   C     C_R   0.444053 0.254575 0.490648 0.556979
C13   C     C_R   0.781939 0.623706 0.214697 -0.152198
C14   C     C_R   0.455980 0.491606 0.811508 -0.087118
C15   C     C_R   0.541534 0.473407 0.187973 -0.101691
C16   C     C_R   0.414907 0.443211 0.895479 0.001891
C17   C     C_R   0.573782 0.508084 0.100865 -0.020944
C18   C     C_R   0.264313 0.366607 0.922810 0.029676
C19   C     C_R   0.721592 0.590516 0.069599 0.011468
C20   C     C_R   0.519162 0.475277 0.953550 -0.067547
C21   C     C_R   0.466810 0.459782 0.043088 -0.062325
C22   C     C_3   0.968605 0.308544 0.053261 0.020159
C23   C     C_R   0.310713 0.396301 0.070104 0.078536
C24   C     C_3   0.815289 0.200950 0.072855 -0.263684
C25   C     C_3   0.694601 0.256857 0.093189 -0.466686
C26   C     C_3   0.923169 0.811855 0.940655 0.005783
C27   C     C_3   0.889052 0.831183 0.852592 -0.229294
C28   C     C_3   0.901883 0.971040 0.841656 -0.476502
C29   C     C_2   0.239944 0.406147 0.158288 0.561337
C30   C     C_2   0.740647 0.477961 0.843512 0.583116
C31   C     C_3   0.444877 0.035925 0.657947 -0.000003
C32   C     C_3   0.382116 0.119871 0.721113 -0.244625
C33   C     C_3   0.325171 0.056623 0.809195 -0.461930
C34   C     C_R   0.674563 0.525776 0.924780 0.034813
C35   C     C_3   0.542793 0.896356 0.331581 0.002307
C36   C     C_3   0.472261 0.807153 0.259816 -0.213590
C37   C     C_3   0.571437 0.843069 0.173217 -0.470767
C38   C     C_2   0.327311 0.056755 0.401080 0.587394
C39   C     C_2   0.721636 0.973641 0.553261 0.571762
C40   C     C_2   0.096157 0.352991 0.399204 0.717245
C41   C     C_2   0.914826 0.670321 0.581333 0.715455
C42   C     C_R   0.213941 0.338765 0.009901 0.240305
C43   C     C_R   0.769106 0.604572 0.980878 0.243172
C44   C     C_2   0.592811 0.888080 0.511682 0.018237
C45   C     C_2   0.418212 0.117289 0.469938 0.045550
C46   C     C_2   0.510166 0.936763 0.475124 0.221851
Cu1   Cu    Cu3+1 0.362980 0.479380 0.485080 1.035860
Cu2   Cu    Cu3+1 0.637020 0.520620 0.514920 1.070389
H1    H     H_    0.443229 0.393032 0.212805 0.184026
H2    H     H_    0.988658 0.375240 0.109824 0.176549
H3    H     H_    0.793383 0.133458 0.016799 0.161785
H4    H     H_    0.812171 0.144163 0.128747 0.184915
H5    H     H_    0.714192 0.322944 0.149901 0.172177
H6    H     H_    0.585081 0.176242 0.107918 0.165027
H7    H     H_    0.693553 0.311291 0.037271 0.168411
H8    H     H_    0.038521 0.878493 0.945912 0.160601
H9    H     H_    0.850856 0.841966 0.993024 0.117048
H10   H     H_    0.967866 0.808450 0.801332 0.223105
H11   H     H_    0.774920 0.764432 0.844970 0.179956
H12   H     H_    0.565814 0.562286 0.790940 0.149639
H13   H     H_    0.820554 0.994884 0.890348 0.145616
H14   H     H_    0.879362 0.982178 0.776857 0.203198
H15   H     H_    0.015105 0.040157 0.848386 0.146817
H16   H     H_    0.207812 0.526191 0.255472 0.365741
H17   H     H_    0.914797 0.506284 0.749305 0.330672
H18   H     H_    0.516556 0.002982 0.689823 0.179037
H19   H     H_    0.351216 0.946263 0.641698 0.109314
H20   H     H_    0.469481 0.217786 0.727777 0.244356
H21   H     H_    0.290401 0.133339 0.695996 0.146207
H22   H     H_    0.236773 0.958718 0.804284 0.146154
H23   H     H_    0.860193 0.672903 0.258248 0.146838
H24   H     H_    0.279802 0.118936 0.853692 0.167598
H25   H     H_    0.416751 0.046131 0.836205 0.171729
H26   H     H_    0.644563 0.879127 0.338302 0.118785
H27   H     H_    0.574722 0.000261 0.313777 0.147527
H28   H     H_    0.452727 0.704952 0.274997 0.211927
H29   H     H_    0.364167 0.813993 0.255959 0.207343
H30   H     H_    0.583365 0.941616 0.154110 0.142936
H31   H     H_    0.521067 0.771010 0.123714 0.183916
H32   H     H_    0.682487 0.842425 0.176347 0.152549
H33   H     H_    0.154810 0.906562 0.363181 0.348082
H34   H     H_    0.132886 0.331038 0.733193 0.135587
H35   H     H_    0.889138 0.149061 0.556724 0.341427
H36   H     H_    0.950796 0.286659 0.314680 0.357151
H37   H     H_    0.095105 0.835590 0.586669 0.334010
H38   H     H_    0.050426 0.261802 0.880922 0.146046
H39   H     H_    0.936065 0.713118 0.104879 0.162392
H40   H     H_    0.124004 0.566616 0.562531 0.163346
H41   H     H_    0.849727 0.386696 0.475315 0.198578
H42   H     H_    0.971342 0.366073 0.997756 0.140918
N1    N     N_2   0.842890 0.551600 0.537350 -0.238380
N2    N     N_2   0.157110 0.448400 0.462650 -0.247507
O1    O     O_R   0.426810 0.668300 0.492040 -0.466222
O2    O     O_3   0.913793 0.682023 0.949403 -0.539275
O3    O     O_2   0.163986 0.306907 0.198658 -0.466110
O4    O     O_R   0.259504 0.529684 0.194368 -0.738742
O5    O     O_2   0.671907 0.370911 0.813914 -0.547748
O6    O     O_R   0.883156 0.550915 0.802987 -0.654426
O7    O     O_3   0.534173 0.112663 0.586646 -0.551788
O8    O     O_3   0.439398 0.867509 0.408075 -0.532433
O9    O     O_2   0.352082 0.115235 0.334074 -0.506445
O10   O     O_R   0.209191 0.936559 0.414423 -0.611542
O11   O     O_2   0.757628 0.931847 0.611711 -0.500750
O12   O     O_R   0.573190 0.331700 0.507960 -0.480795
O13   O     O_R   0.804098 0.100889 0.523784 -0.667373
O14   O     O_2   0.134109 0.259560 0.385513 -0.411323
O15   O     O_R   0.997434 0.367217 0.350471 -0.735856
O16   O     O_2   0.846208 0.702565 0.644614 -0.477820
O17   O     O_R   0.058825 0.753873 0.549938 -0.673518
O18   O     O_R   0.658240 0.703130 0.517240 -0.462138
O19   O     O_R   0.341760 0.296870 0.482760 -0.466709
O20   O     O_R   0.319390 0.472820 0.610170 -0.537987
O21   O     O_R   0.680610 0.527180 0.389830 -0.506166
O22   O     O_R   0.550820 0.507640 0.635370 -0.463838
O23   O     O_R   0.449180 0.492360 0.364630 -0.485875
O24   O     O_3   0.073084 0.247803 0.036184 -0.566732

loop_
_geom_bond_atom_site_label_1
_geom_bond_atom_site_label_2
_ccdc_geom_bond_type
C24   H4    S    
C31   H18   S    
Cu2   O18   S    
C35   H26   S    
C26   O2    S    
C8    C13   A    
C41   O16   D    
C5    O22   A    
Cu1   N2    S    
C35   C36   S    
H36   O15   S    
C2    C46   S    
C7    C11   A    
C37   H31   S    
C30   O5    D    
C35   H27   S    
C26   C27   S    
C23   C42   A    
C23   C29   S    
C40   O14   D    
C36   C37   S    
C25   H5    S    
H17   O6    S    
C12   O12   A    
C38   O9    D    
H37   O17   S    
C36   H29   S    
C18   C42   A    
C1    O18   A    
Cu1   O20   S    
Cu2   O12   S    
C43   O2    S    
C3    N1    D    
C38   C45   S    
C36   H28   S    
C33   H24   S    
C7    C14   A    
C31   C32   S    
C44   C46   D    
Cu2   N1    S    
C31   O7    S    
C39   O13   S    
C22   H2    S    
C20   C34   A    
C28   H13   S    
C24   H3    S    
C22   O24   S    
C2    C45   D    
C41   O17   S    
C19   C43   A    
H33   O10   S    
C11   H34   S    
Cu1   O1    S    
C37   H32   S    
C10   H39   S    
C25   H6    S    
C30   C34   S    
C24   C25   S    
H16   O4    S    
C5    C7    S    
C6    C8    S    
C13   H23   S    
C27   H10   S    
C17   C21   A    
H35   O13   S    
Cu1   O23   S    
C6    O21   A    
C9    H38   S    
C1    C44   S    
Cu1   Cu2   S    
C10   C19   A    
C16   C20   A    
C22   H42   S    
C16   C18   A    
C40   N2    S    
C9    C11   A    
C39   C44   S    
C33   H22   S    
C40   O15   S    
C42   O24   S    
C41   N1    S    
C2    O7    S    
C8    C15   A    
C21   C23   A    
C14   C16   A    
C3    C4    S    
Cu2   O22   S    
C33   H25   S    
C15   C17   A    
C46   O8    S    
C34   C43   A    
C25   H7    S    
C12   C45   S    
C10   C13   A    
C26   H8    S    
C29   O4    S    
C39   O11   D    
C32   H21   S    
C4    H40   S    
C5    O20   A    
C14   H12   S    
C37   H30   S    
C30   O6    S    
C32   H20   S    
C3    H41   S    
C32   C33   S    
C38   O10   S    
C27   H11   S    
Cu1   O19   S    
C17   C19   A    
C22   C24   S    
C15   H1    S    
C26   H9    S    
C6    O23   A    
C31   H19   S    
C29   O3    D    
C28   H15   S    
C9    C18   A    
C20   C21   A    
C1    O1    A    
C27   C28   S    
C12   O19   A    
C35   O8    S    
Cu2   O21   S    
C4    N2    D    
C28   H14   S    
