data_mof_unit_19485.cif
_audit_creation_date              2012-12-10T17:50:16-0500
_audit_creation_method            fapswitch 2.2
_symmetry_space_group_name_H-M    P1
_symmetry_Int_Tables_number       1
_space_group_crystal_system       triclinic
_cell_length_a                    10.662701
_cell_length_b                    14.817358
_cell_length_c                    14.811055
_cell_angle_alpha                 64.636093
_cell_angle_beta                  106.605551
_cell_angle_gamma                 103.840256
_cell_volume                      2007.77480435

loop_
_atom_site_label
_atom_site_type_symbol
_atom_type_description
_atom_site_fract_x
_atom_site_fract_y
_atom_site_fract_z
_atom_type_partial_charge
C1    C     C_R   0.477800 0.119716 0.311187 0.851331
C2    C     C_R   0.517688 0.880842 0.688442 0.830581
C3    C     C_R   0.509640 0.290397 0.173982 0.313343
C4    C     C_R   0.464351 0.713916 0.823403 0.336338
C5    C     C_R   0.466493 0.361930 0.074323 -0.039715
C6    C     C_R   0.498431 0.641750 0.924083 -0.029823
C7    C     C_R   0.401725 0.326401 0.995477 0.002452
C8    C     C_R   0.555150 0.677160 0.004135 -0.000265
C9    C     C_R   0.488783 0.467577 0.050709 0.026128
C10   C     C_R   0.472757 0.535927 0.947724 0.035797
C11   C     C_R   0.434544 0.496391 0.871312 -0.180196
C12   C     C_R   0.523497 0.506077 0.127616 -0.191523
C13   C     C_R   0.382578 0.395054 0.892171 0.092503
C14   C     C_R   0.569165 0.608192 0.107521 0.098152
C15   C     C_R   0.719315 0.285865 0.673374 -0.326992
C16   C     C_R   0.268701 0.705613 0.337941 -0.320182
C17   C     C_R   0.703001 0.217704 0.627434 0.335823
C18   C     C_R   0.303484 0.789368 0.364306 0.294691
C19   C     C_R   0.500930 0.275413 0.521832 -0.017176
C20   C     C_R   0.482532 0.713661 0.493680 -0.012872
C21   C     C_R   0.530517 0.360857 0.550259 -0.036737
C22   C     C_R   0.443452 0.623026 0.473226 -0.033606
C23   C     C_R   0.259524 0.997947 0.501881 0.750899
C24   C     C_R   0.741136 0.000808 0.500075 0.752994
C25   C     C_R   0.638088 0.360469 0.631992 0.124264
C26   C     C_R   0.335989 0.622914 0.391638 0.130018
C27   C     C_R   0.461941 0.447716 0.499221 0.098752
C28   C     C_R   0.505934 0.533037 0.529232 0.090369
C29   C     C_R   0.609150 0.524646 0.615157 -0.262261
C30   C     C_R   0.354530 0.453858 0.416540 -0.262648
C31   C     C_R   0.672707 0.439493 0.666014 -0.195365
C32   C     C_R   0.293116 0.539698 0.364125 -0.199244
C33   C     C_3   0.009815 0.908468 0.504407 -0.154968
C34   C     C_3   0.992549 0.087924 0.500977 -0.155836
C35   C     C_3   0.921441 0.985831 0.419074 -0.153061
C36   C     C_3   0.080625 0.010500 0.586020 -0.162458
C37   C     C_3   0.879225 0.001430 0.501433 0.026265
C38   C     C_3   0.122481 0.995351 0.503376 0.032664
C39   C     C_3   0.965376 0.924107 0.586612 -0.190007
C40   C     C_3   0.036341 0.072438 0.418450 -0.167789
C41   C     C_R   0.458589 0.187589 0.200889 -0.232150
C42   C     C_R   0.522772 0.815038 0.798258 -0.247406
C43   C     C_R   0.363032 0.222438 0.021329 -0.317525
C44   C     C_R   0.589847 0.781580 0.979309 -0.337535
C45   C     C_R   0.389899 0.152591 0.122717 0.397622
C46   C     C_R   0.580250 0.851411 0.877193 0.408160
Cu1   Cu    Cu3+1 0.465750 0.918270 0.475680 0.940169
Cu2   Cu    Cu3+1 0.534250 0.081730 0.524320 0.953691
H1    H     H_    0.853850 0.976105 0.350337 0.133523
H2    H     H_    0.148247 0.020157 0.654779 0.139260
H3    H     H_    0.566354 0.720307 0.552773 0.132666
H4    H     H_    0.413663 0.265730 0.466572 0.133441
H5    H     H_    0.808367 0.291217 0.730120 0.137885
H6    H     H_    0.186193 0.704319 0.275411 0.150539
H7    H     H_    0.643441 0.583198 0.644768 0.136933
H8    H     H_    0.315916 0.393504 0.389826 0.136644
H9    H     H_    0.018804 0.833672 0.508609 0.122279
H10   H     H_    0.989966 0.162044 0.501086 0.131529
H11   H     H_    0.932744 0.864065 0.655470 0.124585
H12   H     H_    0.068377 0.132687 0.349391 0.124927
H13   H     H_    0.310920 0.194116 0.962910 0.156496
H14   H     H_    0.623517 0.808974 0.039780 0.150126
H15   H     H_    0.446736 0.543885 0.794953 0.195952
H16   H     H_    0.513706 0.456120 0.204108 0.193867
H17   H     H_    0.754500 0.437684 0.729983 0.143250
H18   H     H_    0.210273 0.540830 0.301008 0.143840
N1    N     N_R   0.585750 0.204560 0.560800 -0.182371
N2    N     N_R   0.414250 0.795440 0.439200 -0.187544
O1    O     O_R   0.454850 0.022100 0.338110 -0.573269
O2    O     O_R   0.545150 0.977900 0.661890 -0.542437
O3    O     O_R   0.512700 0.160150 0.379180 -0.538018
O4    O     O_R   0.487300 0.839850 0.620820 -0.547619
O5    O     O_R   0.287930 0.931000 0.479440 -0.608699
O6    O     O_R   0.712070 0.069000 0.520560 -0.607133
O7    O     O_R   0.345780 0.069050 0.520520 -0.586840
O8    O     O_R   0.654220 0.930950 0.479480 -0.582843
C47   C     C_3   0.213866 0.870312 0.303582 -0.317113
C48   C     C_3   0.072247 0.837098 0.323116 -0.380063
C49   C     C_3   0.970411 0.822153 0.232375 -0.916234
H19   H     H_    0.981228 0.888337 0.160311 0.255671
H20   H     H_    0.980962 0.753382 0.224523 0.252836
H21   H     H_    0.869614 0.814177 0.244440 0.249626
H22   H     H_    0.066379 0.767414 0.393251 0.221233
H23   H     H_    0.043779 0.897939 0.334695 0.222616
H24   H     H_    0.251178 0.940083 0.315641 0.247686
H25   H     H_    0.210208 0.891090 0.222150 0.211587
C50   C     C_3   0.831795 0.192322 0.626239 -0.361821
C51   C     C_3   0.868208 0.089315 0.707069 -0.296764
C52   C     C_3   0.978847 0.099217 0.795796 -0.956931
H26   H     H_    0.073586 0.132268 0.769609 0.267152
H27   H     H_    0.956846 0.148280 0.827144 0.251964
H28   H     H_    0.989983 0.023325 0.857178 0.246995
H29   H     H_    0.780575 0.039994 0.735493 0.253200
H30   H     H_    0.904356 0.050370 0.672410 0.215333
H31   H     H_    0.832755 0.203843 0.547948 0.179513
H32   H     H_    0.913606 0.251500 0.636978 0.163317
C53   C     C_3   0.310813 0.359475 0.805383 -0.427077
C54   C     C_3   0.276577 0.443382 0.699167 -0.335745
C55   C     C_3   0.190995 0.400393 0.621235 -0.844661
H33   H     H_    0.241028 0.345283 0.616570 0.261447
H34   H     H_    0.095206 0.362947 0.643379 0.239785
H35   H     H_    0.171719 0.462369 0.544907 0.257530
H36   H     H_    0.222226 0.496515 0.703018 0.230318
H37   H     H_    0.368205 0.485443 0.672273 0.234766
H38   H     H_    0.371544 0.310371 0.801362 0.203346
H39   H     H_    0.215420 0.314086 0.823971 0.201393
C56   C     C_3   0.633158 0.643996 0.195217 -0.425280
C57   C     C_3   0.663722 0.560673 0.302370 -0.342620
C58   C     C_3   0.744147 0.603778 0.381673 -0.847177
H40   H     H_    0.843729 0.638597 0.365457 0.256726
H41   H     H_    0.693198 0.660824 0.381975 0.260792
H42   H     H_    0.756713 0.542044 0.458603 0.255804
H43   H     H_    0.570084 0.518496 0.326161 0.234416
H44   H     H_    0.720883 0.507877 0.301071 0.230603
H45   H     H_    0.728917 0.690305 0.179334 0.206109
H46   H     H_    0.568507 0.692149 0.196344 0.198647
O9    O     O_3   0.367427 0.687462 0.750231 -0.620390
C59   C     C_3   0.246087 0.717564 0.740522 0.088943
H47   H     H_    0.188851 0.729860 0.661640 0.165636
H48   H     H_    0.258205 0.790553 0.749227 0.118952
C60   C     C_3   0.166378 0.634636 0.816088 -0.354871
H49   H     H_    0.154677 0.562607 0.806321 0.223375
H50   H     H_    0.219683 0.623589 0.895605 0.221191
C61   C     C_3   0.030010 0.661700 0.799592 -0.949784
H51   H     H_    0.039619 0.731601 0.812846 0.254361
H52   H     H_    0.974111 0.599595 0.854271 0.258139
H53   H     H_    0.973886 0.672908 0.720626 0.252896
O10   O     O_3   0.610426 0.317989 0.244236 -0.610023
C62   C     C_3   0.732429 0.335090 0.215678 0.057592
H54   H     H_    0.747631 0.413226 0.158134 0.158972
H55   H     H_    0.738108 0.280824 0.183323 0.125492
C63   C     C_3   0.843020 0.322056 0.310356 -0.318485
H56   H     H_    0.836619 0.371003 0.347976 0.214835
H57   H     H_    0.830011 0.242549 0.364704 0.219604
C64   C     C_3   0.978853 0.347891 0.283921 -0.963975
H58   H     H_    0.987557 0.300011 0.245892 0.255599
H59   H     H_    0.056476 0.334516 0.354935 0.255072
H60   H     H_    0.994992 0.428454 0.232343 0.256386
O11   O     O_3   0.606950 0.955620 0.851011 -0.595777
C65   C     C_3   0.707212 0.986834 0.922461 0.055783
H61   H     H_    0.765582 0.055847 0.878333 0.183253
H62   H     H_    0.778754 0.931998 0.970980 0.125706
C66   C     C_3   0.647104 0.018138 0.985079 -0.363488
H63   H     H_    0.586821 0.079381 0.931783 0.226442
H64   H     H_    0.582007 0.953805 0.029116 0.208072
C67   C     C_3   0.753470 0.056645 0.059112 -0.953593
H65   H     H_    0.812240 0.995813 0.115612 0.264326
H66   H     H_    0.706367 0.081471 0.100964 0.250001
H67   H     H_    0.820121 0.121707 0.016967 0.259457
O12   O     O_3   0.343448 0.050800 0.146928 -0.618401
C68   C     C_3   0.378329 0.012156 0.085945 0.045248
H68   H     H_    0.426102 0.943748 0.138008 0.156973
H69   H     H_    0.451850 0.064852 0.040405 0.142458
C69   C     C_3   0.254349 0.981548 0.015871 -0.389146
H70   H     H_    0.195705 0.912927 0.061467 0.208616
H71   H     H_    0.190885 0.042422 0.977561 0.229724
C70   C     C_3   0.288943 0.959642 0.934710 -0.908319
H72   H     H_    0.343054 0.028056 0.884503 0.263062
H73   H     H_    0.196890 0.936786 0.886630 0.251552
H74   H     H_    0.350169 0.897190 0.971290 0.262973

loop_
_geom_bond_atom_site_label_1
_geom_bond_atom_site_label_2
_ccdc_geom_bond_type
C25   C31   A    
C66   C67   S    
C38   C40   S    
C50   C51   S    
C26   C32   A    
C70   H72   S    
C40   H12   S    
C64   H60   S    
C34   C37   S    
C65   C66   S    
O10   C62   S    
C53   C54   S    
C64   H58   S    
C47   C48   S    
C33   C39   S    
C34   C40   S    
C15   H5    S    
C32   H18   S    
C28   C29   A    
C35   C37   S    
C65   H62   S    
Cu1   O8    S    
C62   H54   S    
C20   H3    S    
C11   H15   S    
C58   H41   S    
C12   H16   S    
C15   C25   A    
C18   N2    A    
C54   H36   S    
C57   C58   S    
C31   H17   S    
C45   O12   S    
C42   C46   A    
C68   C69   S    
C57   H44   S    
C59   H47   S    
Cu1   O1    S    
C60   C61   S    
C19   H4    S    
Cu1   Cu2   S    
C63   H56   S    
C50   H31   S    
C35   H1    S    
C33   H9    S    
C56   C57   S    
C19   N1    A    
C7    C43   A    
C52   H27   S    
C9    C10   A    
C69   H71   S    
C62   C63   S    
C53   H38   S    
C21   C27   A    
C47   H24   S    
C70   H73   S    
C22   C28   A    
C27   C30   A    
C29   C31   A    
Cu2   O7    S    
C23   O5    A    
C2    O4    A    
C48   H22   S    
C44   C46   A    
C67   H66   S    
C16   C26   A    
Cu1   O4    S    
C51   H30   S    
C17   N1    A    
Cu2   O6    S    
C65   H61   S    
Cu1   O5    S    
C69   C70   S    
C4    C6    A    
C58   H42   S    
Cu2   O2    S    
C5    C7    A    
C48   C49   S    
C24   O8    A    
C6    C8    A    
C29   H7    S    
C44   H14   S    
C30   H8    S    
C1    O1    A    
C59   C60   S    
C57   H43   S    
C5    C9    A    
C3    O10   S    
C67   H67   S    
C55   H33   S    
C68   H68   S    
C39   H11   S    
C50   H32   S    
C24   C37   S    
C69   H70   S    
C16   C18   A    
C1    O3    A    
C52   H28   S    
C43   C45   A    
C56   H45   S    
C60   H49   S    
C61   H53   S    
C53   H39   S    
C1    C41   S    
C14   C56   S    
C55   H34   S    
C12   C14   A    
C47   H25   S    
C70   H74   S    
C64   H59   S    
C4    O9    S    
C20   C22   A    
Cu2   O3    S    
Cu1   N2    S    
C36   H2    S    
C43   H13   S    
C61   H52   S    
C67   H65   S    
C66   H64   S    
C21   C25   A    
C51   H29   S    
C3    C41   A    
C8    C14   A    
C19   C21   A    
C17   C50   S    
C20   N2    A    
C36   C39   S    
C8    C44   A    
C23   O7    A    
C3    C5    A    
C6    C10   A    
C49   H21   S    
O11   C65   S    
C15   C17   A    
C23   C38   S    
C49   H20   S    
C33   C38   S    
C16   H6    S    
C36   C38   S    
C35   C40   S    
C37   C39   S    
O9    C59   S    
C30   C32   A    
C11   C13   A    
C24   O6    A    
C4    C42   A    
C2    C42   S    
C18   C47   S    
C54   H37   S    
C63   C64   S    
C33   C35   S    
C34   C36   S    
C68   H69   S    
Cu2   N1    S    
C13   C53   S    
C9    C12   A    
C59   H48   S    
C56   H46   S    
C60   H50   S    
C10   C11   A    
C49   H19   S    
C48   H23   S    
C7    C13   A    
C55   H35   S    
C51   C52   S    
C63   H57   S    
C54   C55   S    
C22   C26   A    
C58   H40   S    
C27   C28   A    
C34   H10   S    
C41   C45   A    
O12   C68   S    
C61   H51   S    
C52   H26   S    
C2    O2    A    
C66   H63   S    
C46   O11   S    
C62   H55   S    
