data_mof_unit_40005.cif
_audit_creation_date              2012-10-26T19:58:18-0400
_audit_creation_method            fapswitch 2.2
_symmetry_space_group_name_H-M    P1
_symmetry_Int_Tables_number       1
_space_group_crystal_system       triclinic
_cell_length_a                    7.471509
_cell_length_b                    8.716713
_cell_length_c                    13.400854
_cell_angle_alpha                 94.940796
_cell_angle_beta                  77.306351
_cell_angle_gamma                 103.359307
_cell_volume                      827.812009833

loop_
_atom_site_label
_atom_site_type_symbol
_atom_type_description
_atom_site_fract_x
_atom_site_fract_y
_atom_site_fract_z
_atom_type_partial_charge
C1    C     C_R   0.542730 0.799583 0.507303 0.533387
C2    C     C_R   0.334580 0.491175 0.807743 0.026347
C3    C     C_2   0.559570 0.966539 0.522648 0.222221
C4    C     C_R   0.398888 0.496222 0.694757 0.536558
C5    C     C_2   0.432284 0.032141 0.495644 -0.130100
C6    C     C_R   0.454357 0.200012 0.498152 0.534450
C7    C     C_R   0.601433 0.510469 0.306049 0.519228
C8    C     C_R   0.877173 0.674748 0.054267 -0.136169
C9    C     C_R   0.662435 0.534403 0.195956 -0.004688
C10   C     C_R   0.148089 0.414181 0.850373 0.234632
C11   C     C_R   0.098295 0.383444 0.954802 -0.136619
C12   C     C_R   0.417803 0.501275 0.976162 0.012613
C13   C     C_R   0.231012 0.422257 0.016017 -0.164422
C14   C     C_3   0.035466 0.245443 0.365506 -0.025870
C15   C     C_3   0.654716 0.058986 0.670250 -0.088493
C16   C     C_R   0.463780 0.548606 0.873371 -0.022473
C17   C     C_R   0.559336 0.538694 0.035849 0.032064
C18   C     C_R   0.737579 0.634956 0.995558 0.046799
C19   C     C_R   0.772174 0.695142 0.898642 -0.115841
C20   C     C_R   0.636201 0.655316 0.839495 -0.111794
C21   C     C_R   0.528748 0.484417 0.134966 -0.132269
C22   C     C_R   0.839270 0.625705 0.154491 -0.139543
Cu1   Cu    Cu3+1 0.321300 0.483160 0.488710 1.075912
Cu2   Cu    Cu3+1 0.678700 0.516840 0.511290 1.071768
H1    H     H_    0.944440 0.665150 0.200783 0.140020
H2    H     H_    0.004398 0.175399 0.435068 0.186671
H3    H     H_    0.183657 0.257181 0.325085 0.120198
H4    H     H_    0.947200 0.177830 0.312983 0.089030
H5    H     H_    0.893296 0.321151 0.831770 0.307843
H6    H     H_    0.604819 0.938679 0.701269 0.080291
H7    H     H_    0.544227 0.128548 0.696097 0.125443
H8    H     H_    0.778601 0.118418 0.702506 0.169785
H9    H     H_    0.311869 0.960998 0.467837 0.098728
H10   H     H_    0.904391 0.774723 0.868662 0.113412
H11   H     H_    0.013525 0.748091 0.023734 0.113338
H12   H     H_    0.399568 0.405640 0.168137 0.110728
H13   H     H_    0.180210 0.393400 0.095271 0.119401
H14   H     H_    0.955932 0.325381 0.988928 0.111000
H15   H     H_    0.665806 0.713790 0.768188 0.114576
H16   H     H_    0.920805 0.683492 0.639449 0.320847
N1    N     N_2   0.947230 0.542220 0.528320 0.090115
N2    N     N_2   0.052770 0.457780 0.471680 0.129083
O1    O     O_R   0.383920 0.714220 0.492660 -0.505526
O2    O     O_3   0.988953 0.393477 0.387620 -0.469943
O3    O     O_3   0.017246 0.367621 0.788968 -0.668885
O4    O     O_3   0.709654 0.053818 0.562617 -0.558900
O5    O     O_R   0.685730 0.742660 0.511730 -0.507057
O6    O     O_R   0.275440 0.478800 0.636790 -0.392968
O7    O     O_R   0.577250 0.507240 0.655860 -0.543485
O8    O     O_R   0.314270 0.257340 0.488270 -0.546494
O9    O     O_R   0.616080 0.285780 0.507340 -0.426800
O10   O     O_R   0.422750 0.492760 0.344140 -0.523427
O11   O     O_R   0.724560 0.521200 0.363210 -0.466066
O12   O     O_3   0.017670 0.625439 0.604921 -0.568655

loop_
_geom_bond_atom_site_label_1
_geom_bond_atom_site_label_2
_ccdc_geom_bond_type
C12   C17   A    
C11   H14   S    
C8    C22   A    
Cu1   Cu2   S    
C19   H10   S    
C15   H7    S    
C6    O9    A    
C2    C16   A    
N1    N2    D    
C8    H11   S    
C3    O4    S    
C2    C4    S    
C19   C20   A    
C4    O7    A    
C16   C20   A    
C10   O3    S    
C17   C18   A    
C15   H8    S    
C21   H12   S    
C14   H2    S    
Cu2   N1    S    
C11   C13   A    
C9    C21   A    
Cu1   O10   S    
Cu1   N2    S    
N2    O2    S    
Cu2   O9    S    
C7    O10   A    
C18   C19   A    
H16   O12   S    
C5    H9    S    
C5    C6    S    
C14   H3    S    
C8    C18   A    
N1    O12   S    
C10   C11   A    
C7    O11   A    
C2    C10   A    
C3    C5    D    
Cu1   O1    S    
C12   C13   A    
C15   H6    S    
C14   O2    S    
C9    C22   A    
C4    O6    A    
Cu2   O7    S    
C7    C9    S    
C20   H15   S    
C1    O5    A    
Cu1   O8    S    
Cu1   O6    S    
C15   O4    S    
C14   H4    S    
Cu2   O11   S    
Cu2   O5    S    
C13   H13   S    
C1    O1    A    
C6    O8    A    
C12   C16   A    
H5    O3    S    
C1    C3    S    
C22   H1    S    
C17   C21   A    
