data_mof_unit_8981.cif
_audit_creation_date              2013-03-05T15:55:53-0500
_audit_creation_method            fapswitch 2.2
_symmetry_space_group_name_H-M    P1
_symmetry_Int_Tables_number       1
_space_group_crystal_system       triclinic
_cell_length_a                    12.499158
_cell_length_b                    13.36428
_cell_length_c                    15.864668
_cell_angle_alpha                 74.746344
_cell_angle_beta                  103.370774
_cell_angle_gamma                 118.226481
_cell_volume                      2234.82083605

loop_
_atom_site_label
_atom_site_type_symbol
_atom_site_description
_atom_site_fract_x
_atom_site_fract_y
_atom_site_fract_z
_atom_type_partial_charge
O1    O     O_R   0.972510 0.318130 0.524770 -0.523923
O2    O     O_R   0.806530 0.359650 0.491510 -0.521683
C1    C     C_R   0.854330 0.286028 0.507824 0.919957
O3    O     O_R   0.082970 0.479240 0.637550 -0.568913
O4    O     O_R   0.916990 0.520750 0.604290 -0.559042
C2    C     C_R   0.002812 0.501041 0.659909 0.836199
Cu1   Cu    Cu3+1 0.098270 0.475420 0.519690 1.046279
Cu2   Cu    Cu3+1 0.901730 0.524580 0.480310 1.068773
O5    O     O_R   0.193470 0.640350 0.508490 -0.537415
O6    O     O_R   0.027490 0.681870 0.475230 -0.529089
O7    O     O_R   0.083010 0.479250 0.395710 -0.614024
O8    O     O_R   0.917030 0.520760 0.362450 -0.504780
C3    C     C_R   0.145673 0.714357 0.485624 0.887459
C4    C     C_R   0.999431 0.502014 0.339866 0.794664
C5    C     C_3   0.024290 0.420076 0.052391 0.385846
C6    C     C_3   0.916038 0.404095 0.976842 -0.382837
H1    H     H_    0.843342 0.321509 0.958039 0.206229
C7    C     C_1   0.007854 0.502003 0.750089 -0.090620
C8    C     C_1   0.998075 0.505623 0.249453 -0.096771
C9    C     C_3   0.114810 0.519248 0.992384 0.173052
C10   C     C_3   0.008359 0.505420 0.916395 -0.169094
C11   C     C_3   0.091094 0.607385 0.021629 0.288576
C12   C     C_3   0.000846 0.507975 0.082558 -0.110074
C13   C     C_3   0.984247 0.593077 0.946642 0.211507
C14   C     C_3   0.895199 0.494018 0.007124 0.238915
C15   C     C_1   0.009559 0.503345 0.825539 0.161082
C16   C     C_1   0.998742 0.507451 0.173781 0.155753
C17   C     C_R   0.280359 0.044738 0.427564 0.300326
C18   C     C_R   0.229941 0.838825 0.466552 -0.262828
C19   C     C_R   0.808321 0.078721 0.569296 0.297431
C20   C     C_R   0.726842 0.960831 0.580584 0.298636
C21   C     C_R   0.602776 0.926249 0.548649 0.297077
C22   C     C_R   0.564093 0.006944 0.489261 -0.080579
C23   C     C_R   0.651624 0.122068 0.465294 -0.154562
C24   C     C_R   0.439498 0.980186 0.458361 -0.071311
C25   C     C_R   0.402831 0.068873 0.423934 -0.203041
C26   C     C_R   0.489305 0.175729 0.384204 0.476780
C27   C     C_R   0.613045 0.195862 0.397443 0.444549
C28   C     C_R   0.350015 0.868293 0.455603 0.443579
C29   C     C_R   0.194726 0.928372 0.456287 0.353786
C30   C     C_R   0.771972 0.160775 0.511106 -0.213382
C31   C     C_R   0.356712 0.340478 0.648424 0.157199
H2    H     H_    0.582524 0.370947 0.707108 0.215867
N1    N     N_R   0.246280 0.438200 0.549540 -0.258350
C32   C     C_R   0.753850 0.638404 0.374073 0.313966
C33   C     C_R   0.663046 0.677026 0.348336 0.089748
C34   C     C_R   0.559354 0.622990 0.391809 0.385618
C35   C     C_R   0.555227 0.544270 0.472421 -0.151875
C36   C     C_R   0.657787 0.515005 0.502154 -0.043164
C37   C     C_R   0.451505 0.487706 0.522878 0.044878
C38   C     C_R   0.460336 0.415292 0.604255 -0.082149
C39   C     C_R   0.572551 0.416822 0.640628 -0.132304
C40   C     C_R   0.655148 0.439493 0.585552 0.404537
C41   C     C_R   0.339067 0.497655 0.498332 0.050547
C42   C     C_R   0.255667 0.365522 0.625961 0.635303
N2    N     N_R   0.754330 0.561180 0.450980 -0.276967
H3    H     H_    0.322718 0.555485 0.442302 0.227585
O9    O     O_3   0.376719 0.794549 0.426751 -0.532726
C43   C     C_3   0.336067 0.798237 0.335227 -0.179954
H4    H     H_    0.264314 0.711408 0.324401 0.164342
H5    H     H_    0.414369 0.822073 0.300331 0.247867
H6    H     H_    0.297449 0.861367 0.303096 0.116567
O10   O     O_3   0.922008 0.113005 0.619413 -0.525884
C44   C     C_3   0.909359 0.121045 0.703358 -0.031991
H7    H     H_    0.833043 0.042929 0.733908 0.169784
H8    H     H_    0.896600 0.199119 0.699411 0.142171
H9    H     H_    0.994203 0.128901 0.748278 0.218299
N3    N     N_R   0.517067 0.814566 0.587389 0.190066
O11   O     O_R   0.443156 0.806990 0.637142 -0.324542
O12   O     O_R   0.528065 0.722752 0.586702 -0.314635
O13   O     O_3   0.763130 0.881898 0.638541 -0.516555
C45   C     C_3   0.824698 0.850791 0.593597 -0.065278
H10   H     H_    0.913485 0.924669 0.577284 0.186851
H11   H     H_    0.767177 0.817317 0.533040 0.115556
H12   H     H_    0.844815 0.780414 0.637409 0.223118
O14   O     O_3   0.693285 0.285012 0.342384 -0.578540
C46   C     C_3   0.721325 0.237253 0.285913 -0.215174
H13   H     H_    0.637291 0.173188 0.252823 0.178840
H14   H     H_    0.783229 0.197393 0.322199 0.146480
H15   H     H_    0.769718 0.307437 0.233336 0.215081
O15   O     O_3   0.166018 0.318728 0.680771 -0.549244
C47   C     C_3   0.215649 0.368054 0.758127 -0.185365
H16   H     H_    0.139845 0.342247 0.796352 0.170565
H17   H     H_    0.261987 0.464168 0.742870 0.194389
H18   H     H_    0.281419 0.336976 0.801311 0.196903
N4    N     N_R   0.348043 0.233102 0.705963 0.144414
O16   O     O_R   0.413266 0.185265 0.696571 -0.270176
O17   O     O_R   0.255638 0.168508 0.750550 -0.303306
N5    N     N_R   0.838496 0.672409 0.313312 0.179876
O18   O     O_R   0.800529 0.625818 0.243069 -0.260164
O19   O     O_R   0.939989 0.766424 0.315534 -0.374545
O20   O     O_3   0.048482 0.332931 0.113529 -0.545139
C48   C     C_3   0.042187 0.252090 0.068521 -0.125864
H19   H     H_    0.102786 0.293931 0.015587 0.170419
H20   H     H_    0.946290 0.200781 0.041049 0.147958
H21   H     H_    0.073641 0.191186 0.116212 0.213170
O21   O     O_3   0.463826 0.650635 0.353274 -0.566188
C49   C     C_3   0.393860 0.583833 0.286874 -0.262168
H22   H     H_    0.449962 0.595874 0.236625 0.223544
H23   H     H_    0.322167 0.611768 0.251808 0.202937
H24   H     H_    0.346343 0.490946 0.316106 0.162188
N6    N     N_R   0.673794 0.771142 0.275830 0.157242
O22   O     O_R   0.690936 0.768395 0.198826 -0.253575
O23   O     O_R   0.655099 0.855465 0.284791 -0.348529
N7    N     N_R   0.685499 0.345652 0.600503 0.145899
O24   O     O_R   0.747164 0.324083 0.675376 -0.406932
O25   O     O_R   0.606267 0.257616 0.563995 -0.366067
N8    N     N_R   0.774850 0.481656 0.013205 0.179533
O26   O     O_R   0.693639 0.470104 0.943805 -0.277715
O27   O     O_R   0.747860 0.482231 0.087405 -0.281377
N9    N     N_R   0.959337 0.687230 0.890580 0.165221
O28   O     O_R   0.940014 0.753903 0.925731 -0.253804
O29   O     O_R   0.956571 0.705429 0.805638 -0.344408
O30   O     O_3   0.177419 0.711450 0.050400 -0.561066
C50   C     C_3   0.254153 0.783954 0.985098 -0.098244
H25   H     H_    0.201854 0.794994 0.919220 0.182641
H26   H     H_    0.319855 0.751688 0.981756 0.201658
H27   H     H_    0.308514 0.870667 0.003418 0.191965
N10   N     N_R   0.234775 0.530215 0.986895 0.135221
O31   O     O_R   0.313338 0.535257 0.057468 -0.305011
O32   O     O_R   0.263631 0.534003 0.912088 -0.361245
O33   O     O_3   0.083480 0.900261 0.482567 -0.561143
C51   C     C_3   0.012413 0.947473 0.418441 -0.096700
H28   H     H_    0.035493 0.968041 0.350296 0.198861
H29   H     H_    0.020078 0.025285 0.436985 0.192695
H30   H     H_    0.914900 0.883601 0.418016 0.155432
O34   O     O_3   0.448947 0.244608 0.316981 -0.535942
C52   C     C_3   0.492697 0.353866 0.339025 -0.087783
H31   H     H_    0.593831 0.401313 0.345039 0.184777
H32   H     H_    0.459064 0.346525 0.400372 0.164449
H33   H     H_    0.457128 0.405913 0.284772 0.180617
N11   N     N_R   0.250144 0.138408 0.417503 0.123840
O35   O     O_R   0.209729 0.180764 0.340366 -0.353292
O36   O     O_R   0.260588 0.179843 0.486115 -0.334088

loop_
_geom_bond_atom_site_label_1
_geom_bond_atom_site_label_2
_geom_bond_distance
_ccdc_geom_bond_type
C10   C15   1.452599 S    
C6    C10   1.560556 S    
N9    O28   1.300222 A    
C7    C15   1.196946 T    
C52   H31   1.107675 S    
Cu2   N2    2.046042 S    
O30   C50   1.408666 S    
C51   H28   1.113754 S    
C27   O14   1.384064 S    
C46   H13   1.114763 S    
Cu1   O7    1.921053 S    
C33   N6    1.439991 S    
C48   H19   1.112684 S    
O4    C2    1.306088 A    
C3    C18   1.480938 S    
C25   C26   1.409355 A    
O3    Cu1   1.939126 S    
C19   C20   1.403437 A    
O7    C4    1.303656 A    
N4    O17   1.301151 A    
H2    C39   1.083973 S    
C51   H29   1.109424 S    
C17   C29   1.431761 A    
C50   H25   1.111529 S    
C13   N9    1.457713 S    
N8    O26   1.300276 A    
O5    C3    1.317817 A    
C5    O20   1.411251 S    
C34   C35   1.419924 A    
C32   N2    1.376124 A    
N11   O35   1.301245 A    
C50   H26   1.109187 S    
C19   C30   1.416243 A    
C31   N4    1.453834 S    
C12   C16   1.451650 S    
N5    O19   1.297733 A    
C8    C16   1.196204 T    
C31   C38   1.412236 A    
C21   N3    1.436132 S    
C5    C12   1.543092 S    
C20   O13   1.383214 S    
C43   H4    1.108866 S    
C48   H20   1.111329 S    
O1    Cu1   1.933899 S    
C19   O10   1.383685 S    
C23   C30   1.419411 A    
C45   H12   1.108980 S    
O21   C49   1.414839 S    
N10   O32   1.300089 A    
C5    C9    1.535836 S    
C2    C7    1.420640 S    
C43   H5    1.108486 S    
C38   C39   1.380365 A    
C44   H9    1.108157 S    
Cu1   Cu2   2.730862 S    
C13   C14   1.530961 S    
C45   H11   1.114651 S    
N4    O16   1.301854 A    
N3    O11   1.301325 A    
C51   H30   1.108756 S    
C37   C38   1.411815 A    
O9    C43   1.419061 S    
C32   C33   1.396496 A    
C28   O9    1.382527 S    
O15   C47   1.418533 S    
O1    C1    1.309915 A    
C24   C25   1.403769 A    
C44   H8    1.111957 S    
C24   C28   1.385179 A    
C26   C27   1.412261 A    
C40   N7    1.422989 S    
C31   C42   1.401097 A    
N7    O25   1.300609 A    
C20   C21   1.398900 A    
Cu2   O8    1.939126 S    
C50   H27   1.109128 S    
C18   C28   1.401159 A    
C22   C23   1.414567 A    
C46   H14   1.111925 S    
N9    O29   1.300100 A    
C37   C41   1.428567 A    
Cu1   N1    2.058034 S    
O14   C46   1.410855 S    
N6    O23   1.301354 A    
N3    O12   1.300718 A    
C35   C36   1.454748 A    
C9    C11   1.540115 S    
C49   H22   1.112385 S    
C48   H21   1.109308 S    
C49   H23   1.108355 S    
C11   C13   1.542300 S    
O3    C2    1.307432 A    
C42   O15   1.380014 S    
O34   C52   1.406532 S    
C36   N2    1.407539 A    
C52   H33   1.105807 S    
C32   N5    1.428792 S    
C39   C40   1.379544 A    
C46   H15   1.107432 S    
C6    C14   1.549389 S    
Cu1   O5    1.927854 S    
C33   C34   1.393910 A    
C1    C30   1.487747 S    
C43   H6    1.117930 S    
C23   C27   1.419506 A    
C4    C8    1.418864 S    
Cu2   O6    1.933899 S    
O2    Cu2   1.927854 S    
O8    C4    1.309160 A    
C45   H10   1.111449 S    
O6    C3    1.310009 A    
C52   H32   1.110656 S    
O4    Cu2   1.921053 S    
N10   O31   1.300369 A    
C47   H18   1.109252 S    
C29   O33   1.392831 S    
N7    O24   1.301789 A    
C47   H17   1.114218 S    
C34   O21   1.377233 S    
C49   H24   1.111694 S    
C21   C22   1.425617 A    
O2    C1    1.320051 A    
O33   C51   1.412990 S    
O13   C45   1.409170 S    
C44   H7    1.113675 S    
N1    C42   1.359941 A    
C6    H1    1.109967 S    
C36   C40   1.433942 A    
C18   C29   1.419513 A    
C35   C37   1.458603 A    
O20   C48   1.408125 S    
C22   C24   1.416279 A    
N8    O27   1.300173 A    
C12   C14   1.537611 S    
N6    O22   1.300678 A    
O10   C44   1.413813 S    
N1    C41   1.364113 A    
C11   O30   1.411935 S    
C9    C10   1.549388 S    
C17   C25   1.419381 A    
N11   O36   1.300626 A    
C47   H16   1.109507 S    
C10   C13   1.545988 S    
C11   C12   1.543636 S    
C17   N11   1.431560 S    
N5    O18   1.302227 A    
C9    N10   1.457149 S    
C5    C6    1.556993 S    
C14   N8    1.457081 S    
C26   O34   1.383126 S    
C41   H3    1.064474 S    
