data_mof_unit_53517.cif
_audit_creation_date              2012-12-10T19:00:13-0500
_audit_creation_method            fapswitch 2.2
_symmetry_space_group_name_H-M    P1
_symmetry_Int_Tables_number       1
_space_group_crystal_system       triclinic
_cell_length_a                    9.575667
_cell_length_b                    10.857283
_cell_length_c                    13.467017
_cell_angle_alpha                 91.575382
_cell_angle_beta                  72.132664
_cell_angle_gamma                 90.999412
_cell_volume                      1332.0168621

loop_
_atom_site_label
_atom_site_type_symbol
_atom_type_description
_atom_site_fract_x
_atom_site_fract_y
_atom_site_fract_z
_atom_type_partial_charge
C1    C     C_R   0.499688 0.737659 0.503677 0.838450
C2    C     C_R   0.438470 0.506336 0.978147 0.141195
C3    C     C_R   0.467865 0.466938 0.872300 0.015231
C4    C     C_R   0.546101 0.486096 0.029220 0.043044
C5    C     C_R   0.677439 0.423181 0.975004 -0.064265
C6    C     C_R   0.696650 0.374923 0.874882 -0.118336
C7    C     C_R   0.591554 0.393022 0.825739 -0.170414
C8    C     C_R   0.526616 0.524203 0.133188 -0.365755
C9    C     C_R   0.760767 0.439617 0.127356 0.514546
C10   C     C_R   0.372278 0.501684 0.815660 -0.237461
C11   C     C_R   0.367946 0.933875 0.523427 0.061128
C12   C     C_R   0.420727 0.497172 0.700303 0.822522
C13   C     C_R   0.496264 0.870988 0.517094 -0.220897
C14   C     C_R   0.617916 0.939506 0.527240 0.595964
C15   C     C_R   0.615655 0.068059 0.527173 -0.285301
C16   C     C_R   0.493305 0.129510 0.515932 -0.183534
C17   C     C_R   0.366567 0.060792 0.522501 0.138875
C18   C     C_3   0.269942 0.059853 0.454410 -0.457851
C19   C     C_3   0.269729 0.920648 0.456612 -0.410148
C20   C     C_R   0.933399 0.394792 0.476414 0.179784
C21   C     C_R   0.911191 0.598053 0.538328 -0.027986
C22   C     C_R   0.059311 0.597559 0.539331 -0.033063
C23   C     C_R   0.498108 0.262330 0.502914 0.820395
C24   C     C_R   0.082477 0.396182 0.471204 0.247551
C25   C     C_3   0.118573 0.325769 0.367832 -0.145294
C26   C     C_3   0.955733 0.318430 0.380694 -0.424721
C27   C     C_R   0.579426 0.500845 0.299665 0.863261
C28   C     C_R   0.786228 0.405593 0.023064 0.553633
C29   C     C_R   0.626478 0.492099 0.184795 -0.255125
C30   C     C_R   0.236764 0.555997 0.869393 0.646035
C31   C     C_R   0.201659 0.583708 0.975317 -0.133555
C32   C     C_R   0.302135 0.563133 0.028601 -0.287705
Cu1   Cu    Cu3+1 0.359330 0.500020 0.500010 0.979877
Cu2   Cu    Cu3+1 0.640670 0.499980 0.499990 0.988626
H1    H     H_    0.712692 0.118492 0.530486 0.182249
H2    H     H_    0.160617 0.099504 0.495654 0.201415
H3    H     H_    0.327890 0.095493 0.375664 0.190883
H4    H     H_    0.160695 0.881250 0.499402 0.211886
H5    H     H_    0.324517 0.876497 0.379203 0.196708
H6    H     H_    0.844841 0.678117 0.568323 0.206800
H7    H     H_    0.102258 0.676906 0.570831 0.161552
H8    H     H_    0.163393 0.233689 0.369078 0.169352
H9    H     H_    0.920460 0.366506 0.321601 0.295196
H10   H     H_    0.792438 0.321027 0.834498 0.199355
H11   H     H_    0.908948 0.224219 0.397848 0.174063
H12   H     H_    0.431656 0.574874 0.177937 0.187602
H13   H     H_    0.268265 0.591911 0.109424 0.161600
H14   H     H_    0.097555 0.626219 0.015864 0.183135
H15   H     H_    0.607996 0.346235 0.751225 0.163301
N1    N     N_R   0.852320 0.499070 0.499340 -0.191722
N2    N     N_R   0.148230 0.499110 0.499340 -0.188461
O1    O     O_R   0.381190 0.680360 0.500000 -0.597513
O2    O     O_R   0.618780 0.680320 0.499990 -0.532777
O3    O     O_R   0.323230 0.500000 0.650990 -0.508574
O4    O     O_R   0.560820 0.499960 0.650980 -0.595931
O5    O     O_R   0.381220 0.319680 0.500010 -0.582301
O6    O     O_R   0.618810 0.319640 0.500000 -0.597893
O7    O     O_R   0.439180 0.500040 0.349020 -0.597052
O8    O     O_R   0.676770 0.500000 0.349010 -0.531392
F1    F     F_    0.865475 0.416163 0.172229 -0.667637
C33   C     C_3   0.203097 0.396280 0.270865 -0.707245
H16   H     H_    0.319954 0.370583 0.249259 0.239200
H17   H     H_    0.165055 0.368021 0.203465 0.265225
H18   H     H_    0.189353 0.497363 0.284118 0.235878
F2    F     F_    0.914953 0.350432 0.970376 -0.628432
F3    F     F_    0.140180 0.587761 0.818996 -0.645219
F4    F     F_    0.742057 0.883870 0.530618 -0.681954

loop_
_geom_bond_atom_site_label_1
_geom_bond_atom_site_label_2
_ccdc_geom_bond_type
C25   H8    S    
C33   H18   S    
C2    C4    A    
C14   F4    S    
C6    C7    A    
C19   H4    S    
C27   C29   S    
C5    C28   A    
C10   C30   A    
C31   C32   A    
C27   O8    A    
C17   C18   S    
C9    C29   A    
C30   C31   A    
C4    C8    A    
C9    F1    S    
C24   N2    A    
C2    C3    A    
Cu2   O4    S    
C23   O5    A    
C20   C26   S    
C3    C10   A    
C25   C33   S    
C21   C22   A    
Cu1   O1    S    
C11   C13   A    
C11   C19   S    
Cu1   O7    S    
C21   H6    S    
C19   H5    S    
Cu1   O5    S    
Cu2   O6    S    
C23   O6    A    
C5    C6    A    
C10   C12   S    
C28   F2    S    
C2    C32   A    
C21   N1    A    
C30   F3    S    
C18   H3    S    
C26   H9    S    
Cu1   Cu2   S    
C16   C23   S    
C3    C7    A    
C31   H14   S    
C33   H16   S    
C1    O1    A    
C8    H12   S    
Cu2   N1    S    
C22   H7    S    
C1    C13   S    
C8    C29   A    
C15   C16   A    
C12   O4    A    
C16   C17   A    
C32   H13   S    
C24   C25   S    
C7    H15   S    
Cu2   O2    S    
C20   N1    A    
C18   C19   S    
C15   H1    S    
Cu1   O3    S    
C33   H17   S    
C1    O2    A    
C14   C15   A    
C22   N2    A    
C6    H10   S    
C26   H11   S    
C25   C26   S    
C13   C14   A    
Cu2   O8    S    
C18   H2    S    
C11   C17   A    
Cu1   N2    S    
C20   C24   A    
C9    C28   A    
C4    C5    A    
C12   O3    A    
C27   O7    A    
