data_mof_unit_27538.cif
_audit_creation_date              2012-12-11T14:43:51-0500
_audit_creation_method            fapswitch 2.2
_symmetry_space_group_name_H-M    P1
_symmetry_Int_Tables_number       1
_space_group_crystal_system       triclinic
_cell_length_a                    8.71084
_cell_length_b                    15.083623
_cell_length_c                    18.693809
_cell_angle_alpha                 96.61554
_cell_angle_beta                  93.634648
_cell_angle_gamma                 100.837942
_cell_volume                      2387.20047542

loop_
_atom_site_label
_atom_site_type_symbol
_atom_type_description
_atom_site_fract_x
_atom_site_fract_y
_atom_site_fract_z
_atom_type_partial_charge
Ba1   Ba    Ba6+2 0.852920 0.542430 0.466290 1.749386
Ba2   Ba    Ba6+2 0.336920 0.457650 0.533720 1.689881
C1    C     C_3   0.699756 0.885111 0.278448 0.641953
C2    C     C_3   0.428787 0.551418 0.245570 -0.071524
C3    C     C_2   0.367876 0.546967 0.167580 -0.056747
C4    C     C_3   0.130796 0.767452 0.266089 0.758818
C5    C     C_2   0.210113 0.519474 0.149454 -0.031612
C6    C     C_2   0.102964 0.489389 0.206945 -0.187929
C7    C     C_1   0.157280 0.488053 0.275375 0.063379
C8    C     C_R   0.035744 0.507936 0.931585 0.448873
C9    C     C_R   0.142166 0.517214 0.073499 0.470376
C10   C     C_R   0.075513 0.536693 0.802689 -0.101441
C11   C     C_R   0.028229 0.521482 0.727945 0.099005
C12   C     C_3   0.630304 0.781006 0.274776 0.356636
C13   C     C_R   0.768481 0.440347 0.755182 -0.001691
C14   C     C_R   0.816808 0.457637 0.830246 -0.016535
C15   C     C_R   0.974457 0.501776 0.853920 -0.027367
C16   C     C_3   0.144410 0.831433 0.202429 0.131883
C17   C     C_R   0.875806 0.470848 0.705166 -0.263620
C18   C     C_R   0.732263 0.239814 0.544908 -0.235931
C19   C     C_R   0.822740 0.182430 0.575177 -0.036226
C20   C     C_R   0.764942 0.088060 0.563630 -0.138295
C21   C     C_R   0.636164 0.048895 0.511857 0.056455
C22   C     C_R   0.569512 0.108865 0.472043 -0.062693
C23   C     C_3   0.495313 0.306037 0.295072 0.655199
C24   C     C_R   0.606327 0.202980 0.491737 -0.017724
C25   C     C_R   0.405433 0.916541 0.473618 0.290674
C26   C     C_R   0.343545 0.822402 0.454341 -0.097383
C27   C     C_R   0.588596 0.787563 0.505735 0.140396
C28   C     C_3   0.242086 0.741212 0.625335 0.683455
C29   C     C_R   0.658872 0.880438 0.512234 0.220779
C30   C     C_R   0.566971 0.947367 0.499517 -0.081012
C31   C     C_R   0.434906 0.759258 0.472590 -0.339069
C32   C     C_3   0.231362 0.842452 0.639339 0.644843
C33   C     C_3   0.967562 0.233709 0.352844 0.307620
C34   C     C_3   0.589599 0.276325 0.230916 0.268312
C35   C     C_3   0.092773 0.173927 0.343713 0.216207
C36   C     C_3   0.765042 0.703780 0.700922 0.664647
C37   C     C_3   0.827792 0.770887 0.771842 0.722872
C38   C     C_3   0.812352 0.166921 0.328560 -0.367289
C39   C     C_3   0.964168 0.270459 0.431290 -0.206667
C40   C     C_3   0.636600 0.627817 0.718143 -0.373558
C41   C     C_3   0.705723 0.826771 0.798327 -0.354892
C42   C     C_3   0.333017 0.314659 0.264351 -0.349719
C43   C     C_3   0.527869 0.177386 0.195135 -0.472411
C44   C     C_3   0.698914 0.918471 0.203170 -0.231790
C45   C     C_3   0.032110 0.219697 0.747063 0.400119
C46   C     C_3   0.260757 0.810888 0.146066 -0.428448
C47   C     C_3   0.079669 0.318013 0.781806 -0.324446
C48   C     C_3   0.196158 0.183920 0.856927 -0.311009
C49   C     C_3   0.047496 0.053792 0.763085 -0.245079
C50   C     C_3   0.436369 0.167323 0.640089 -0.200147
C51   C     C_3   0.636463 0.064867 0.733750 -0.380145
C52   C     C_3   0.625105 0.188499 0.836414 -0.167554
C53   C     C_3   0.486317 0.564924 0.112474 -0.349432
C54   C     C_3   0.701238 0.433964 0.885870 -0.382112
C55   C     C_3   0.286704 0.742046 0.281710 -0.423801
C56   C     C_3   0.048848 0.150163 0.803043 0.363743
C57   C     C_3   0.986105 0.818127 0.157668 -0.272695
C58   C     C_3   0.197002 0.933098 0.233928 -0.385420
C59   C     C_3   0.537002 0.210655 0.709889 0.416396
C60   C     C_3   0.546185 0.138461 0.763211 0.367635
C61   C     C_2   0.304596 0.529528 0.299078 0.151967
H1    H     H_    0.582756 0.771070 0.327778 -0.058498
H2    H     H_    0.193093 0.573704 0.820776 0.082211
H3    H     H_    0.837451 0.458952 0.648118 0.045344
H4    H     H_    0.824941 0.046744 0.594482 0.116348
H5    H     H_    0.487112 0.083174 0.425267 0.140676
H6    H     H_    0.380909 0.688070 0.467007 0.159395
H7    H     H_    0.772522 0.312801 0.555361 0.056169
H8    H     H_    0.173464 0.711154 0.573184 0.028149
H9    H     H_    0.398660 0.890146 0.715623 0.264627
H10   H     H_    0.078777 0.917971 0.625432 0.330510
H11   H     H_    0.802973 0.144725 0.269439 0.114296
H12   H     H_    0.305979 0.881000 0.602574 -0.064445
H13   H     H_    0.799244 0.105176 0.356570 0.149581
H14   H     H_    0.715372 0.199005 0.343203 0.095284
H15   H     H_    0.875842 0.314368 0.437506 0.038714
H16   H     H_    0.933743 0.211074 0.459590 0.091938
H17   H     H_    0.079225 0.308101 0.455230 0.173301
H18   H     H_    0.040809 0.050069 0.367507 0.327027
H19   H     H_    0.847383 0.616469 0.636656 0.258290
H20   H     H_    0.600655 0.576829 0.669671 0.152881
H21   H     H_    0.679506 0.593294 0.761877 0.079708
H22   H     H_    0.535693 0.655633 0.737119 0.095177
H23   H     H_    0.083643 0.139075 0.287130 0.009400
H24   H     H_    0.849239 0.887537 0.361108 0.316630
H25   H     H_    0.052894 0.809857 0.767760 0.395620
H26   H     H_    0.785221 0.701189 0.854589 0.276826
H27   H     H_    0.668202 0.864991 0.755329 0.105439
H28   H     H_    0.600521 0.783273 0.815289 0.045967
H29   H     H_    0.759081 0.876985 0.845691 0.130848
H30   H     H_    0.615519 0.921839 0.368616 0.268148
H31   H     H_    0.262874 0.248265 0.238988 0.076555
H32   H     H_    0.276482 0.343448 0.309714 0.068886
H33   H     H_    0.339100 0.361960 0.223095 0.053568
H34   H     H_    0.207030 0.216862 0.353193 0.131977
H35   H     H_    0.573694 0.433715 0.294803 0.305042
H36   H     H_    0.610043 0.157935 0.155869 0.138346
H37   H     H_    0.518489 0.129090 0.235897 0.141252
H38   H     H_    0.410725 0.169854 0.165521 0.111481
H39   H     H_    0.506218 0.319609 0.143739 0.304618
H40   H     H_    0.601214 0.955074 0.194359 0.105124
H41   H     H_    0.809230 0.967424 0.198462 0.104007
H42   H     H_    0.682612 0.861926 0.158074 0.020194
H43   H     H_    0.236981 0.737597 0.124619 0.156746
H44   H     H_    0.250847 0.849675 0.099397 0.137406
H45   H     H_    0.544084 0.763281 0.227701 -0.079922
H46   H     H_    0.383291 0.831831 0.169503 0.112698
H47   H     H_    0.011658 0.329287 0.828955 0.089942
H48   H     H_    0.206868 0.338189 0.798659 0.142669
H49   H     H_    0.054964 0.360567 0.740535 0.070985
H50   H     H_    0.229037 0.128016 0.884625 0.129899
H51   H     H_    0.295283 0.216722 0.829751 0.179522
H52   H     H_    0.173850 0.236302 0.899806 0.109989
H53   H     H_    0.928555 0.097016 0.878118 0.305931
H54   H     H_    0.097776 0.011121 0.799277 0.166073
H55   H     H_    0.926631 0.017137 0.745054 0.121250
H56   H     H_    0.711267 0.281054 0.252881 0.149130
H57   H     H_    0.111080 0.055363 0.713946 0.119298
H58   H     H_    0.490084 0.114977 0.611744 0.039719
H59   H     H_    0.319522 0.131620 0.650339 0.151897
H60   H     H_    0.422480 0.219139 0.604211 0.149840
H61   H     H_    0.661887 0.023294 0.776631 0.148500
H62   H     H_    0.568029 0.017951 0.687817 0.079679
H63   H     H_    0.744754 0.094009 0.712035 0.085090
H64   H     H_    0.355159 0.045599 0.735938 0.322397
H65   H     H_    0.013145 0.648919 0.281526 0.335153
H66   H     H_    0.548563 0.230232 0.863539 0.085440
H67   H     H_    0.908043 0.211851 0.727728 -0.038788
H68   H     H_    0.647258 0.139437 0.873925 0.139685
H69   H     H_    0.734433 0.236274 0.828959 0.098336
H70   H     H_    0.439878 0.534276 0.056770 0.122927
H71   H     H_    0.527180 0.639427 0.113848 0.112825
H72   H     H_    0.588487 0.533547 0.125158 0.151104
H73   H     H_    0.577264 0.416094 0.864037 0.132103
H74   H     H_    0.726136 0.374839 0.911256 0.132399
H75   H     H_    0.710196 0.493223 0.928179 0.124640
H76   H     H_    0.417668 0.514852 0.385279 0.334070
H77   H     H_    0.220808 0.957922 0.436090 0.330982
H78   H     H_    0.658137 0.236182 0.695789 -0.152044
H79   H     H_    0.861208 0.948912 0.498840 0.311714
H80   H     H_    0.366619 0.807460 0.299758 0.066821
H81   H     H_    0.290256 0.697460 0.323796 0.098416
H82   H     H_    0.314051 0.701579 0.233296 0.080130
H83   H     H_    0.981714 0.873593 0.123683 0.076280
H84   H     H_    0.959707 0.751999 0.121785 0.140844
H85   H     H_    0.895027 0.816078 0.194504 0.191129
H86   H     H_    0.309071 0.944589 0.268475 0.148379
H87   H     H_    0.214902 0.977027 0.190118 0.103728
H88   H     H_    0.108239 0.956897 0.266812 0.179760
H89   H     H_    0.978106 0.467663 0.191517 0.148652
H90   H     H_    0.448972 0.755701 0.669816 0.283109
N1    N     N_R   0.134781 0.583516 0.965705 -0.233256
N2    N     N_R   0.186652 0.587904 0.035088 -0.258175
N3    N     N_R   0.043633 0.441714 0.039390 -0.237791
N4    N     N_R   0.992425 0.437245 0.970037 -0.252779
O1    O     O_2   0.864880 0.449170 0.328210 -0.409749
O2    O     O_2   0.126244 0.174176 0.550974 -0.424556
O3    O     O_3   0.124424 0.206788 0.688792 -0.607253
O4    O     O_3   0.117570 0.450680 0.415600 -0.467402
O5    O     O_3   0.583420 0.609160 0.536870 -0.494245
O6    O     O_2   0.332740 0.278830 0.463690 -0.463707
O7    O     O_3   0.479112 0.239249 0.343978 -0.678389
O8    O     O_2   0.451146 0.451849 0.750279 -0.480180
O9    O     O_3   0.471858 0.282485 0.743327 -0.593692
O10   O     O_3   0.658480 0.614010 0.372860 -0.454825
O11   O     O_2   0.751720 0.551284 0.251605 -0.445324
O12   O     O_3   0.705084 0.753559 0.650138 -0.612414
O13   O     O_3   0.989415 0.302653 0.305655 -0.664674
O14   O     O_3   0.733876 0.721680 0.263148 -0.559528
O15   O     O_2   0.856970 0.721200 0.536350 -0.375504
O16   O     O_3   0.083060 0.660780 0.408640 -0.471168
O17   O     O_2   0.025913 0.818133 0.465149 -0.419361
O18   O     O_3   0.282467 0.877899 0.711476 -0.737590
O19   O     O_3   0.076145 0.851848 0.624943 -0.618382
O20   O     O_3   0.085870 0.111024 0.393978 -0.709798
O21   O     O_3   0.889682 0.668013 0.674839 -0.704428
O22   O     O_3   0.853153 0.905621 0.311742 -0.737192
O23   O     O_3   0.082095 0.814094 0.329514 -0.588868
O24   O     O_3   0.957435 0.834390 0.756819 -0.661127
O25   O     O_3   0.876168 0.722926 0.827404 -0.749498
O26   O     O_3   0.606305 0.935459 0.318460 -0.786109
O27   O     O_3   0.572562 0.390572 0.330232 -0.695594
O28   O     O_3   0.600114 0.337613 0.179017 -0.736679
O29   O     O_3   0.920352 0.143075 0.844755 -0.788001
O30   O     O_3   0.396436 0.094088 0.776389 -0.748265
O31   O     O_3   0.021040 0.687049 0.241839 -0.710107
O32   O     O_3   0.344589 0.554257 0.371690 -0.730719
O33   O     O_3   0.307614 0.978859 0.474438 -0.712513
O34   O     O_2   0.324830 0.550860 0.671840 -0.460605
O35   O     O_3   0.817808 0.903183 0.530121 -0.681740
O36   O     O_3   0.397319 0.735114 0.620471 -0.828231
O37   O     O_3   0.072140 0.549400 0.584410 -0.501571
O38   O     O_3   0.531230 0.386060 0.627150 -0.478870
O39   O     O_3   0.188302 0.696345 0.683073 -0.587133
O40   O     O_3   0.606300 0.390910 0.463140 -0.427083
O41   O     O_3   0.106650 0.339290 0.591370 -0.477358
P1    P     P_3+3 0.032340 0.422550 0.338860 1.020878
P2    P     P_3+3 0.682000 0.708060 0.557320 1.139452
P3    P     P_3+3 0.135864 0.779177 0.414298 0.974186
P4    P     P_3+3 0.157370 0.577530 0.661150 1.062241
P5    P     P_3+3 0.037218 0.226294 0.605509 0.926261
P6    P     P_3+3 0.638677 0.612271 0.279586 1.000518
P7    P     P_3+3 0.505505 0.277310 0.439221 1.001508
P8    P     P_3+3 0.560046 0.389229 0.720045 0.935155

loop_
_geom_bond_atom_site_label_1
_geom_bond_atom_site_label_2
_ccdc_geom_bond_type
C44   H41   S    
C36   O21   S    
C59   O9    S    
C55   H82   S    
C56   O29   S    
Ba2   O40   S    
H77   O33   S    
C19   P5    S    
O40   P7    S    
Ba2   P4    S    
C8    N1    A    
C39   H17   S    
C35   H34   S    
C28   H8    S    
C5    C6    S    
C45   C47   S    
C5    C9    S    
C52   H68   S    
C47   H47   S    
C2    C61   S    
Ba1   O16   S    
C26   P3    S    
Ba1   O1    S    
C33   C35   S    
C22   C24   A    
Ba1   Ba2   S    
O7    P7    S    
C36   C37   S    
C50   H60   S    
C2    P6    S    
C28   O36   S    
Ba1   O10   S    
C8    C15   S    
C13   C14   A    
O37   P4    S    
C44   H42   S    
C27   C31   A    
C49   H55   S    
C11   P4    S    
C23   C42   S    
C17   H3    S    
O16   P3    S    
C48   H52   S    
C51   C60   S    
H9    O18   S    
O14   P6    S    
C34   H56   S    
C1    O22   S    
C32   O18   S    
C51   H62   S    
C50   H59   S    
C46   H43   S    
C14   C15   A    
C10   C15   A    
H64   O30   S    
C21   C22   A    
O15   P2    D    
O34   P4    D    
O8    P8    D    
C23   O27   S    
C9    N2    A    
C32   H12   S    
C47   H48   S    
C57   H85   S    
C12   H45   S    
C46   H46   S    
Ba1   O4    S    
H65   O31   S    
C19   C20   A    
C4    C55   S    
C18   H7    S    
Ba1   P1    S    
O3    P5    S    
Ba2   O4    S    
O13   P1    S    
C54   H73   S    
C49   H57   S    
C45   O3    S    
C37   O25   S    
C4    C16   S    
C28   O39   S    
C41   H27   S    
C28   C32   S    
C45   H67   S    
H39   O28   S    
C35   H23   S    
C40   H21   S    
Ba2   O34   S    
O23   P3    S    
C43   H36   S    
C40   H22   S    
C39   H15   S    
C3    C5    D    
O4    P1    S    
C6    C7    D    
C11   C17   A    
C37   C41   S    
C52   C60   S    
C61   O32   S    
H53   O29   S    
C29   O35   S    
O6    P7    D    
O17   P3    D    
C41   H28   S    
O11   P6    D    
Ba2   O37   S    
C58   H88   S    
C48   C56   S    
C13   C17   A    
C14   C54   S    
C32   O19   S    
C39   H16   S    
C42   H33   S    
C54   H75   S    
C50   H58   S    
O2    P5    D    
C29   C30   A    
C27   P2    S    
H79   O35   S    
H19   O21   S    
O1    P1    D    
C34   C43   S    
C49   C56   S    
C58   H87   S    
O10   P6    S    
C43   H37   S    
C8    N4    A    
N1    N2    A    
C37   O24   S    
C1    C12   S    
C43   H38   S    
C9    N3    A    
C47   H49   S    
C12   H1    S    
C4    O31   S    
C16   C58   S    
C25   O33   S    
Ba1   O5    S    
O12   P2    S    
C24   P7    S    
O39   P4    S    
C25   C26   A    
C52   H69   S    
C36   O12   S    
C44   H40   S    
C59   H78   S    
C52   H66   S    
N3    N4    A    
C1    C44   S    
C55   H81   S    
C4    O23   S    
C25   C30   A    
Ba2   O41   S    
C7    C61   D    
C3    C53   S    
Ba1   O40   S    
C40   H20   S    
O9    P8    S    
C12   O14   S    
H76   O32   S    
C51   H61   S    
C16   C46   S    
Ba2   O6    S    
C26   C31   A    
C36   C40   S    
Ba2   O38   S    
C31   H6    S    
C53   H71   S    
C35   O20   S    
C10   H2    S    
Ba1   O15   S    
C41   H29   S    
C50   C59   S    
C48   H50   S    
H26   O25   S    
H10   O19   S    
Ba1   O37   S    
H18   O20   S    
C27   C29   A    
C42   H32   S    
C53   H70   S    
C21   C30   S    
C45   C56   S    
C54   H74   S    
H30   O26   S    
H25   O24   S    
O38   P8    S    
C18   C24   A    
C6    H89   S    
C53   H72   S    
O5    P2    S    
C46   H44   S    
C49   H54   S    
C38   H11   S    
C33   C38   S    
C58   H86   S    
C38   H14   S    
H35   O27   S    
C59   C60   S    
C33   C39   S    
C20   H4    S    
C13   P8    S    
C42   H31   S    
C51   H63   S    
C22   H5    S    
C23   C34   S    
H24   O22   S    
Ba1   P2    S    
C57   H83   S    
C38   H13   S    
C16   C57   S    
C2    C3    S    
H90   O36   S    
C10   C11   A    
C18   C19   A    
O41   P5    S    
C33   O13   S    
C20   C21   A    
C34   O28   S    
C23   O7    S    
C48   H51   S    
Ba2   O5    S    
C1    O26   S    
C7    P1    S    
C55   H80   S    
C60   O30   S    
C57   H84   S    
