data_mof_unit_35299.cif
_audit_creation_date              2012-12-10T17:41:03-0500
_audit_creation_method            fapswitch 2.2
_symmetry_space_group_name_H-M    P1
_symmetry_Int_Tables_number       1
_space_group_crystal_system       triclinic
_cell_length_a                    14.977718
_cell_length_b                    15.176777
_cell_length_c                    9.946942
_cell_angle_alpha                 90.366018
_cell_angle_beta                  90.062487
_cell_angle_gamma                 90.084524
_cell_volume                      2261.02409692

loop_
_atom_site_label
_atom_site_type_symbol
_atom_type_description
_atom_site_fract_x
_atom_site_fract_y
_atom_site_fract_z
_atom_type_partial_charge
C1    C     C_R   0.381580 0.879103 0.499575 0.947939
C2    C     C_R   0.674541 0.260190 0.564594 -0.280398
C3    C     C_R   0.180773 0.246010 0.421992 -0.269976
C4    C     C_R   0.174552 0.760179 0.564619 -0.280395
C5    C     C_R   0.693382 0.821841 0.498625 -0.183247
C6    C     C_R   0.691515 0.180086 0.501277 -0.182467
C7    C     C_R   0.193385 0.321844 0.498623 -0.183256
C8    C     C_R   0.191519 0.680082 0.501279 -0.182480
C9    C     C_R   0.337000 0.998248 0.139085 -0.041795
C10   C     C_R   0.837000 0.498249 0.139085 -0.041810
C11   C     C_R   0.256565 0.998056 0.069111 -0.158804
C12   C     C_R   0.382231 0.121599 0.500541 0.946970
C13   C     C_R   0.756564 0.498056 0.069111 -0.158812
C14   C     C_R   0.256510 0.999311 0.930063 -0.180332
C15   C     C_R   0.756510 0.499310 0.930063 -0.180348
C16   C     C_R   0.336888 0.000293 0.860278 -0.060357
C17   C     C_R   0.836888 0.500292 0.860278 -0.060374
C18   C     C_R   0.419683 0.999927 0.927698 0.111515
C19   C     C_R   0.919682 0.499927 0.927698 0.111525
C20   C     C_R   0.419729 0.999437 0.071961 0.012213
C21   C     C_R   0.919729 0.499437 0.071961 0.012218
C22   C     C_R   0.576916 0.000213 0.071448 0.666457
C23   C     C_R   0.881578 0.379105 0.499576 0.947951
C24   C     C_R   0.076916 0.500213 0.071448 0.666456
C25   C     C_R   0.621176 0.118085 0.500333 0.859629
C26   C     C_R   0.622139 0.882913 0.499700 0.864260
C27   C     C_R   0.121178 0.618083 0.500333 0.859627
C28   C     C_R   0.122140 0.382914 0.499700 0.864257
C29   C     C_R   0.576799 0.000115 0.928544 -0.202599
C30   C     C_R   0.076799 0.500115 0.928544 -0.202597
C31   C     C_R   0.416523 0.284625 0.649090 -0.150862
C32   C     C_R   0.422219 0.710150 0.376116 -0.146789
C33   C     C_R   0.916531 0.784631 0.649059 -0.150853
C34   C     C_R   0.882230 0.621598 0.500540 0.946984
C35   C     C_R   0.922231 0.210141 0.376167 -0.146777
C36   C     C_R   0.431472 0.363858 0.717255 -0.113670
C37   C     C_R   0.440401 0.627758 0.319645 -0.133069
C38   C     C_R   0.931484 0.863867 0.717213 -0.113676
C39   C     C_R   0.940419 0.127743 0.319716 -0.133072
C40   C     C_R   0.867794 0.930343 0.713145 -0.114633
C41   C     C_R   0.876153 0.061524 0.323165 -0.096127
C42   C     C_R   0.367784 0.430336 0.713181 -0.114630
C43   C     C_R   0.376138 0.561536 0.323103 -0.096115
C44   C     C_R   0.788698 0.917534 0.641740 -0.166206
C45   C     C_R   0.243092 0.180658 0.424927 0.620054
C46   C     C_R   0.793404 0.077731 0.382301 -0.096134
C47   C     C_R   0.288694 0.417531 0.641759 -0.166197
C48   C     C_R   0.293397 0.577736 0.382266 -0.096117
C49   C     C_R   0.772011 0.837073 0.573299 0.097114
C50   C     C_R   0.773773 0.161230 0.439022 0.075712
C51   C     C_R   0.272010 0.337073 0.573310 0.097116
C52   C     C_R   0.273771 0.661232 0.439004 0.075708
C53   C     C_R   0.336782 0.270323 0.575753 0.021921
C54   C     C_R   0.338847 0.727721 0.436841 0.019568
C55   C     C_R   0.836784 0.770325 0.575738 0.021917
C56   C     C_R   0.237765 0.825108 0.562729 0.614560
C57   C     C_R   0.838851 0.227718 0.436865 0.019567
C58   C     C_R   0.320118 0.192029 0.501730 -0.242524
C59   C     C_R   0.318809 0.809407 0.498571 -0.236195
C60   C     C_R   0.820116 0.692026 0.501729 -0.242525
C61   C     C_R   0.818806 0.309410 0.498572 -0.236198
C62   C     C_R   0.743084 0.680650 0.424944 0.620067
C63   C     C_R   0.737755 0.325119 0.562706 0.614563
C64   C     C_R   0.680763 0.746001 0.422011 -0.269973
F1    F     F_    0.226425 0.104607 0.356828 -0.695045
F2    F     F_    0.218803 0.904491 0.619644 -0.692136
F3    F     F_    0.726413 0.604593 0.356859 -0.695024
F4    F     F_    0.718789 0.404507 0.619602 -0.692111
F5    F     F_    0.655879 0.000298 0.138001 -0.664026
F6    F     F_    0.155879 0.500297 0.138000 -0.664037
H1    H     H_    0.193809 0.999454 0.875762 0.189961
H2    H     H_    0.611397 0.273335 0.612954 0.160563
H3    H     H_    0.121314 0.236148 0.362201 0.163415
H4    H     H_    0.111415 0.773319 0.612999 0.160567
H5    H     H_    0.331720 0.997470 0.245450 0.246219
H6    H     H_    0.831720 0.497472 0.245450 0.246218
H7    H     H_    0.639645 0.000170 0.875003 0.172718
H8    H     H_    0.139645 0.500170 0.875003 0.172716
H9    H     H_    0.468248 0.235531 0.653814 0.150378
H10   H     H_    0.473882 0.759505 0.372702 0.142007
H11   H     H_    0.968256 0.735538 0.653778 0.150365
H12   H     H_    0.693809 0.499453 0.875762 0.189959
H13   H     H_    0.973895 0.259496 0.372759 0.141989
H14   H     H_    0.493033 0.373946 0.772427 0.150657
H15   H     H_    0.504707 0.615101 0.273898 0.162070
H16   H     H_    0.993050 0.873959 0.772372 0.150667
H17   H     H_    0.004732 0.115081 0.273991 0.162085
H18   H     H_    0.742091 0.971778 0.638760 0.139054
H19   H     H_    0.745924 0.024077 0.384842 0.167896
H20   H     H_    0.242089 0.471777 0.638773 0.139053
H21   H     H_    0.245921 0.524080 0.384816 0.167906
H22   H     H_    0.193897 0.997106 0.123265 0.188302
H23   H     H_    0.331408 0.001352 0.753870 0.243985
H24   H     H_    0.693897 0.497107 0.123265 0.188305
H25   H     H_    0.831407 0.501351 0.753870 0.243979
H26   H     H_    0.879910 0.992238 0.764745 0.146383
H27   H     H_    0.890548 0.997312 0.280489 0.153636
H28   H     H_    0.379898 0.492228 0.764788 0.146380
H29   H     H_    0.390528 0.497328 0.280411 0.153637
H30   H     H_    0.621298 0.736134 0.362236 0.163403
N1    N     N_R   0.498810 1.000000 0.142780 -0.173939
N2    N     N_R   0.998810 0.500000 0.142780 -0.173937
N3    N     N_R   0.498740 0.000000 0.857170 -0.151409
N4    N     N_R   0.998740 0.500000 0.857170 -0.151409
O1    O     O_R   0.408390 0.908380 0.614690 -0.610417
O2    O     O_R   0.591620 0.908390 0.614640 -0.618653
O3    O     O_R   0.091620 0.591610 0.614640 -0.636000
O4    O     O_R   0.091620 0.408390 0.614640 -0.618653
O5    O     O_R   0.591610 0.091610 0.385310 -0.571610
O6    O     O_R   0.591610 0.908390 0.385310 -0.586789
O7    O     O_R   0.091610 0.591610 0.385310 -0.571614
O8    O     O_R   0.091610 0.408390 0.385310 -0.586790
O9    O     O_R   0.408390 0.091620 0.614690 -0.653320
O10   O     O_R   0.908390 0.408380 0.614690 -0.610434
O11   O     O_R   0.908390 0.591620 0.614690 -0.653311
O12   O     O_R   0.408370 0.908380 0.385360 -0.656961
O13   O     O_R   0.408370 0.091620 0.385360 -0.609227
O14   O     O_R   0.908370 0.408380 0.385360 -0.656948
O15   O     O_R   0.908370 0.591620 0.385360 -0.609241
O16   O     O_R   0.591620 0.091610 0.614640 -0.636000
Zn1   Zn    Zn3+2 0.500010 1.000000 0.653130 0.944650
Zn2   Zn    Zn3+2 0.000010 0.500000 0.653130 0.944651
Zn3   Zn    Zn3+2 0.499980 0.000000 0.346870 0.995892
Zn4   Zn    Zn3+2 0.999980 0.500000 0.346870 0.995893

loop_
_geom_bond_atom_site_label_1
_geom_bond_atom_site_label_2
_ccdc_geom_bond_type
C44   C49   A    
C33   C55   A    
O12   Zn3   S    
C14   H1    S    
C36   C42   A    
C39   H17   S    
C4    C8    A    
C26   O2    A    
C23   O14   A    
C24   F6    S    
C39   C41   A    
C46   H19   S    
C22   C29   A    
O15   Zn4   S    
C28   O8    A    
C16   H23   S    
N1    Zn3   S    
C22   N1    A    
C62   F3    S    
C38   H16   S    
C37   H15   S    
C19   C21   A    
C43   H29   S    
O8    Zn4   S    
C3    C7    A    
C42   H28   S    
C11   C14   A    
N2    Zn4   S    
C6    C25   S    
N4    Zn2   S    
C29   N3    A    
C60   C62   A    
C61   C63   A    
C62   C64   A    
C10   H6    S    
C11   H22   S    
C48   H21   S    
C41   C46   A    
C17   H25   S    
C1    O12   A    
C43   C48   A    
C8    C52   A    
C22   F5    S    
C4    H4    S    
C25   O5    A    
C18   N3    A    
C12   C58   S    
O7    Zn4   S    
C27   O7    A    
O11   Zn2   S    
C55   C60   A    
C4    C56   A    
C34   C60   S    
C5    C49   A    
C2    C6    A    
C40   H26   S    
C2    H2    S    
C32   C54   A    
C52   C54   A    
C15   H12   S    
C40   C44   A    
C54   C59   A    
C10   C21   A    
C45   C58   A    
C35   H13   S    
O5    Zn3   S    
C47   C51   A    
C20   N1    A    
C34   O11   A    
C49   C55   A    
C3    C45   A    
C6    C50   A    
C7    C28   S    
C12   O13   A    
C5    C64   A    
C51   C53   A    
O10   Zn2   S    
C37   C43   A    
C35   C39   A    
O6    Zn3   S    
C32   H10   S    
C24   N2    A    
C19   N4    A    
C9    C20   A    
C27   O3    A    
O16   Zn1   S    
O1    Zn1   S    
O14   Zn4   S    
C32   C37   A    
C31   C53   A    
C57   C61   A    
C9    C11   A    
C21   N2    A    
C13   C15   A    
C45   F1    S    
C47   H20   S    
C41   H27   S    
N3    Zn1   S    
C25   O16   A    
C2    C63   A    
C12   O9    A    
C23   C61   S    
C34   O15   A    
C15   C17   A    
C26   O6    A    
C63   F4    S    
C14   C16   A    
C50   C57   A    
C36   H14   S    
O4    Zn2   S    
C10   C13   A    
C53   C58   A    
C31   H9    S    
O9    Zn1   S    
C46   C50   A    
C33   C38   A    
C56   C59   A    
C13   H24   S    
C35   C57   A    
C1    C59   S    
O13   Zn3   S    
C64   H30   S    
C7    C51   A    
C23   O10   A    
C38   C40   A    
C28   O4    A    
C56   F2    S    
O2    Zn1   S    
C17   C19   A    
C18   C20   A    
C42   C47   A    
C3    H3    S    
C24   C30   A    
C5    C26   S    
C30   H8    S    
C48   C52   A    
C29   H7    S    
C16   C18   A    
C30   N4    A    
C8    C27   S    
C31   C36   A    
C9    H5    S    
O3    Zn2   S    
C44   H18   S    
C33   H11   S    
C1    O1    A    
