data_mof_unit_16351.cif
_audit_creation_date              2012-12-10T17:32:16-0500
_audit_creation_method            fapswitch 2.2
_symmetry_space_group_name_H-M    P1
_symmetry_Int_Tables_number       1
_space_group_crystal_system       triclinic
_cell_length_a                    12.355271
_cell_length_b                    13.163427
_cell_length_c                    15.025764
_cell_angle_alpha                 77.314346
_cell_angle_beta                  101.341282
_cell_angle_gamma                 116.364286
_cell_volume                      2122.34772988

loop_
_atom_site_label
_atom_site_type_symbol
_atom_type_description
_atom_site_fract_x
_atom_site_fract_y
_atom_site_fract_z
_atom_type_partial_charge
C1    C     C_R   0.854847 0.286403 0.507566 0.813018
C2    C     C_R   0.044859 0.609905 0.078666 0.101887
C3    C     C_R   0.957731 0.298704 0.081273 -0.290919
C4    C     C_R   0.951411 0.293325 0.988604 0.530167
C5    C     C_R   0.974729 0.394394 0.923602 -0.075921
C6    C     C_R   0.012046 0.500976 0.954584 -0.110813
C7    C     C_R   0.043764 0.603935 0.891662 0.041150
C8    C     C_R   0.082809 0.708507 0.923188 -0.251949
C9    C     C_R   0.090914 0.713517 0.016056 0.024340
C10   C     C_R   0.963237 0.392186 0.828623 0.377517
C11   C     C_R   0.998168 0.496085 0.767473 -0.268911
C12   C     C_R   0.997091 0.495851 0.670949 0.902842
C13   C     C_R   0.041317 0.601666 0.798432 0.401326
C14   C     C_R   0.268347 0.035968 0.418610 -0.263285
C15   C     C_R   0.226204 0.836786 0.473928 -0.178433
C16   C     C_R   0.815871 0.083202 0.562449 -0.380780
C17   C     C_R   0.736514 0.971442 0.593278 -0.051828
C18   C     C_R   0.610101 0.940213 0.578288 0.526649
C19   C     C_R   0.562771 0.013868 0.515594 -0.052525
C20   C     C_R   0.645874 0.125584 0.482215 0.011534
C21   C     C_R   0.436030 0.982345 0.486782 0.045363
C22   C     C_R   0.394057 0.066876 0.440072 0.072288
C23   C     C_R   0.144740 0.713818 0.486337 0.835391
C24   C     C_R   0.479119 0.177254 0.408199 0.033409
C25   C     C_R   0.601036 0.198907 0.420100 -0.267253
C26   C     C_R   0.350824 0.867981 0.497666 -0.294796
C27   C     C_R   0.183383 0.921367 0.434095 0.486400
C28   C     C_R   0.771709 0.163096 0.513745 -0.087689
C29   C     C_R   0.353244 0.336474 0.651136 -0.284606
C30   C     C_R   0.765333 0.652656 0.381668 0.056664
C31   C     C_R   0.686059 0.704454 0.370595 -0.370941
C32   C     C_R   0.586174 0.656958 0.422575 0.537441
C33   C     C_R   0.561803 0.549315 0.479912 -0.068274
C34   C     C_R   0.001957 0.502412 0.329197 0.830919
C35   C     C_R   0.655575 0.509126 0.497637 0.213448
C36   C     C_R   0.452572 0.483655 0.525686 -0.052781
C37   C     C_R   0.452466 0.396086 0.599961 0.127642
C38   C     C_R   0.550487 0.366626 0.622129 -0.210332
C39   C     C_R   0.647812 0.419455 0.570580 -0.113806
C40   C     C_R   0.339871 0.494885 0.498622 0.701942
C41   C     C_R   0.252140 0.360995 0.627900 -0.023339
C42   C     C_R   0.026933 0.606784 0.169920 -0.109519
C43   C     C_R   0.005335 0.504843 0.232667 -0.261578
C44   C     C_R   0.985519 0.402974 0.204123 0.447308
C45   C     C_R   0.986173 0.401792 0.111417 -0.044499
C46   C     C_R   0.014677 0.504386 0.048314 -0.007436
Cu1   Cu    Cu3+1 0.098270 0.475420 0.521130 0.988854
Cu2   Cu    Cu3+1 0.901730 0.524580 0.478870 0.972823
H1    H     H_    0.234739 0.099354 0.386387 0.202540
H2    H     H_    0.381053 0.800453 0.518453 0.265508
H3    H     H_    0.912734 0.109856 0.581926 0.172269
H4    H     H_    0.660526 0.277001 0.382003 0.156372
H5    H     H_    0.177032 0.316449 0.668491 0.123833
H6    H     H_    0.550583 0.299341 0.678681 0.151924
H7    H     H_    0.353989 0.271137 0.709190 0.146859
H8    H     H_    0.843008 0.691886 0.343308 0.172791
H9    H     H_    0.708074 0.785183 0.325108 0.147238
H10   H     H_    0.717076 0.389253 0.592544 0.202600
H11   H     H_    0.936336 0.220019 0.129456 0.191051
H12   H     H_    0.113304 0.788223 0.875855 0.169978
N1    N     N_R   0.246280 0.438190 0.553160 -0.225153
N2    N     N_R   0.754320 0.561190 0.447410 -0.215889
O1    O     O_R   0.972510 0.318130 0.526570 -0.586183
O2    O     O_R   0.806530 0.359650 0.490890 -0.619490
O3    O     O_R   0.082980 0.479210 0.647590 -0.617317
O4    O     O_R   0.917000 0.520730 0.611900 -0.560869
O5    O     O_R   0.193470 0.640350 0.509110 -0.563639
O6    O     O_R   0.027490 0.681870 0.473430 -0.525890
O7    O     O_R   0.083000 0.479270 0.388100 -0.518314
O8    O     O_R   0.917020 0.520790 0.352410 -0.620810
C47   C     C_2   0.018353 0.703640 0.199319 0.453007
H13   H     H_    0.057333 0.726373 0.267310 0.060155
O9    O     O_2   0.962930 0.755531 0.149061 -0.575340
C48   C     C_2   0.447101 0.272754 0.359220 0.302615
H14   H     H_    0.498385 0.332494 0.304311 0.069983
O10   O     O_2   0.370215 0.291126 0.384190 -0.599470
O11   O     O_3   0.535977 0.842143 0.630657 -0.550462
C49   C     C_3   0.520451 0.873184 0.709760 -0.293752
H15   H     H_    0.471008 0.929239 0.691625 0.145191
H16   H     H_    0.609109 0.915926 0.751066 0.175202
H17   H     H_    0.465016 0.794065 0.753548 0.189030
C50   C     C_2   0.789066 0.891676 0.647097 0.443929
H18   H     H_    0.886496 0.923283 0.666821 0.051400
O12   O     O_2   0.725531 0.789841 0.668311 -0.471358
O13   O     O_3   0.966324 0.304335 0.267667 -0.582447
C51   C     C_3   0.840751 0.244503 0.276058 -0.334624
H19   H     H_    0.825976 0.167251 0.328597 0.196161
H20   H     H_    0.787416 0.215226 0.210608 0.163378
H21   H     H_    0.805746 0.297790 0.298794 0.150106
O14   O     O_3   0.319933 0.558860 0.416269 -0.550982
C52   C     C_3   0.305081 0.500570 0.343037 -0.230950
H22   H     H_    0.272655 0.544709 0.279128 0.172503
H23   H     H_    0.235770 0.410139 0.353582 0.216068
H24   H     H_    0.392330 0.503391 0.331510 0.153239
O15   O     O_3   0.525746 0.721119 0.432198 -0.536944
C53   C     C_3   0.514957 0.796612 0.351618 -0.225991
H25   H     H_    0.492622 0.756799 0.288379 0.153363
H26   H     H_    0.598823 0.877951 0.348061 0.144270
H27   H     H_    0.439013 0.818502 0.354709 0.200556
O16   O     O_3   0.915223 0.187901 0.961194 -0.534378
C54   C     C_3   0.002153 0.143071 0.998834 -0.326759
H28   H     H_    0.096737 0.208212 0.989572 0.142383
H29   H     H_    0.993540 0.106762 0.072475 0.168661
H30   H     H_    0.984595 0.071615 0.962391 0.190290
O17   O     O_3   0.900494 0.288924 0.794510 -0.544537
C55   C     C_3   0.982141 0.250910 0.774422 -0.240829
H31   H     H_    0.077017 0.291913 0.808080 0.126904
H32   H     H_    0.981753 0.263878 0.699328 0.165894
H33   H     H_    0.947992 0.157058 0.797134 0.189329
O18   O     O_3   0.072574 0.702051 0.735873 -0.556347
C56   C     C_3   0.197930 0.747415 0.727704 -0.343275
H34   H     H_    0.223282 0.829302 0.679554 0.198321
H35   H     H_    0.220039 0.688836 0.698972 0.181075
H36   H     H_    0.254178 0.766540 0.794609 0.146809
C57   C     C_2   0.162907 0.828636 0.044119 0.398900
H37   H     H_    0.160139 0.904056 0.998490 0.056175
O19   O     O_2   0.231967 0.841162 0.115255 -0.575313
O20   O     O_3   0.058893 0.890345 0.412712 -0.557212
C58   C     C_3   0.031155 0.942758 0.323850 -0.319514
H38   H     H_    0.935045 0.891922 0.299147 0.186405
H39   H     H_    0.087696 0.945930 0.273018 0.170416
H40   H     H_    0.039528 0.029781 0.326021 0.181246

loop_
_geom_bond_atom_site_label_1
_geom_bond_atom_site_label_2
_ccdc_geom_bond_type
C16   C28   A    
C21   C26   A    
C54   H28   S    
O15   C53   S    
C16   H3    S    
C41   N1    A    
C24   C48   S    
C7    C8    A    
O11   C49   S    
C2    C46   A    
C37   C38   A    
C48   O10   D    
C36   C37   A    
C19   C21   A    
C18   C19   A    
C26   H2    S    
O13   C51   S    
C30   C31   A    
C49   H16   S    
Cu2   O2    S    
C14   H1    S    
C55   H31   S    
C57   H37   S    
C53   H27   S    
C33   C36   A    
C17   C50   S    
C23   O5    A    
O20   C58   S    
Cu1   O7    S    
O18   C56   S    
Cu2   N2    S    
C19   C20   A    
C42   C47   S    
C16   C17   A    
C57   O19   D    
C53   H26   S    
C1    C28   S    
C14   C27   A    
C56   H36   S    
C34   O8    A    
C55   H32   S    
C15   C23   S    
C54   H29   S    
C21   C22   A    
C1    O1    A    
Cu1   O5    S    
C58   H39   S    
C38   C39   A    
C48   H14   S    
C9    C57   S    
C36   C40   A    
C24   C25   A    
C52   H22   S    
C47   O9    D    
C49   H15   S    
C8    C9    A    
C15   C26   A    
C29   H7    S    
C45   C46   A    
C39   H10   S    
C12   O4    A    
C3    C45   A    
C40   N1    A    
C23   O6    A    
C35   C39   A    
C43   C44   A    
C13   O18   S    
C52   H23   S    
C15   C27   A    
Cu1   Cu2   S    
C38   H6    S    
C7    C13   A    
C58   H38   S    
C53   H25   S    
C17   C18   A    
C56   H35   S    
Cu2   O6    S    
C34   O7    A    
C41   H5    S    
C54   H30   S    
C50   O12   D    
C4    O16   S    
C22   C24   A    
C42   C43   A    
C44   O13   S    
C1    O2    A    
C44   C45   A    
C12   O3    A    
C27   O20   S    
C6    C46   A    
C56   H34   S    
C29   C41   A    
C51   H19   S    
C58   H40   S    
C31   C32   A    
C34   C43   S    
Cu2   O8    S    
C4    C5    A    
C51   H21   S    
Cu1   N1    S    
C11   C12   S    
C6    C7    A    
C20   C28   A    
O17   C55   S    
C40   O14   S    
C32   C33   A    
C31   H9    S    
C30   N2    A    
C25   H4    S    
C5    C10   A    
C8    H12   S    
C52   H24   S    
Cu1   O1    S    
C11   C13   A    
C49   H17   S    
C14   C22   A    
O14   C52   S    
C5    C6    A    
C30   H8    S    
C2    C42   A    
C18   O11   S    
O16   C54   S    
C33   C35   A    
C35   N2    A    
C51   H20   S    
C10   C11   A    
C47   H13   S    
C32   O15   S    
C50   H18   S    
C20   C25   A    
C29   C37   A    
C10   O17   S    
Cu2   O4    S    
C2    C9    A    
Cu1   O3    S    
C3    C4    A    
C55   H33   S    
C3    H11   S    
