data_mof_unit_44775.cif
_audit_creation_date              2012-12-10T18:11:02-0500
_audit_creation_method            fapswitch 2.2
_symmetry_space_group_name_H-M    P1
_symmetry_Int_Tables_number       1
_space_group_crystal_system       triclinic
_cell_length_a                    10.748538
_cell_length_b                    9.549622
_cell_length_c                    10.665437
_cell_angle_alpha                 90.396937
_cell_angle_beta                  90.4962
_cell_angle_gamma                 89.886219
_cell_volume                      1094.67882701

loop_
_atom_site_label
_atom_site_type_symbol
_atom_type_description
_atom_site_fract_x
_atom_site_fract_y
_atom_site_fract_z
_atom_type_partial_charge
C1    C     C_R   0.260225 0.499982 0.500916 0.770369
C2    C     C_3   0.495255 0.497569 0.124425 -0.066056
C3    C     C_3   0.075954 0.601968 0.607951 -0.372147
C4    C     C_3   0.074232 0.349722 0.533332 -0.366611
C5    C     C_3   0.931741 0.611884 0.605145 0.021882
C6    C     C_3   0.931278 0.348759 0.543503 0.017345
C7    C     C_3   0.068244 0.545248 0.376582 -0.413131
C8    C     C_3   0.122350 0.499470 0.504645 0.096781
C9    C     C_3   0.877995 0.498389 0.511912 0.096227
C10   C     C_3   0.924866 0.536802 0.378551 -0.475687
C11   C     C_3   0.604090 0.085405 0.580983 0.167149
C12   C     C_3   0.612639 0.918896 0.569447 0.126737
C13   C     C_3   0.382427 0.083508 0.552425 -0.279107
C14   C     C_3   0.388152 0.918133 0.563941 -0.264365
C15   C     C_3   0.513062 0.083096 0.373073 0.114518
C16   C     C_3   0.502324 0.916755 0.371991 0.141037
C17   C     C_R   0.497104 0.499315 0.260299 0.813551
C18   C     C_R   0.739509 0.499662 0.505451 0.728190
C19   C     C_R   0.500667 0.500563 0.740315 0.812041
C20   C     C_3   0.394673 0.569553 0.042944 -0.249814
C21   C     C_3   0.492908 0.364281 0.041148 -0.146689
C22   C     C_3   0.396646 0.438902 0.957143 0.146727
C23   C     C_3   0.499950 0.501799 0.877303 0.003720
C24   C     C_3   0.501239 0.630372 0.964517 0.172991
C25   C     C_3   0.596291 0.431493 0.962897 0.153758
C26   C     C_3   0.601721 0.562247 0.048382 -0.278106
Cu1   Cu    Cu3+1 0.499860 0.642410 0.500060 0.899509
Cu2   Cu    Cu3+1 0.499860 0.357590 0.500060 0.909568
H1    H     H_    0.885395 0.639165 0.348257 0.168670
H2    H     H_    0.892747 0.456947 0.308953 0.160954
H3    H     H_    0.693494 0.127161 0.545638 0.135863
H4    H     H_    0.697502 0.897292 0.513311 0.100489
H5    H     H_    0.359337 0.131671 0.644445 0.192986
H6    H     H_    0.386203 0.888094 0.664453 0.201074
H7    H     H_    0.435924 0.124887 0.313487 0.105741
H8    H     H_    0.412997 0.888532 0.324057 0.091415
H9    H     H_    0.303236 0.111510 0.489485 0.134903
H10   H     H_    0.302303 0.874370 0.520554 0.145652
H11   H     H_    0.311180 0.625950 0.077543 0.126796
H12   H     H_    0.488012 0.254060 0.072905 0.124275
H13   H     H_    0.686722 0.612872 0.087306 0.130499
H14   H     H_    0.114657 0.708575 0.593311 0.153221
H15   H     H_    0.102107 0.276493 0.456749 0.145601
H16   H     H_    0.111984 0.566262 0.700266 0.143970
H17   H     H_    0.119235 0.310142 0.620633 0.174140
H18   H     H_    0.907219 0.716451 0.566285 0.157029
H19   H     H_    0.895775 0.273715 0.471252 0.154564
H20   H     H_    0.097347 0.654424 0.355862 0.170160
H21   H     H_    0.104634 0.476776 0.300307 0.156521
N1    N     N_3   0.500250 0.143650 0.502780 -0.154673
N2    N     N_3   0.500250 0.856350 0.502780 -0.148268
O1    O     O_R   0.317570 0.620260 0.500070 -0.597804
O2    O     O_R   0.317570 0.379740 0.500070 -0.597118
O3    O     O_R   0.499850 0.620240 0.316900 -0.595854
O4    O     O_R   0.499850 0.379760 0.316900 -0.610912
O5    O     O_R   0.682190 0.620260 0.500030 -0.625106
O6    O     O_R   0.682190 0.379740 0.500030 -0.609440
O7    O     O_R   0.499910 0.620280 0.683200 -0.563741
O8    O     O_R   0.499910 0.379720 0.683200 -0.528658
N3    N     N_3   0.286253 0.370836 0.905617 -0.603678
H22   H     H_    0.230827 0.342024 0.981163 0.208070
H23   H     H_    0.236439 0.446264 0.855481 0.192832
N4    N     N_3   0.593650 0.134764 0.711533 -0.522219
H24   H     H_    0.680533 0.131602 0.756059 0.213060
H25   H     H_    0.531689 0.073741 0.762631 0.237000
N5    N     N_3   0.635599 0.855083 0.692067 -0.555878
H26   H     H_    0.709659 0.906853 0.736053 0.172413
H27   H     H_    0.675142 0.757478 0.678461 0.273213
N6    N     N_3   0.631896 0.123476 0.314868 -0.597439
H28   H     H_    0.620720 0.121788 0.217342 0.203144
H29   H     H_    0.661047 0.223142 0.338820 0.268974
N7    N     N_3   0.605056 0.860934 0.295036 -0.590270
H30   H     H_    0.572465 0.828220 0.206936 0.215282
H31   H     H_    0.658351 0.783445 0.337296 0.269440
N8    N     N_3   0.504701 0.775578 0.923882 -0.567810
H32   H     H_    0.456802 0.835701 0.990023 0.198297
H33   H     H_    0.597289 0.808202 0.929381 0.224024
N9    N     N_3   0.705298 0.354849 0.920224 -0.616695
H34   H     H_    0.731644 0.286459 0.991808 0.211778
H35   H     H_    0.777744 0.426678 0.912661 0.198801
N10   N     N_3   0.879565 0.609212 0.732408 -0.632495
H36   H     H_    0.790140 0.567208 0.732313 0.204696
H37   H     H_    0.933849 0.551002 0.794634 0.216772
N11   N     N_3   0.893387 0.294016 0.666058 -0.621885
H38   H     H_    0.802182 0.322429 0.686400 0.252907
H39   H     H_    0.949941 0.332467 0.738371 0.224327

loop_
_geom_bond_atom_site_label_1
_geom_bond_atom_site_label_2
_ccdc_geom_bond_type
C7    C10   S    
N5    H27   S    
N4    H25   S    
C3    H14   S    
C1    C8    S    
C16   N7    S    
C16   N2    S    
C4    C8    S    
C6    C9    S    
N10   H36   S    
Cu1   O3    S    
C7    C8    S    
Cu2   O6    S    
C13   H5    S    
C24   C26   S    
C11   N4    S    
C22   N3    S    
N9    H35   S    
C15   C16   S    
N3    H23   S    
C15   N1    S    
N6    H29   S    
C1    O2    A    
Cu2   N1    S    
C20   C24   S    
C23   C24   S    
C9    C10   S    
C17   O4    A    
C13   H9    S    
C18   O5    A    
N5    H26   S    
C11   H3    S    
C13   C14   S    
C12   H4    S    
C2    C17   S    
C15   H7    S    
N10   H37   S    
Cu2   O4    S    
Cu1   N2    S    
C4    H17   S    
C19   O7    A    
C15   N6    S    
C3    H16   S    
C6    N11   S    
C6    H19   S    
C2    C20   S    
C25   N9    S    
N11   H38   S    
C7    H21   S    
C4    C6    S    
C3    C8    S    
C20   H11   S    
Cu1   O5    S    
C19   O8    A    
C25   C26   S    
C12   N5    S    
C13   N1    S    
N3    H22   S    
C19   C23   S    
N8    H32   S    
C5    C9    S    
C14   H10   S    
C5    N10   S    
C10   H2    S    
C18   O6    A    
C14   N2    S    
C11   C12   S    
C2    C21   S    
C2    C26   S    
N8    H33   S    
N7    H31   S    
C20   C22   S    
C12   N2    S    
Cu1   O1    S    
Cu2   O8    S    
C21   C25   S    
N9    H34   S    
N11   H39   S    
N7    H30   S    
C3    C5    S    
Cu1   O7    S    
C14   H6    S    
Cu2   O2    S    
C24   N8    S    
C4    H15   S    
C5    H18   S    
C7    H20   S    
C11   N1    S    
C16   H8    S    
C10   H1    S    
C21   H12   S    
C23   C25   S    
N6    H28   S    
C1    O1    A    
N4    H24   S    
C9    C18   S    
Cu1   Cu2   S    
C22   C23   S    
C21   C22   S    
C17   O3    A    
C26   H13   S    
