data_mof_unit_45507.cif
_audit_creation_date              2012-12-10T17:11:02-0500
_audit_creation_method            fapswitch 2.2
_symmetry_space_group_name_H-M    P1
_symmetry_Int_Tables_number       1
_space_group_crystal_system       triclinic
_cell_length_a                    11.661857
_cell_length_b                    13.008073
_cell_length_c                    13.433034
_cell_angle_alpha                 91.972215
_cell_angle_beta                  76.117158
_cell_angle_gamma                 99.96618
_cell_volume                      1948.33634928

loop_
_atom_site_label
_atom_site_type_symbol
_atom_type_description
_atom_site_fract_x
_atom_site_fract_y
_atom_site_fract_z
_atom_type_partial_charge
C1    C     C_R   0.520941 0.700886 0.501454 0.814551
C2    C     C_R   0.443615 0.484939 0.976573 0.101041
C3    C     C_R   0.467504 0.458981 0.870895 0.080553
C4    C     C_R   0.528568 0.471840 0.033700 0.078217
C5    C     C_R   0.628572 0.424114 0.987171 0.072911
C6    C     C_R   0.641762 0.387371 0.887175 -0.216360
C7    C     C_R   0.561875 0.403469 0.830185 -0.193678
C8    C     C_R   0.518065 0.505724 0.135315 -0.304039
C9    C     C_R   0.703345 0.447338 0.141839 0.399686
C10   C     C_R   0.395511 0.488406 0.808874 -0.105656
C11   C     C_R   0.466492 0.185670 0.497549 -0.100784
C12   C     C_R   0.435395 0.491613 0.696145 0.782986
C13   C     C_R   0.532811 0.814309 0.502121 -0.090034
C14   C     C_R   0.651750 0.985122 0.508361 -0.162059
C15   C     C_R   0.641459 0.877152 0.508132 -0.187975
C16   C     C_R   0.434384 0.860108 0.496472 -0.210195
C17   C     C_R   0.443427 0.968325 0.496632 0.128153
C18   C     C_R   0.553512 0.031107 0.502667 0.093588
C19   C     C_R   0.564133 0.139043 0.503028 -0.239611
C20   C     C_R   0.357338 0.123766 0.491353 -0.294009
C21   C     C_R   0.344728 0.014690 0.490868 0.397501
C22   C     C_R   0.944659 0.594066 0.596041 -0.312566
C23   C     C_R   0.479021 0.299119 0.498471 0.838907
C24   C     C_R   0.826132 0.585866 0.587286 0.092067
C25   C     C_R   0.856568 0.458045 0.458035 0.044290
C26   C     C_R   0.976820 0.461097 0.465226 0.040654
C27   C     C_R   0.021029 0.532147 0.534775 0.037598
C28   C     C_R   0.141225 0.540279 0.541452 0.034372
C29   C     C_R   0.175366 0.411900 0.413665 -0.011809
C30   C     C_R   0.055628 0.398263 0.404798 -0.125910
C31   C     C_R   0.564281 0.501992 0.303590 0.828366
C32   C     C_R   0.714601 0.412898 0.041136 -0.185093
C33   C     C_R   0.600414 0.489672 0.191426 -0.164849
C34   C     C_R   0.290030 0.526365 0.855150 -0.184458
C35   C     C_R   0.259236 0.540840 0.960415 -0.137379
C36   C     C_R   0.335744 0.522689 0.020532 -0.183561
Cu1   Cu    Cu3+1 0.386470 0.492430 0.492410 0.943781
Cu2   Cu    Cu3+1 0.613530 0.507570 0.507590 0.947782
H1    H     H_    0.281786 0.160093 0.486996 0.157266
H2    H     H_    0.736371 0.032616 0.512976 0.154976
H3    H     H_    0.718473 0.842997 0.512566 0.161622
H4    H     H_    0.350572 0.811234 0.491933 0.204650
H5    H     H_    0.175600 0.594232 0.594801 0.120684
H6    H     H_    0.236432 0.364950 0.367902 0.127864
H7    H     H_    0.976400 0.648577 0.650288 0.144110
H8    H     H_    0.767646 0.633588 0.634950 0.132172
H9    H     H_    0.715116 0.346890 0.852281 0.148532
H10   H     H_    0.819470 0.408792 0.403420 0.201767
H11   H     H_    0.791755 0.377601 0.004707 0.159145
H12   H     H_    0.445175 0.544189 0.173747 0.167314
H13   H     H_    0.232707 0.547795 0.809488 0.150203
H14   H     H_    0.306367 0.536984 0.101341 0.129786
H15   H     H_    0.177237 0.569722 0.995365 0.148615
H16   H     H_    0.574129 0.369959 0.754414 0.168961
H17   H     H_    0.648773 0.186637 0.507658 0.185825
N1    N     N_R   0.215880 0.481050 0.481000 -0.178284
N2    N     N_R   0.784100 0.518950 0.519000 -0.201824
O1    O     O_R   0.419710 0.645650 0.494620 -0.588887
O2    O     O_R   0.611450 0.658430 0.507430 -0.587608
O3    O     O_R   0.357340 0.490460 0.641450 -0.581496
O4    O     O_R   0.549080 0.503250 0.654260 -0.588811
O5    O     O_R   0.388550 0.341570 0.492570 -0.589102
O6    O     O_R   0.580290 0.354350 0.505380 -0.587869
O7    O     O_R   0.450920 0.496750 0.345740 -0.582910
O8    O     O_R   0.642660 0.509540 0.358550 -0.582150
O9    O     O_3   0.791642 0.434019 0.189791 -0.718362
H18   H     H_    0.811591 0.499596 0.226294 0.327713
O10   O     O_3   0.237669 0.952596 0.484918 -0.751181
H19   H     H_    0.178350 0.997729 0.481408 0.325465
C37   C     C_2   0.019589 0.316507 0.333168 0.341136
H20   H     H_    0.086562 0.296185 0.267720 0.077827
O11   O     O_2   0.918144 0.266623 0.349038 -0.544132

loop_
_geom_bond_atom_site_label_1
_geom_bond_atom_site_label_2
_ccdc_geom_bond_type
C2    C36   A    
C2    C4    A    
C31   C33   S    
C29   C30   A    
C29   N1    A    
C8    H12   S    
C35   H15   S    
Cu2   N2    S    
C14   C18   A    
C28   H5    S    
Cu1   O1    S    
C36   H14   S    
Cu2   O8    S    
C4    C8    A    
Cu2   O4    S    
C24   H8    S    
C22   H7    S    
C13   C15   A    
C2    C3    A    
C34   H13   S    
C10   C34   A    
C3    C10   A    
C1    O1    A    
C9    C33   A    
C12   O4    A    
Cu1   O3    S    
C25   H10   S    
C11   C19   A    
C26   C27   A    
Cu1   Cu2   S    
C10   C12   S    
C11   C23   S    
C30   C37   S    
C26   C30   A    
C6    C7    A    
C3    C7    A    
C22   C27   A    
C1    O2    A    
C21   O10   S    
C28   N1    A    
C5    C6    A    
C32   H11   S    
C23   O6    A    
C22   C24   A    
C11   C20   A    
C9    C32   A    
C37   H20   S    
C1    C13   S    
C6    H9    S    
C14   H2    S    
Cu2   O2    S    
C12   O3    A    
C16   H4    S    
C25   N2    A    
C4    C5    A    
Cu1   O7    S    
O9    H18   S    
C20   C21   A    
C15   H3    S    
C17   C18   A    
C34   C35   A    
C24   N2    A    
C13   C16   A    
C19   H17   S    
C27   C28   A    
C31   O8    A    
C20   H1    S    
Cu1   O5    S    
C9    O9    S    
C18   C19   A    
C37   O11   D    
C8    C33   A    
C23   O5    A    
C7    H16   S    
C25   C26   A    
C29   H6    S    
Cu1   N1    S    
C31   O7    A    
O10   H19   S    
C5    C32   A    
C17   C21   A    
C14   C15   A    
C16   C17   A    
Cu2   O6    S    
C35   C36   A    
