data_mof_unit_46716.cif
_audit_creation_date              2012-12-10T20:44:48-0500
_audit_creation_method            fapswitch 2.2
_symmetry_space_group_name_H-M    P1
_symmetry_Int_Tables_number       1
_space_group_crystal_system       triclinic
_cell_length_a                    9.907697
_cell_length_b                    10.813936
_cell_length_c                    16.675364
_cell_angle_alpha                 87.543712
_cell_angle_beta                  93.283629
_cell_angle_gamma                 89.207575
_cell_volume                      1781.80894368

loop_
_atom_site_label
_atom_site_type_symbol
_atom_type_description
_atom_site_fract_x
_atom_site_fract_y
_atom_site_fract_z
_atom_type_partial_charge
C1    C     C_R   0.500559 0.260209 0.500575 0.930493
C2    C     C_R   0.499083 0.128566 0.498265 -0.076354
C3    C     C_R   0.375060 0.066116 0.492255 -0.124854
C4    C     C_R   0.516448 0.503539 0.653498 0.903183
C5    C     C_R   0.373920 0.937567 0.490164 -0.183692
C6    C     C_R   0.496849 0.870795 0.491154 -0.084767
C7    C     C_R   0.616251 0.935998 0.490365 0.053878
C8    C     C_3   0.767732 0.922370 0.491410 -0.161007
C9    C     C_3   0.768885 0.064500 0.505828 -0.163372
C10   C     C_R   0.077642 0.489705 0.570439 0.151393
C11   C     C_R   0.066574 0.531758 0.432534 -0.003762
C12   C     C_R   0.650051 0.531550 0.782200 -0.193620
C13   C     C_R   0.923015 0.536315 0.432550 0.027241
C14   C     C_R   0.935933 0.490713 0.570443 0.218645
C15   C     C_3   0.936183 0.391863 0.634885 -0.523407
C16   C     C_R   0.498950 0.739426 0.496747 0.878039
C17   C     C_3   0.089960 0.390089 0.635513 -0.270315
C18   C     C_R   0.483473 0.491102 0.346722 0.893602
C19   C     C_R   0.524473 0.518303 0.740152 -0.037189
C20   C     C_R   0.405539 0.522424 0.781472 -0.187391
C21   C     C_R   0.412365 0.527497 0.864267 -0.107745
C22   C     C_R   0.538589 0.529534 0.906524 0.310053
C23   C     C_R   0.605194 0.415993 0.145361 -0.040378
C24   C     C_R   0.656951 0.537331 0.865444 -0.169406
C25   C     C_2   0.825468 0.838718 0.560652 0.373180
C26   C     C_2   0.817878 0.887533 0.411067 0.381172
C27   C     C_2   0.822266 0.093373 0.589746 0.447139
C28   C     C_2   0.822757 0.146885 0.439458 0.412343
C29   C     C_2   0.850356 0.596983 0.361891 0.402127
C30   C     C_2   0.737546 0.393519 0.110219 0.458966
C31   C     C_2   0.149419 0.270624 0.610117 0.517686
C32   C     C_2   0.224104 0.424278 0.255630 0.430964
C33   C     C_2   0.229006 0.396939 0.084300 0.430402
C34   C     C_R   0.600661 0.440478 0.226128 -0.173464
C35   C     C_R   0.482908 0.413852 0.098122 0.226861
C36   C     C_R   0.477326 0.458055 0.261620 -0.117472
C37   C     C_R   0.354417 0.434950 0.216806 -0.130972
C38   C     C_R   0.357306 0.414934 0.133848 -0.080501
C39   C     C_R   0.617556 0.059021 0.498381 0.043892
H1    H     H_    0.694954 0.445078 0.261634 0.234987
H2    H     H_    0.898228 0.425099 0.691411 0.203357
H3    H     H_    0.886323 0.309407 0.612613 0.240759
H4    H     H_    0.136428 0.422561 0.692628 0.183668
H5    H     H_    0.741380 0.363767 0.049064 0.082252
H6    H     H_    0.114757 0.231870 0.553982 0.100743
H7    H     H_    0.754317 0.541977 0.898099 0.153287
H8    H     H_    0.140463 0.486701 0.236951 0.102707
H9    H     H_    0.319889 0.525980 0.895925 0.176769
H10   H     H_    0.132388 0.425319 0.105407 0.093673
H11   H     H_    0.307442 0.520165 0.750240 0.158860
H12   H     H_    0.742568 0.536081 0.751167 0.157692
H13   H     H_    0.279180 0.115451 0.489884 0.183863
H14   H     H_    0.277564 0.891310 0.488639 0.188025
H15   H     H_    0.762029 0.808209 0.608434 0.108210
H16   H     H_    0.924563 0.867328 0.405933 0.107844
H17   H     H_    0.930215 0.086826 0.604672 0.090833
H18   H     H_    0.778085 0.143959 0.378578 0.122296
H19   H     H_    0.117097 0.559991 0.379217 0.166598
H20   H     H_    0.759832 0.650803 0.369003 0.154076
N1    N     N_2   0.547154 0.516160 0.990529 -0.207840
N2    N     N_2   0.483413 0.424218 0.013895 -0.135449
N3    N     N_R   0.142860 0.499130 0.500540 -0.137757
N4    N     N_R   0.857210 0.499170 0.500530 -0.135287
O1    O     O_R   0.614690 0.316790 0.499990 -0.602692
O2    O     O_2   0.741265 0.885827 0.351028 -0.570045
O3    O     O_2   0.746172 0.120313 0.641711 -0.562646
O4    O     O_2   0.915247 0.217747 0.452932 -0.604340
O5    O     O_2   0.895294 0.593969 0.295297 -0.563365
O6    O     O_2   0.844034 0.406575 0.149350 -0.547070
O7    O     O_2   0.237585 0.216465 0.652678 -0.551935
O8    O     O_2   0.208154 0.342097 0.306583 -0.513656
O9    O     O_2   0.229031 0.347730 0.019746 -0.534455
O10   O     O_R   0.385350 0.316760 0.500000 -0.603643
O11   O     O_R   0.627460 0.498860 0.616130 -0.620362
O12   O     O_R   0.398120 0.498820 0.616130 -0.613641
O13   O     O_R   0.614650 0.683240 0.500000 -0.655212
O14   O     O_R   0.385310 0.683210 0.500010 -0.619039
O15   O     O_R   0.601880 0.501180 0.383870 -0.662001
O16   O     O_R   0.372540 0.501140 0.383870 -0.599162
O17   O     O_2   0.945065 0.808847 0.565276 -0.613412
Zn1   Zn    Zn3+2 0.653130 0.500020 0.499990 0.975260
Zn2   Zn    Zn3+2 0.346870 0.499980 0.500010 1.005657

loop_
_geom_bond_atom_site_label_1
_geom_bond_atom_site_label_2
_ccdc_geom_bond_type
C25   O17   D    
C8    C26   S    
C19   C20   A    
C11   N3    A    
C26   H16   S    
C30   O6    D    
C7    C8    S    
C28   H18   S    
N4    Zn1   S    
C34   H1    S    
C5    H14   S    
C36   C37   A    
C16   O14   A    
C22   N1    S    
C5    C6    A    
C10   C17   S    
C33   H10   S    
C9    C39   S    
C1    C2    S    
C4    O12   A    
C20   H11   S    
C33   O9    D    
C4    C19   S    
C2    C39   A    
C31   O7    D    
C29   H20   S    
C18   O16   A    
C11   H19   S    
C4    O11   A    
C21   H9    S    
N3    Zn2   S    
C21   C22   A    
C8    C25   S    
C30   H5    S    
C10   N3    A    
C32   O8    D    
C23   C30   S    
C28   O4    D    
C25   H15   S    
C15   H2    S    
C10   C14   A    
C27   H17   S    
C8    C9    S    
N1    N2    D    
C17   H4    S    
C37   C38   A    
C29   O5    D    
C13   N4    A    
C18   O15   A    
C23   C34   A    
C35   C38   A    
C35   N2    S    
C32   C37   S    
C23   C35   A    
C17   C31   S    
C32   H8    S    
C22   C24   A    
O11   Zn1   S    
C1    O1    A    
O10   Zn2   S    
C12   H12   S    
C9    C27   S    
C13   C29   S    
C15   C17   S    
C16   O13   A    
C26   O2    D    
C15   H3    S    
C3    C5    A    
O13   Zn1   S    
O16   Zn2   S    
C3    H13   S    
O12   Zn2   S    
C6    C7    A    
C12   C24   A    
C33   C38   S    
C24   H7    S    
C2    C3    A    
C1    O10   A    
C27   O3    D    
C11   C13   A    
O15   Zn1   S    
O14   Zn2   S    
C14   N4    A    
C12   C19   A    
C34   C36   A    
O1    Zn1   S    
C6    C16   S    
C20   C21   A    
C31   H6    S    
C7    C39   A    
C14   C15   S    
C18   C36   S    
C9    C28   S    
