data_mof_unit_65129.cif
_audit_creation_date              2012-12-10T17:37:46-0500
_audit_creation_method            fapswitch 2.2
_symmetry_space_group_name_H-M    P1
_symmetry_Int_Tables_number       1
_space_group_crystal_system       triclinic
_cell_length_a                    34.555763
_cell_length_b                    36.043848
_cell_length_c                    34.493079
_cell_angle_alpha                 90.005229
_cell_angle_beta                  89.998286
_cell_angle_gamma                 89.999459
_cell_volume                      42961.9116214

loop_
_atom_site_label
_atom_site_type_symbol
_atom_type_description
_atom_site_fract_x
_atom_site_fract_y
_atom_site_fract_z
_atom_type_partial_charge
C1    C     C_R   0.500022 0.650608 0.749990 0.822513
C2    C     C_R   0.000025 0.650608 0.749999 0.822215
C3    C     C_3   0.517030 0.022079 0.706965 0.088880
C4    C     C_3   0.510414 0.477575 0.205071 0.129559
C5    C     C_3   0.500785 0.477932 0.796430 0.100573
C6    C     C_3   0.495726 0.522436 0.796152 0.130278
C7    C     C_3   0.515300 0.522077 0.206420 0.098981
C8    C     C_3   0.014439 0.977577 0.206130 0.121713
C9    C     C_3   0.018417 0.977917 0.792426 0.086549
C10   C     C_3   0.013648 0.022422 0.794139 0.121664
C11   C     C_3   0.019175 0.022082 0.207929 0.086683
C12   C     C_3   0.011325 0.477576 0.705307 0.129612
C13   C     C_R   0.000022 0.349392 0.750006 0.821620
C14   C     C_3   0.020586 0.477920 0.291235 0.099357
C15   C     C_3   0.015903 0.522421 0.293188 0.129623
C16   C     C_3   0.016180 0.522079 0.706754 0.099061
C17   C     C_1   0.999701 0.611009 0.749520 -0.117273
C18   C     C_1   0.999762 0.611007 0.250355 -0.109122
C19   C     C_1   0.999748 0.388991 0.250453 -0.117347
C20   C     C_1   0.999730 0.388994 0.749629 -0.109581
C21   C     C_1   0.999673 0.111008 0.249450 -0.097677
C22   C     C_1   0.999688 0.111005 0.750451 -0.089884
C23   C     C_1   0.999667 0.888992 0.750553 -0.097747
C24   C     C_R   0.000025 0.349391 0.250001 0.821359
C25   C     C_1   0.999691 0.888995 0.249551 -0.089135
C26   C     C_1   0.499692 0.611009 0.249516 -0.117270
C27   C     C_1   0.499636 0.611006 0.750398 -0.107807
C28   C     C_1   0.499569 0.388991 0.750525 -0.119912
C29   C     C_1   0.499721 0.388993 0.249624 -0.108742
C30   C     C_1   0.499646 0.111008 0.749434 -0.100668
C31   C     C_1   0.499689 0.111005 0.250450 -0.088981
C32   C     C_1   0.499671 0.888992 0.250551 -0.097690
C33   C     C_1   0.499671 0.888995 0.749541 -0.089021
C34   C     C_3   0.499137 0.963176 0.747416 -0.098738
C35   C     C_R   0.000006 0.150607 0.750015 0.818960
C36   C     C_3   0.499347 0.963188 0.253072 -0.061349
C37   C     C_3   0.499251 0.036823 0.252579 -0.098714
C38   C     C_3   0.499210 0.036811 0.746915 -0.060434
C39   C     C_3   0.499140 0.463176 0.247596 -0.088375
C40   C     C_3   0.498329 0.463188 0.752749 -0.053492
C41   C     C_3   0.498443 0.536824 0.752234 -0.089964
C42   C     C_3   0.499192 0.536811 0.247091 -0.053494
C43   C     C_3   0.999267 0.963177 0.247421 -0.098648
C44   C     C_3   0.999317 0.963188 0.753074 -0.061019
C45   C     C_3   0.999228 0.036823 0.752578 -0.097774
C46   C     C_R   0.000010 0.150608 0.249979 0.818663
C47   C     C_3   0.999364 0.036812 0.246928 -0.061377
C48   C     C_3   0.999193 0.463177 0.747595 -0.087336
C49   C     C_3   0.999552 0.463189 0.252886 -0.053381
C50   C     C_3   0.999437 0.536824 0.252400 -0.087814
C51   C     C_3   0.999252 0.536811 0.747090 -0.053246
C52   C     C_3   0.024863 0.521512 0.780950 0.400407
C53   C     C_3   0.025134 0.521246 0.218780 0.433260
C54   C     C_3   0.021499 0.478492 0.216537 0.400909
C55   C     C_3   0.028247 0.478759 0.778344 0.433514
C56   C     C_3   0.022446 0.021507 0.282562 0.404977
C57   C     C_R   0.000006 0.849393 0.249984 0.818546
C58   C     C_3   0.026563 0.021240 0.720285 0.436721
C59   C     C_3   0.023041 0.978491 0.717865 0.404761
C60   C     C_3   0.026011 0.978758 0.280206 0.436685
C61   C     C_3   0.525481 0.521511 0.280423 0.400291
C62   C     C_3   0.536102 0.521237 0.733020 0.435519
C63   C     C_3   0.533784 0.478484 0.729441 0.399696
C64   C     C_3   0.528811 0.478757 0.277749 0.433470
C65   C     C_3   0.524057 0.021508 0.781336 0.404630
C66   C     C_3   0.526205 0.021242 0.219966 0.436692
C67   C     C_3   0.522656 0.978492 0.217587 0.404874
C68   C     C_R   0.000010 0.849392 0.750021 0.818751
C69   C     C_3   0.527499 0.978759 0.778805 0.436837
C70   C     C_R   0.500425 0.750356 0.855804 0.870088
C71   C     C_R   0.500426 0.750354 0.144196 0.870279
C72   C     C_R   0.500429 0.249641 0.144196 0.870249
C73   C     C_R   0.500432 0.249642 0.855803 0.870011
C74   C     C_R   0.500351 0.250414 0.355804 0.870916
C75   C     C_R   0.500355 0.250413 0.644197 0.873684
C76   C     C_R   0.500351 0.749586 0.644197 0.871450
C77   C     C_R   0.500353 0.749587 0.355803 0.871170
C78   C     C_R   0.000425 0.750356 0.355804 0.870517
C79   C     C_R   0.270775 0.803377 0.793359 0.523680
C80   C     C_R   0.000426 0.750354 0.644196 0.870418
C81   C     C_R   0.000425 0.249645 0.644196 0.870157
C82   C     C_R   0.000426 0.249646 0.355804 0.870411
C83   C     C_R   0.000349 0.250413 0.855803 0.871056
C84   C     C_R   0.000353 0.250412 0.144197 0.871029
C85   C     C_R   0.000351 0.749587 0.144197 0.870687
C86   C     C_R   0.000352 0.749587 0.855803 0.871082
C87   C     C_1   0.999465 0.577675 0.748637 -0.013392
C88   C     C_1   0.999585 0.577671 0.251054 -0.002870
C89   C     C_1   0.999605 0.422326 0.251330 -0.013839
C90   C     C_R   0.270782 0.802957 0.206089 0.523695
C91   C     C_1   0.999483 0.422330 0.748927 -0.002398
C92   C     C_1   0.999476 0.077675 0.248511 -0.013614
C93   C     C_1   0.999453 0.077670 0.751211 -0.003602
C94   C     C_1   0.999455 0.922325 0.751493 -0.013597
C95   C     C_1   0.999468 0.922330 0.248791 -0.003474
C96   C     C_1   0.499438 0.577675 0.248633 -0.013320
C97   C     C_1   0.499166 0.577671 0.751049 0.000408
C98   C     C_1   0.499051 0.422324 0.751356 -0.012515
C99   C     C_1   0.499457 0.422329 0.248924 -0.002003
C100  C     C_1   0.499401 0.077675 0.748492 -0.014418
C101  C     C_R   0.270783 0.197142 0.205949 0.523905
C102  C     C_1   0.499461 0.077670 0.251210 -0.003447
C103  C     C_1   0.499468 0.922325 0.251490 -0.013615
C104  C     C_1   0.499408 0.922330 0.748779 -0.003217
C105  C     C_R   0.501104 0.781177 0.418777 0.677142
C106  C     C_R   0.501103 0.781176 0.581229 0.676882
C107  C     C_R   0.501111 0.218824 0.581223 0.679164
C108  C     C_R   0.501101 0.218826 0.418772 0.677767
C109  C     C_R   0.467485 0.249378 0.918778 0.675324
C110  C     C_R   0.467482 0.249380 0.081220 0.674614
C111  C     C_R   0.467474 0.750541 0.081224 0.674501
C112  C     C_R   0.500025 0.650608 0.250000 0.822285
C113  C     C_R   0.270778 0.196864 0.793673 0.523608
C114  C     C_R   0.467472 0.750548 0.918778 0.674391
C115  C     C_R   0.001083 0.781178 0.918776 0.677080
C116  C     C_R   0.001079 0.781178 0.081229 0.677482
C117  C     C_R   0.001097 0.218819 0.081224 0.677618
C118  C     C_R   0.001087 0.218821 0.918770 0.678132
C119  C     C_R   0.967472 0.249440 0.418779 0.675057
C120  C     C_R   0.967470 0.249434 0.581225 0.674977
C121  C     C_R   0.967474 0.750545 0.581224 0.674475
C122  C     C_R   0.967472 0.750553 0.418778 0.674545
C123  C     C_R   0.501778 0.747985 0.398119 -0.249039
C124  C     C_R   0.270778 0.302725 0.294231 0.507695
C125  C     C_R   0.501773 0.747984 0.601880 -0.249183
C126  C     C_R   0.501784 0.252016 0.601881 -0.247438
C127  C     C_R   0.501773 0.252018 0.398120 -0.249143
C128  C     C_R   0.502092 0.248255 0.898118 -0.252952
C129  C     C_R   0.502087 0.248248 0.101878 -0.251739
C130  C     C_R   0.502078 0.751742 0.101880 -0.251955
C131  C     C_R   0.502076 0.751751 0.898120 -0.251501
C132  C     C_R   0.001778 0.747987 0.898119 -0.249046
C133  C     C_R   0.001774 0.747986 0.101880 -0.249139
C134  C     C_R   0.001777 0.252012 0.101881 -0.248849
C135  C     C_R   0.270780 0.302999 0.706144 0.507196
C136  C     C_R   0.001767 0.252014 0.898120 -0.248700
C137  C     C_R   0.002078 0.248256 0.398120 -0.252078
C138  C     C_R   0.002076 0.248251 0.601880 -0.251731
C139  C     C_R   0.002079 0.751742 0.601880 -0.252028
C140  C     C_R   0.002077 0.751751 0.398120 -0.251691
C141  C     C_R   0.504426 0.713626 0.417515 -0.002844
C142  C     C_R   0.504415 0.713624 0.582477 -0.001945
C143  C     C_R   0.504437 0.286375 0.582486 -0.000234
C144  C     C_R   0.504424 0.286377 0.417523 -0.003007
C145  C     C_R   0.537897 0.245252 0.917516 -0.009765
C146  C     C_R   0.270778 0.696755 0.706463 0.507210
C147  C     C_R   0.537890 0.245229 0.082477 -0.003269
C148  C     C_R   0.537872 0.754835 0.082479 -0.003639
C149  C     C_R   0.537870 0.754848 0.917519 -0.003036
C150  C     C_R   0.004450 0.713630 0.917515 -0.003023
C151  C     C_R   0.004446 0.713629 0.082478 -0.003623
C152  C     C_R   0.004427 0.286370 0.082484 -0.002730
C153  C     C_R   0.004415 0.286372 0.917523 -0.002658
C154  C     C_R   0.037873 0.245179 0.417519 -0.003770
C155  C     C_R   0.037871 0.245174 0.582479 -0.003165
C156  C     C_R   0.037873 0.754831 0.582479 -0.003631
C157  C     C_R   0.270779 0.697175 0.294089 0.507582
C158  C     C_R   0.037871 0.754841 0.417519 -0.003312
C159  C     C_R   0.504984 0.712609 0.458676 0.162166
C160  C     C_R   0.504979 0.712608 0.541317 0.162237
C161  C     C_R   0.505000 0.287393 0.541325 0.162911
C162  C     C_R   0.504992 0.287394 0.458684 0.162723
C163  C     C_R   0.538950 0.244730 0.958676 0.163919
C164  C     C_R   0.538946 0.244718 0.041316 0.163335
C165  C     C_R   0.538924 0.755369 0.041319 0.162156
C166  C     C_R   0.538923 0.755375 0.958679 0.162265
C167  C     C_R   0.005018 0.712613 0.958675 0.162540
C168  C     C_R   0.770776 0.803182 0.293622 0.523930
C169  C     C_R   0.005016 0.712613 0.041317 0.162694
C170  C     C_R   0.004978 0.287387 0.041324 0.162832
C171  C     C_R   0.004970 0.287388 0.958683 0.163189
C172  C     C_R   0.038925 0.244652 0.458680 0.162304
C173  C     C_R   0.038925 0.244649 0.541319 0.162478
C174  C     C_R   0.038925 0.755361 0.541319 0.162161
C175  C     C_R   0.038924 0.755366 0.458679 0.162358
C176  C     C_R   0.503511 0.746609 0.479483 -0.126701
C177  C     C_R   0.503509 0.746609 0.520517 -0.126903
C178  C     C_R   0.503523 0.253393 0.520518 -0.126413
C179  C     C_R   0.770774 0.803900 0.707367 0.523094
C180  C     C_R   0.503519 0.253393 0.479484 -0.126184
C181  C     C_R   0.503508 0.246602 0.979481 -0.126414
C182  C     C_R   0.503506 0.246599 0.020514 -0.127500
C183  C     C_R   0.503488 0.753408 0.020517 -0.127381
C184  C     C_R   0.503487 0.753411 0.979484 -0.127390
C185  C     C_R   0.003517 0.746612 0.979483 -0.126711
C186  C     C_R   0.003516 0.746612 0.020516 -0.126570
C187  C     C_R   0.003500 0.253387 0.020517 -0.126376
C188  C     C_R   0.003497 0.253387 0.979483 -0.126235
C189  C     C_R   0.003488 0.246593 0.479484 -0.127269
C190  C     C_R   0.770745 0.286349 0.809590 0.508145
C191  C     C_R   0.003487 0.246591 0.520517 -0.127287
C192  C     C_R   0.003489 0.753406 0.520516 -0.127410
C193  C     C_R   0.003488 0.753409 0.479483 -0.127350
C194  C     C_R   0.501924 0.780913 0.459274 -0.260132
C195  C     C_R   0.501923 0.780912 0.540732 -0.260449
C196  C     C_R   0.501933 0.219089 0.540726 -0.259320
C197  C     C_R   0.501927 0.219090 0.459269 -0.260304
C198  C     C_R   0.467752 0.248593 0.959272 -0.263210
C199  C     C_R   0.467750 0.248592 0.040725 -0.263216
C200  C     C_R   0.467738 0.751330 0.040728 -0.263171
C201  C     C_R   0.770778 0.196852 0.293657 0.524387
C202  C     C_R   0.467736 0.751334 0.959274 -0.263014
C203  C     C_R   0.001903 0.780914 0.959274 -0.260235
C204  C     C_R   0.001900 0.780914 0.040732 -0.260614
C205  C     C_R   0.001912 0.219084 0.040726 -0.260156
C206  C     C_R   0.001906 0.219084 0.959268 -0.260367
C207  C     C_R   0.967736 0.248651 0.459274 -0.263947
C208  C     C_R   0.967735 0.248647 0.540729 -0.264284
C209  C     C_R   0.967738 0.751333 0.540728 -0.263230
C210  C     C_R   0.967737 0.751338 0.459274 -0.263081
C211  C     C_R   0.506677 0.678707 0.479548 0.060250
C212  C     C_R   0.770750 0.213448 0.690590 0.527322
C213  C     C_R   0.506675 0.678706 0.520437 0.061386
C214  C     C_R   0.506699 0.321295 0.520452 0.061761
C215  C     C_R   0.506696 0.321295 0.479563 0.060492
C216  C     C_R   0.574288 0.242684 0.979551 0.057404
C217  C     C_R   0.574286 0.242677 0.020440 0.059888
C218  C     C_R   0.574256 0.757514 0.020442 0.060744
C219  C     C_R   0.574255 0.757518 0.979554 0.060998
C220  C     C_R   0.006749 0.678713 0.979549 0.059740
C221  C     C_R   0.006748 0.678713 0.020437 0.059460
C222  C     C_R   0.006665 0.321289 0.020451 0.060000
C223  C     C_R   0.500021 0.349392 0.250006 0.821911
C224  C     C_R   0.770780 0.303015 0.206165 0.508921
C225  C     C_R   0.006661 0.321290 0.979562 0.060236
C226  C     C_R   0.074259 0.242533 0.479554 0.060620
C227  C     C_R   0.074259 0.242531 0.520442 0.060814
C228  C     C_R   0.074258 0.757498 0.520442 0.060712
C229  C     C_R   0.074257 0.757500 0.479554 0.060846
C230  C     C_R   0.500869 0.814471 0.520087 0.610960
C231  C     C_R   0.500870 0.814471 0.479926 0.610253
C232  C     C_R   0.500874 0.185531 0.479914 0.611547
C233  C     C_R   0.500877 0.185530 0.520075 0.611443
C234  C     C_R   0.432764 0.250070 0.020079 0.610211
C235  C     C_R   0.770780 0.696951 0.206200 0.508327
C236  C     C_R   0.432765 0.250069 0.979919 0.609732
C237  C     C_R   0.432755 0.749774 0.979922 0.610088
C238  C     C_R   0.432755 0.749772 0.020083 0.610101
C239  C     C_R   0.000820 0.814472 0.020087 0.611029
C240  C     C_R   0.000821 0.814472 0.979925 0.610285
C241  C     C_R   0.000848 0.185526 0.979912 0.611594
C242  C     C_R   0.000852 0.185525 0.020074 0.610758
C243  C     C_R   0.932752 0.250186 0.520083 0.612022
C244  C     C_R   0.932753 0.250188 0.479922 0.610587
C245  C     C_R   0.932755 0.749783 0.479922 0.610124
C246  C     C_R   0.770772 0.696234 0.792817 0.507827
C247  C     C_R   0.932755 0.749781 0.520082 0.610062
C248  C     C_R   0.606028 0.750017 0.750021 0.884003
C249  C     C_R   0.606031 0.750017 0.249978 0.881406
C250  C     C_R   0.606030 0.249983 0.249979 0.882728
C251  C     C_R   0.606020 0.249977 0.750023 0.884829
C252  C     C_R   0.106030 0.750017 0.250021 0.882045
C253  C     C_R   0.106030 0.750017 0.749979 0.881479
C254  C     C_R   0.106030 0.249983 0.749979 0.882523
C255  C     C_R   0.106031 0.249983 0.250021 0.880754
C256  C     C_R   0.394118 0.750000 0.750000 0.829077
C257  C     C_R   0.291094 0.776791 0.771809 -0.078717
C258  C     C_R   0.394119 0.749999 0.250000 0.829478
C259  C     C_R   0.394118 0.250001 0.250000 0.829120
C260  C     C_R   0.394119 0.250000 0.750000 0.829601
C261  C     C_R   0.894118 0.750000 0.250001 0.829217
C262  C     C_R   0.894119 0.750000 0.750000 0.829323
C263  C     C_R   0.894115 0.250000 0.750002 0.828683
C264  C     C_R   0.894119 0.250000 0.250000 0.829621
C265  C     C_R   0.169135 0.723254 0.728375 0.625883
C266  C     C_R   0.169140 0.723472 0.271915 0.626400
C267  C     C_R   0.169141 0.276476 0.271989 0.625613
C268  C     C_R   0.291098 0.776583 0.227919 -0.078774
C269  C     C_R   0.169138 0.276618 0.728206 0.626785
C270  C     C_R   0.169143 0.223367 0.228221 0.634783
C271  C     C_R   0.169138 0.223225 0.771581 0.635709
C272  C     C_R   0.169134 0.776900 0.771414 0.634822
C273  C     C_R   0.169142 0.776683 0.228294 0.635620
C274  C     C_R   0.669138 0.723356 0.228236 0.626215
C275  C     C_R   0.669127 0.722986 0.771248 0.628510
C276  C     C_R   0.669092 0.231994 0.720118 0.635062
C277  C     C_R   0.669138 0.276626 0.228217 0.627477
C278  C     C_R   0.669081 0.267773 0.780084 0.625562
C279  C     C_R   0.291098 0.223467 0.227850 -0.079038
C280  C     C_R   0.669138 0.223219 0.271572 0.636277
C281  C     C_R   0.669137 0.776800 0.271552 0.634915
C282  C     C_R   0.669128 0.777168 0.728963 0.635705
C283  C     C_R   0.148713 0.750057 0.749923 -0.369424
C284  C     C_R   0.148716 0.750057 0.250076 -0.369605
C285  C     C_R   0.148717 0.249942 0.250076 -0.369488
C286  C     C_R   0.148715 0.249942 0.749923 -0.369626
C287  C     C_R   0.648715 0.750057 0.249922 -0.369470
C288  C     C_R   0.648709 0.750057 0.750076 -0.369662
C289  C     C_R   0.648684 0.249918 0.750076 -0.367232
C290  C     C_R   0.291097 0.223328 0.771963 -0.078649
C291  C     C_R   0.648715 0.249943 0.249923 -0.369652
C292  C     C_R   0.209683 0.777034 0.771696 -0.223560
C293  C     C_R   0.209690 0.776818 0.228018 -0.223788
C294  C     C_R   0.209691 0.223232 0.227946 -0.223777
C295  C     C_R   0.209687 0.223090 0.771859 -0.223697
C296  C     C_R   0.209688 0.276601 0.272277 -0.215332
C297  C     C_R   0.209687 0.276742 0.727915 -0.215313
C298  C     C_R   0.209684 0.723129 0.728080 -0.215208
C299  C     C_R   0.209688 0.723347 0.272204 -0.215371
C300  C     C_R   0.709686 0.776934 0.271832 -0.223564
C301  C     C_R   0.291096 0.276432 0.272287 -0.068300
C302  C     C_R   0.709679 0.777302 0.728676 -0.223006
C303  C     C_R   0.709641 0.268094 0.780216 -0.212937
C304  C     C_R   0.709687 0.223084 0.271851 -0.223765
C305  C     C_R   0.709649 0.231658 0.720000 -0.224684
C306  C     C_R   0.709687 0.276751 0.227926 -0.215637
C307  C     C_R   0.709687 0.723231 0.227944 -0.215451
C308  C     C_R   0.709678 0.722863 0.771550 -0.215653
C309  C     C_R   0.229973 0.750075 0.749897 -0.248013
C310  C     C_R   0.229977 0.750076 0.250102 -0.247904
C311  C     C_R   0.229978 0.249923 0.250103 -0.247932
C312  C     C_R   0.291097 0.276568 0.727898 -0.067771
C313  C     C_R   0.229976 0.249922 0.749895 -0.247946
C314  C     C_R   0.729975 0.750076 0.249897 -0.247857
C315  C     C_R   0.729969 0.750076 0.750105 -0.247926
C316  C     C_R   0.729941 0.249887 0.750101 -0.248247
C317  C     C_R   0.729976 0.249924 0.249897 -0.247652
C318  C     C_R   0.230463 0.803589 0.793312 0.647588
C319  C     C_R   0.230471 0.803163 0.206125 0.648002
C320  C     C_R   0.230472 0.196936 0.205983 0.647503
C321  C     C_R   0.230467 0.196656 0.793633 0.648105
C322  C     C_R   0.230467 0.302894 0.294244 0.638219
C323  C     C_R   0.291096 0.723309 0.728056 -0.067894
C324  C     C_R   0.230468 0.303172 0.706136 0.638922
C325  C     C_R   0.230466 0.696578 0.706461 0.638382
C326  C     C_R   0.230468 0.697004 0.294100 0.638711
C327  C     C_R   0.730465 0.803391 0.293579 0.647654
C328  C     C_R   0.730462 0.804117 0.707424 0.647896
C329  C     C_R   0.730424 0.286211 0.809857 0.637909
C330  C     C_R   0.730467 0.196644 0.293617 0.648852
C331  C     C_R   0.730432 0.213530 0.690364 0.646918
C332  C     C_R   0.730468 0.303188 0.206156 0.639795
C333  C     C_R   0.730468 0.696777 0.206193 0.638680
C334  C     C_R   0.500022 0.349392 0.749997 0.821943
C335  C     C_R   0.291097 0.723518 0.272216 -0.068100
C336  C     C_R   0.730459 0.696051 0.792808 0.639986
C337  C     C_R   0.791095 0.776694 0.271939 -0.078779
C338  C     C_R   0.791095 0.777053 0.728551 -0.077912
C339  C     C_R   0.791076 0.268318 0.779906 -0.067562
C340  C     C_R   0.791097 0.223322 0.271956 -0.078732
C341  C     C_R   0.791077 0.231531 0.720238 -0.082998
C342  C     C_R   0.791097 0.276577 0.227909 -0.068496
C343  C     C_R   0.791097 0.723406 0.227926 -0.068483
C344  C     C_R   0.791094 0.723050 0.771589 -0.067939
C345  C     C_R   0.270707 0.750060 0.749919 -0.013625
C346  C     C_R   0.500006 0.150607 0.250016 0.818519
C347  C     C_R   0.270710 0.750060 0.250081 -0.013425
C348  C     C_R   0.270711 0.249939 0.250082 -0.013601
C349  C     C_R   0.270709 0.249938 0.749917 -0.013428
C350  C     C_R   0.770709 0.750060 0.249919 -0.013574
C351  C     C_R   0.770705 0.750061 0.750084 -0.013373
C352  C     C_R   0.770684 0.249910 0.750083 -0.014368
C353  C     C_R   0.770709 0.249940 0.249919 -0.013244
C354  C     C_R   0.331504 0.776472 0.771736 -0.099441
C355  C     C_R   0.331507 0.776270 0.228003 -0.099555
C356  C     C_R   0.331506 0.223778 0.227935 -0.099283
C357  C     C_R   0.500009 0.150607 0.749978 0.816867
C358  C     C_R   0.331506 0.223643 0.771884 -0.099672
C359  C     C_R   0.331504 0.276170 0.272135 -0.125289
C360  C     C_R   0.331507 0.276302 0.728045 -0.125604
C361  C     C_R   0.331506 0.723579 0.728197 -0.125707
C362  C     C_R   0.331506 0.723781 0.272066 -0.125376
C363  C     C_R   0.831505 0.776378 0.271861 -0.099192
C364  C     C_R   0.831507 0.776726 0.728613 -0.099857
C365  C     C_R   0.831499 0.268330 0.779524 -0.125423
C366  C     C_R   0.831506 0.223638 0.271877 -0.098937
C367  C     C_R   0.831497 0.231594 0.720560 -0.098347
C368  C     C_R   0.500005 0.849393 0.749985 0.818812
C369  C     C_R   0.831507 0.276310 0.228055 -0.124179
C370  C     C_R   0.831507 0.723674 0.228072 -0.124593
C371  C     C_R   0.831505 0.723328 0.771459 -0.124881
C372  C     C_R   0.351761 0.750014 0.749983 -0.103910
C373  C     C_R   0.351762 0.750013 0.250018 -0.104089
C374  C     C_R   0.351762 0.249986 0.250019 -0.104271
C375  C     C_R   0.351762 0.249985 0.749981 -0.103967
C376  C     C_R   0.851761 0.750014 0.249983 -0.104192
C377  C     C_R   0.851761 0.750014 0.750019 -0.103601
C378  C     C_R   0.851754 0.249980 0.750026 -0.107853
C379  C     C_R   0.500010 0.849392 0.250021 0.818675
C380  C     C_R   0.851762 0.249986 0.249982 -0.104148
C381  C     C_3   0.457165 0.978424 0.756345 -0.081900
C382  C     C_3   0.456556 0.978542 0.251927 -0.064886
C383  C     C_3   0.456928 0.021576 0.245513 -0.082113
C384  C     C_3   0.456511 0.021458 0.749951 -0.065006
C385  C     C_3   0.457588 0.478424 0.258312 -0.078562
C386  C     C_3   0.459510 0.478539 0.734675 -0.060965
C387  C     C_3   0.462397 0.521571 0.728920 -0.078022
C388  C     C_3   0.456662 0.521457 0.251950 -0.062752
C389  C     C_3   0.956898 0.978424 0.254217 -0.082196
C390  C     C_R   0.000021 0.650608 0.249996 0.821247
C391  C     C_3   0.956542 0.978542 0.751425 -0.064669
C392  C     C_3   0.956990 0.021576 0.745014 -0.082105
C393  C     C_3   0.956567 0.021458 0.247800 -0.064953
C394  C     C_3   0.957432 0.478423 0.757465 -0.079063
C395  C     C_3   0.956749 0.478544 0.253369 -0.063408
C396  C     C_3   0.956877 0.521577 0.246946 -0.079506
C397  C     C_3   0.956633 0.521456 0.751085 -0.062716
C398  C     C_3   0.512208 0.977574 0.705409 0.121939
C399  C     C_3   0.518907 0.977918 0.292196 0.086637
C400  C     C_3   0.514158 0.022422 0.293966 0.121667
F1    F     F_    0.149506 0.697057 0.707938 -0.570371
F2    F     F_    0.649489 0.696515 0.791285 -0.567823
F3    F     F_    0.649416 0.215270 0.690795 -0.555066
F4    F     F_    0.649512 0.302699 0.207611 -0.569076
F5    F     F_    0.649389 0.284452 0.809429 -0.577209
F6    F     F_    0.649510 0.197126 0.292149 -0.554925
F7    F     F_    0.649508 0.802912 0.292106 -0.556039
F8    F     F_    0.649489 0.803655 0.708954 -0.555755
F9    F     F_    0.498624 0.813740 0.398963 -0.581528
F10   F     F_    0.498626 0.813739 0.601049 -0.580885
F11   F     F_    0.498629 0.186261 0.601037 -0.581537
F12   F     F_    0.149515 0.697500 0.292661 -0.569968
F13   F     F_    0.498618 0.186263 0.398953 -0.580651
F14   F     F_    0.433555 0.252223 0.898970 -0.576904
F15   F     F_    0.433552 0.252232 0.101029 -0.576852
F16   F     F_    0.433552 0.747621 0.101036 -0.576763
F17   F     F_    0.433550 0.747626 0.898968 -0.576960
F18   F     F_    0.998581 0.813739 0.898962 -0.581609
F19   F     F_    0.998576 0.813739 0.101050 -0.580747
F20   F     F_    0.998616 0.186257 0.101038 -0.581294
F21   F     F_    0.998604 0.186259 0.898950 -0.580485
F22   F     F_    0.933549 0.252345 0.398969 -0.576220
F23   F     F_    0.149516 0.302396 0.292811 -0.570646
F24   F     F_    0.933546 0.252335 0.601037 -0.576066
F25   F     F_    0.933552 0.747628 0.601036 -0.576679
F26   F     F_    0.933550 0.747637 0.398968 -0.576820
F27   F     F_    0.499696 0.847729 0.538594 -0.527227
F28   F     F_    0.499697 0.847730 0.461426 -0.528815
F29   F     F_    0.499697 0.152273 0.461407 -0.526909
F30   F     F_    0.499703 0.152272 0.538575 -0.528543
F31   F     F_    0.398092 0.251651 0.038581 -0.522194
F32   F     F_    0.398093 0.251650 0.961418 -0.522235
F33   F     F_    0.398087 0.748110 0.961422 -0.522307
F34   F     F_    0.149512 0.302684 0.707591 -0.569600
F35   F     F_    0.398088 0.748107 0.038586 -0.522198
F36   F     F_    0.999618 0.847730 0.038594 -0.527155
F37   F     F_    0.999621 0.847730 0.961425 -0.528824
F38   F     F_    0.999669 0.152268 0.961406 -0.526875
F39   F     F_    0.999676 0.152267 0.038575 -0.528530
F40   F     F_    0.898083 0.251828 0.538586 -0.517468
F41   F     F_    0.898084 0.251833 0.461421 -0.520157
F42   F     F_    0.898087 0.748125 0.461421 -0.522146
F43   F     F_    0.898088 0.748121 0.538585 -0.522179
F44   F     F_    0.212023 0.829883 0.814626 -0.522075
F45   F     F_    0.149520 0.197427 0.207427 -0.555980
F46   F     F_    0.212035 0.829248 0.184533 -0.521603
F47   F     F_    0.212037 0.170900 0.184321 -0.521894
F48   F     F_    0.212029 0.170484 0.815108 -0.521626
F49   F     F_    0.212029 0.328904 0.315940 -0.540498
F50   F     F_    0.212031 0.329319 0.684628 -0.540254
F51   F     F_    0.212028 0.670308 0.685113 -0.540631
F52   F     F_    0.212031 0.670945 0.315726 -0.540151
F53   F     F_    0.712026 0.829588 0.315026 -0.521922
F54   F     F_    0.712021 0.830671 0.686471 -0.522571
F55   F     F_    0.711973 0.304033 0.839217 -0.542568
F56   F     F_    0.149510 0.197140 0.792168 -0.555323
F57   F     F_    0.712029 0.170464 0.315082 -0.520771
F58   F     F_    0.711986 0.195661 0.661033 -0.518658
F59   F     F_    0.712031 0.329342 0.184657 -0.538828
F60   F     F_    0.712031 0.670605 0.184712 -0.539925
F61   F     F_    0.712018 0.669522 0.813796 -0.539275
F62   F     F_    0.289942 0.829304 0.814548 -0.583617
F63   F     F_    0.289949 0.828681 0.184635 -0.583438
F64   F     F_    0.289951 0.171466 0.184425 -0.583103
F65   F     F_    0.289946 0.171055 0.815015 -0.583668
F66   F     F_    0.289944 0.328409 0.315743 -0.606036
F67   F     F_    0.149502 0.803115 0.791822 -0.556148
F68   F     F_    0.289948 0.328817 0.684814 -0.607116
F69   F     F_    0.289948 0.670818 0.685286 -0.606884
F70   F     F_    0.289946 0.671442 0.315531 -0.606271
F71   F     F_    0.789943 0.829014 0.314938 -0.583268
F72   F     F_    0.789943 0.830082 0.686528 -0.584839
F73   F     F_    0.789911 0.304154 0.838519 -0.605841
F74   F     F_    0.789946 0.171036 0.314990 -0.582777
F75   F     F_    0.789917 0.195655 0.661652 -0.573365
F76   F     F_    0.789948 0.328841 0.184844 -0.604544
F77   F     F_    0.789949 0.671109 0.184896 -0.605199
F78   F     F_    0.149517 0.802675 0.207577 -0.555335
F79   F     F_    0.789941 0.670044 0.813645 -0.606169
F80   F     F_    0.521211 0.962587 0.814747 -0.597230
F81   F     F_    0.506184 0.968110 0.182656 -0.607685
F82   F     F_    0.518342 0.037415 0.184337 -0.596536
F83   F     F_    0.509137 0.031892 0.816961 -0.608571
F84   F     F_    0.524053 0.462584 0.313925 -0.605058
F85   F     F_    0.532504 0.468088 0.690832 -0.617315
F86   F     F_    0.542998 0.537399 0.697186 -0.602327
F87   F     F_    0.512091 0.531898 0.316651 -0.617911
F88   F     F_    0.017919 0.962585 0.315783 -0.596593
F89   F     F_    0.649511 0.697263 0.207652 -0.570127
F90   F     F_    0.006980 0.968109 0.682742 -0.607941
F91   F     F_    0.019118 0.037413 0.684566 -0.596793
F92   F     F_    0.005750 0.031890 0.317387 -0.607600
F93   F     F_    0.022759 0.462586 0.814417 -0.605259
F94   F     F_    0.003716 0.468108 0.182258 -0.617481
F95   F     F_    0.015922 0.537423 0.183479 -0.605535
F96   F     F_    0.010742 0.531899 0.816899 -0.617842
H1    H     H_    0.347277 0.796947 0.788465 0.224020
H2    H     H_    0.847283 0.797401 0.712160 0.223364
H3    H     H_    0.982105 0.675062 0.119435 0.236735
H4    H     H_    0.982092 0.324937 0.119453 0.237105
H5    H     H_    0.030721 0.317360 0.124416 0.187117
H6    H     H_    0.030704 0.317365 0.875594 0.189467
H7    H     H_    0.982073 0.324936 0.880562 0.236283
H8    H     H_    0.069772 0.219474 0.375579 0.183877
H9    H     H_    0.078495 0.265962 0.380584 0.248903
H10   H     H_    0.078495 0.265954 0.619416 0.248649
H11   H     H_    0.069768 0.219467 0.624412 0.185052
H12   H     H_    0.069764 0.780543 0.624418 0.183894
H13   H     H_    0.847294 0.282386 0.802355 0.217071
H14   H     H_    0.078499 0.734057 0.619413 0.248449
H15   H     H_    0.078500 0.734073 0.380578 0.248799
H16   H     H_    0.069758 0.780557 0.375582 0.184961
H17   H     H_    0.483853 0.627945 0.466904 0.199966
H18   H     H_    0.533269 0.629684 0.466848 0.204379
H19   H     H_    0.533267 0.629683 0.533129 0.204516
H20   H     H_    0.483850 0.627943 0.533070 0.197861
H21   H     H_    0.483886 0.372064 0.533099 0.197733
H22   H     H_    0.533302 0.370314 0.533152 0.205150
H23   H     H_    0.533299 0.370314 0.466868 0.205594
H24   H     H_    0.847277 0.203249 0.288718 0.224054
H25   H     H_    0.483883 0.372065 0.466932 0.199443
H26   H     H_    0.625108 0.216615 0.966848 0.201575
H27   H     H_    0.627505 0.263968 0.966917 0.211427
H28   H     H_    0.627503 0.263954 0.033082 0.206576
H29   H     H_    0.625103 0.216602 0.033129 0.200723
H30   H     H_    0.624986 0.783741 0.033141 0.199528
H31   H     H_    0.627544 0.736396 0.033073 0.204645
H32   H     H_    0.627543 0.736401 0.966910 0.204378
H33   H     H_    0.624985 0.783746 0.966859 0.199787
H34   H     H_    0.983987 0.627925 0.966905 0.201069
H35   H     H_    0.847290 0.217563 0.697708 0.230035
H36   H     H_    0.033402 0.629720 0.966848 0.204164
H37   H     H_    0.033401 0.629720 0.033129 0.204599
H38   H     H_    0.983986 0.627924 0.033071 0.201534
H39   H     H_    0.983831 0.372048 0.033097 0.202202
H40   H     H_    0.033248 0.370317 0.033149 0.203628
H41   H     H_    0.033237 0.370320 0.966867 0.204605
H42   H     H_    0.983820 0.372047 0.966933 0.201357
H43   H     H_    0.125014 0.216347 0.466853 0.199536
H44   H     H_    0.127527 0.263694 0.466918 0.204754
H45   H     H_    0.127527 0.263692 0.533081 0.204675
H46   H     H_    0.847279 0.296716 0.211236 0.217340
H47   H     H_    0.125013 0.216345 0.533134 0.199813
H48   H     H_    0.124996 0.783710 0.533140 0.199530
H49   H     H_    0.127539 0.736364 0.533074 0.204563
H50   H     H_    0.127538 0.736367 0.466911 0.204729
H51   H     H_    0.124996 0.783713 0.466859 0.199783
H52   H     H_    0.544053 0.932304 0.685192 0.230485
H53   H     H_    0.570065 0.959731 0.713969 0.174778
H54   H     H_    0.563122 0.938425 0.291339 0.216153
H55   H     H_    0.576818 0.979437 0.272610 0.161225
H56   H     H_    0.546859 0.067691 0.312760 0.230422
H57   H     H_    0.847279 0.703256 0.211265 0.217446
H58   H     H_    0.571580 0.040267 0.282857 0.174743
H59   H     H_    0.561238 0.061572 0.705863 0.212381
H60   H     H_    0.575747 0.020561 0.723971 0.159581
H61   H     H_    0.541366 0.432306 0.183507 0.214128
H62   H     H_    0.568576 0.459721 0.211161 0.175155
H63   H     H_    0.541709 0.438445 0.813224 0.203892
H64   H     H_    0.561697 0.479459 0.801478 0.160339
H65   H     H_    0.518295 0.567714 0.826388 0.209475
H66   H     H_    0.552831 0.540288 0.808778 0.175069
H67   H     H_    0.559424 0.561567 0.203444 0.209037
H68   H     H_    0.847282 0.702636 0.787890 0.216772
H69   H     H_    0.574684 0.520551 0.220909 0.160969
H70   H     H_    0.047265 0.932308 0.187549 0.230243
H71   H     H_    0.071792 0.959739 0.217604 0.174504
H72   H     H_    0.062640 0.938424 0.792093 0.216375
H73   H     H_    0.076556 0.979436 0.773524 0.161330
H74   H     H_    0.046129 0.067691 0.813318 0.230399
H75   H     H_    0.071198 0.040265 0.783708 0.174834
H76   H     H_    0.063382 0.061577 0.209061 0.215937
H77   H     H_    0.076960 0.020567 0.227883 0.161026
H78   H     H_    0.042714 0.432309 0.684376 0.214262
H79   H     H_    0.941799 0.526261 0.722921 0.163544
H80   H     H_    0.069357 0.459731 0.712573 0.174721
H81   H     H_    0.064742 0.438432 0.288682 0.208829
H82   H     H_    0.077711 0.479451 0.269455 0.159451
H83   H     H_    0.049291 0.567686 0.310743 0.215635
H84   H     H_    0.072855 0.540283 0.279898 0.173686
H85   H     H_    0.060354 0.561572 0.704666 0.208988
H86   H     H_    0.075261 0.520560 0.722444 0.160525
H87   H     H_    0.457145 0.981697 0.678327 0.193062
H88   H     H_    0.476461 0.938785 0.677711 0.203148
H89   H     H_    0.503486 0.932122 0.325766 0.217942
H90   H     H_    0.937968 0.534255 0.269382 0.154622
H91   H     H_    0.513074 0.970252 0.351262 0.268918
H92   H     H_    0.460339 0.018299 0.323455 0.193460
H93   H     H_    0.479663 0.061210 0.323220 0.204086
H94   H     H_    0.500144 0.067874 0.674108 0.217053
H95   H     H_    0.508605 0.029744 0.648213 0.268364
H96   H     H_    0.454247 0.481699 0.180370 0.190877
H97   H     H_    0.473520 0.438789 0.178921 0.188609
H98   H     H_    0.473333 0.432147 0.821128 0.195139
H99   H     H_    0.472033 0.470287 0.848328 0.246368
H100  H     H_    0.434646 0.518313 0.801816 0.191926
H101  H     H_    0.944929 0.473735 0.282929 0.163500
H102  H     H_    0.452474 0.561226 0.809269 0.188255
H103  H     H_    0.497046 0.567868 0.174305 0.197557
H104  H     H_    0.504389 0.529732 0.148084 0.247430
H105  H     H_    0.960810 0.981698 0.176297 0.193619
H106  H     H_    0.980137 0.938788 0.176653 0.204260
H107  H     H_    0.002603 0.932123 0.825815 0.217764
H108  H     H_    0.011892 0.970253 0.851422 0.268886
H109  H     H_    0.959486 0.018300 0.822994 0.193158
H110  H     H_    0.978814 0.061211 0.822987 0.203767
H111  H     H_    0.003962 0.067877 0.174262 0.218075
H112  H     H_    0.347278 0.796586 0.211065 0.224106
H113  H     H_    0.936292 0.465743 0.737129 0.153928
H114  H     H_    0.013721 0.029749 0.148826 0.268929
H115  H     H_    0.955669 0.481695 0.679468 0.190807
H116  H     H_    0.974974 0.438787 0.678406 0.188548
H117  H     H_    0.006470 0.432126 0.325378 0.198991
H118  H     H_    0.017002 0.470263 0.350481 0.248044
H119  H     H_    0.963238 0.518293 0.324700 0.190656
H120  H     H_    0.982541 0.561203 0.323743 0.189214
H121  H     H_    0.998572 0.567869 0.674272 0.197768
H122  H     H_    0.006450 0.529734 0.648204 0.247372
H123  H     H_    0.943820 0.026265 0.218629 0.166763
H124  H     H_    0.936992 0.034254 0.766481 0.155828
H125  H     H_    0.943268 0.973736 0.780360 0.166281
H126  H     H_    0.937295 0.965746 0.232389 0.156933
H127  H     H_    0.441263 0.526263 0.224092 0.163580
H128  H     H_    0.435677 0.534254 0.740984 0.156458
H129  H     H_    0.436114 0.473739 0.756233 0.164793
H130  H     H_    0.436042 0.465744 0.238408 0.154853
H131  H     H_    0.442311 0.026264 0.721461 0.166405
H132  H     H_    0.347277 0.203502 0.210943 0.224438
H133  H     H_    0.437184 0.034255 0.267215 0.156827
H134  H     H_    0.443623 0.973734 0.281017 0.166613
H135  H     H_    0.436486 0.965745 0.735537 0.157021
H136  H     H_    0.557846 0.971739 0.771851 0.045351
H137  H     H_    0.552086 0.966147 0.216916 0.071464
H138  H     H_    0.556828 0.028261 0.225571 0.045312
H139  H     H_    0.553488 0.033853 0.780705 0.069688
H140  H     H_    0.558834 0.471736 0.269508 0.046408
H141  H     H_    0.561060 0.466141 0.740532 0.074384
H142  H     H_    0.561989 0.528262 0.750339 0.049777
H143  H     H_    0.347277 0.203260 0.788733 0.223929
H144  H     H_    0.554857 0.533856 0.278534 0.072901
H145  H     H_    0.056669 0.971738 0.274796 0.045037
H146  H     H_    0.052478 0.966147 0.717540 0.071596
H147  H     H_    0.057119 0.028260 0.726250 0.045335
H148  H     H_    0.051871 0.033852 0.283420 0.071214
H149  H     H_    0.058432 0.471738 0.770715 0.045600
H150  H     H_    0.050882 0.466147 0.214748 0.070395
H151  H     H_    0.055948 0.528267 0.223215 0.043988
H152  H     H_    0.054271 0.533857 0.779659 0.072230
H153  H     H_    0.445366 0.939455 0.799250 0.236881
H154  H     H_    0.347274 0.296464 0.289106 0.217313
H155  H     H_    0.456906 0.981884 0.817023 0.312607
H156  H     H_    0.423038 0.933462 0.236256 0.203457
H157  H     H_    0.443876 0.954264 0.198134 0.287372
H158  H     H_    0.443255 0.060547 0.203173 0.237010
H159  H     H_    0.454001 0.018118 0.184906 0.312928
H160  H     H_    0.423714 0.066539 0.767086 0.204150
H161  H     H_    0.446208 0.045738 0.804251 0.287030
H162  H     H_    0.447649 0.439457 0.301688 0.230368
H163  H     H_    0.459911 0.481896 0.318943 0.307888
H164  H     H_    0.434947 0.433453 0.706978 0.201642
H165  H     H_    0.347279 0.296702 0.711218 0.216654
H166  H     H_    0.469186 0.454235 0.680270 0.278468
H167  H     H_    0.466635 0.560528 0.684606 0.227772
H168  H     H_    0.483722 0.518090 0.672128 0.306981
H169  H     H_    0.424620 0.566537 0.270464 0.200700
H170  H     H_    0.448688 0.545752 0.306634 0.281051
H171  H     H_    0.942953 0.939453 0.296470 0.237054
H172  H     H_    0.953580 0.981882 0.314805 0.312973
H173  H     H_    0.923204 0.933463 0.735361 0.203457
H174  H     H_    0.944491 0.954263 0.697486 0.287235
H175  H     H_    0.943813 0.060546 0.702512 0.235829
H176  H     H_    0.347280 0.703087 0.711490 0.216894
H177  H     H_    0.954772 0.018115 0.684374 0.312962
H178  H     H_    0.922946 0.066538 0.263257 0.203570
H179  H     H_    0.943540 0.045736 0.301512 0.287459
H180  H     H_    0.946615 0.439457 0.800634 0.229677
H181  H     H_    0.958523 0.481896 0.818135 0.308331
H182  H     H_    0.922655 0.433467 0.238987 0.200186
H183  H     H_    0.942045 0.454256 0.200100 0.282472
H184  H     H_    0.941628 0.560548 0.205148 0.231403
H185  H     H_    0.951652 0.518111 0.186493 0.308813
H186  H     H_    0.924215 0.566533 0.768947 0.200805
H187  H     H_    0.347276 0.703449 0.288982 0.217013
H188  H     H_    0.947548 0.545749 0.805599 0.281332
H189  H     H_    0.482077 0.675065 0.380550 0.235740
H190  H     H_    0.530707 0.682631 0.375578 0.188242
H191  H     H_    0.530680 0.682619 0.624411 0.190445
H192  H     H_    0.482048 0.675066 0.619432 0.233163
H193  H     H_    0.482086 0.324937 0.619450 0.232577
H194  H     H_    0.530714 0.317367 0.624426 0.191294
H195  H     H_    0.530692 0.317374 0.375585 0.190376
H196  H     H_    0.482062 0.324934 0.380569 0.235360
H197  H     H_    0.569854 0.219617 0.875568 0.186809
H198  H     H_    0.847276 0.796778 0.288690 0.224216
H199  H     H_    0.578490 0.266118 0.880592 0.261156
H200  H     H_    0.578489 0.266056 0.119412 0.248980
H201  H     H_    0.569822 0.219557 0.124408 0.185064
H202  H     H_    0.569762 0.780547 0.124420 0.183858
H203  H     H_    0.578499 0.734061 0.119412 0.248651
H204  H     H_    0.578501 0.734085 0.880578 0.247999
H205  H     H_    0.569753 0.780568 0.875582 0.184927
H206  H     H_    0.982110 0.675062 0.880552 0.235961
H207  H     H_    0.030737 0.682644 0.875573 0.187964
H208  H     H_    0.030731 0.682642 0.124412 0.189177
N1    N     N_3   0.442370 0.967995 0.794876 -0.361160
N2    N     N_3   0.930878 0.959296 0.723873 -0.384030
N3    N     N_3   0.940959 0.032006 0.706982 -0.364304
N4    N     N_3   0.930408 0.040704 0.274882 -0.382487
N5    N     N_3   0.943505 0.467994 0.796321 -0.375842
N6    N     N_3   0.929753 0.459297 0.227128 -0.391104
N7    N     N_3   0.938984 0.532010 0.209759 -0.372114
N8    N     N_3   0.932512 0.540705 0.780003 -0.392908
N9    N     N_3   0.507933 0.680013 0.395355 -0.397176
N10   N     N_3   0.507909 0.680008 0.604630 -0.399022
N11   N     N_3   0.507944 0.319988 0.604647 -0.398950
N12   N     N_3   0.430572 0.959296 0.224680 -0.382725
N13   N     N_3   0.507922 0.319991 0.395368 -0.395852
N14   N     N_3   0.572911 0.241395 0.895365 -0.385030
N15   N     N_3   0.572899 0.241341 0.104624 -0.396047
N16   N     N_3   0.572874 0.758769 0.104629 -0.396846
N17   N     N_3   0.572870 0.758790 0.895367 -0.396910
N18   N     N_3   0.007967 0.680017 0.895354 -0.397145
N19   N     N_3   0.007961 0.680016 0.104632 -0.395394
N20   N     N_3   0.007945 0.319983 0.104643 -0.397002
N21   N     N_3   0.007928 0.319985 0.895370 -0.395908
N22   N     N_3   0.072877 0.241253 0.395368 -0.396691
N23   N     N_3   0.440453 0.032008 0.207674 -0.361316
N24   N     N_3   0.072875 0.241246 0.604627 -0.396451
N25   N     N_3   0.072875 0.758764 0.604629 -0.396961
N26   N     N_3   0.072872 0.758779 0.395367 -0.396368
N27   N     N_3   0.507976 0.643855 0.459347 -0.415179
N28   N     N_3   0.507973 0.643854 0.540632 -0.417666
N29   N     N_3   0.508006 0.356148 0.540655 -0.417392
N30   N     N_3   0.508001 0.356149 0.459368 -0.414535
N31   N     N_3   0.610625 0.241031 0.959353 -0.407382
N32   N     N_3   0.610622 0.241016 0.040637 -0.415111
N33   N     N_3   0.610587 0.759281 0.040638 -0.416087
N34   N     N_3   0.431750 0.040705 0.778320 -0.382296
N35   N     N_3   0.610586 0.759287 0.959355 -0.416129
N36   N     N_3   0.008091 0.643862 0.959347 -0.414954
N37   N     N_3   0.008089 0.643862 0.040632 -0.413693
N38   N     N_3   0.007958 0.356142 0.040653 -0.414603
N39   N     N_3   0.007947 0.356143 0.959368 -0.414254
N40   N     N_3   0.110591 0.240795 0.459356 -0.415993
N41   N     N_3   0.110591 0.240792 0.540639 -0.415814
N42   N     N_3   0.110589 0.759254 0.540638 -0.416191
N43   N     N_3   0.110588 0.759258 0.459355 -0.415735
N44   N     N_3   0.548821 0.960067 0.692633 -0.362448
N45   N     N_3   0.444451 0.467995 0.297440 -0.373972
N46   N     N_3   0.560207 0.967155 0.294301 -0.398538
N47   N     N_3   0.551296 0.039929 0.305112 -0.361794
N48   N     N_3   0.558197 0.032842 0.703035 -0.401365
N49   N     N_3   0.546449 0.460066 0.190745 -0.383250
N50   N     N_3   0.537858 0.467174 0.814785 -0.421268
N51   N     N_3   0.525397 0.539951 0.821144 -0.388076
N52   N     N_3   0.556262 0.532838 0.200742 -0.415183
N53   N     N_3   0.051650 0.960071 0.195221 -0.362066
N54   N     N_3   0.059691 0.967154 0.795018 -0.398445
N55   N     N_3   0.050654 0.039929 0.805722 -0.361878
N56   N     N_3   0.446458 0.459282 0.699339 -0.395939
N57   N     N_3   0.060487 0.032846 0.206086 -0.398777
N58   N     N_3   0.047645 0.460070 0.691715 -0.383415
N59   N     N_3   0.061937 0.467161 0.291760 -0.414134
N60   N     N_3   0.053436 0.539929 0.302914 -0.381975
N61   N     N_3   0.057250 0.532842 0.701906 -0.415313
N62   N     N_3   0.483025 0.967045 0.675864 -0.389498
N63   N     N_3   0.499525 0.960874 0.325952 -0.419994
N64   N     N_3   0.486302 0.032950 0.324773 -0.388466
N65   N     N_3   0.496181 0.039122 0.674097 -0.421085
N66   N     N_3   0.480000 0.467049 0.176800 -0.413381
N67   N     N_3   0.462271 0.531990 0.687635 -0.378091
N68   N     N_3   0.469622 0.460897 0.819714 -0.436632
N69   N     N_3   0.457953 0.532968 0.813347 -0.413304
N70   N     N_3   0.493077 0.539118 0.174470 -0.437267
N71   N     N_3   0.986783 0.967049 0.175145 -0.388354
N72   N     N_3   0.998640 0.960875 0.825954 -0.420277
N73   N     N_3   0.985433 0.032950 0.824617 -0.388695
N74   N     N_3   0.000008 0.039124 0.174049 -0.419746
N75   N     N_3   0.981491 0.467049 0.676421 -0.413457
N76   N     N_3   0.002505 0.460875 0.325708 -0.437221
N77   N     N_3   0.989234 0.532943 0.325033 -0.413179
N78   N     N_3   0.433134 0.540707 0.281350 -0.392456
N79   N     N_3   0.994606 0.539118 0.674357 -0.437219
N80   N     N_3   0.940180 0.967993 0.291950 -0.361140
O1    O     O_3   0.500010 0.750000 0.750000 -0.528452
O2    O     O_R   0.477080 0.668040 0.272910 -0.637703
O3    O     O_R   0.022920 0.331960 0.272940 -0.622191
O4    O     O_R   0.022920 0.168040 0.772940 -0.608275
O5    O     O_R   0.022920 0.168040 0.227060 -0.608742
O6    O     O_R   0.022920 0.831960 0.227060 -0.608628
O7    O     O_R   0.022920 0.831960 0.772940 -0.608410
O8    O     O_R   0.477080 0.331960 0.272910 -0.637724
O9    O     O_R   0.477080 0.331960 0.727090 -0.639738
O10   O     O_R   0.477080 0.168040 0.227090 -0.632873
O11   O     O_R   0.477080 0.168040 0.772910 -0.632310
O12   O     O_R   0.477080 0.831960 0.772910 -0.633514
O13   O     O_R   0.477080 0.831960 0.227090 -0.633026
O14   O     O_R   0.977080 0.668040 0.227090 -0.636013
O15   O     O_R   0.977080 0.668040 0.772910 -0.637428
O16   O     O_R   0.977080 0.331960 0.772910 -0.637410
O17   O     O_3   0.500010 0.750000 0.250000 -0.527988
O18   O     O_R   0.977080 0.331960 0.227090 -0.636073
O19   O     O_R   0.977080 0.168040 0.727090 -0.632910
O20   O     O_R   0.977080 0.168040 0.272910 -0.632851
O21   O     O_R   0.977080 0.831960 0.272910 -0.632772
O22   O     O_R   0.977080 0.831960 0.727090 -0.633302
O23   O     O_R   0.522930 0.728520 0.837460 -0.660052
O24   O     O_R   0.522930 0.728520 0.162540 -0.659494
O25   O     O_R   0.522930 0.271480 0.162540 -0.659654
O26   O     O_R   0.522930 0.271480 0.837460 -0.656560
O27   O     O_R   0.522930 0.228520 0.337460 -0.574861
O28   O     O_3   0.500010 0.250000 0.250000 -0.528535
O29   O     O_R   0.522930 0.228520 0.662540 -0.568689
O30   O     O_R   0.522930 0.771480 0.662540 -0.575442
O31   O     O_R   0.522930 0.771480 0.337460 -0.575264
O32   O     O_R   0.022930 0.728520 0.337460 -0.659462
O33   O     O_R   0.022930 0.728520 0.662540 -0.659537
O34   O     O_R   0.022930 0.271480 0.662540 -0.659529
O35   O     O_R   0.022930 0.271480 0.337460 -0.659314
O36   O     O_R   0.022930 0.228520 0.837460 -0.575478
O37   O     O_R   0.022930 0.228520 0.162540 -0.575396
O38   O     O_R   0.022930 0.771480 0.162540 -0.575276
O39   O     O_3   0.500010 0.250000 0.750000 -0.527268
O40   O     O_R   0.022930 0.771480 0.837460 -0.575451
O41   O     O_R   0.587440 0.728510 0.772960 -0.588031
O42   O     O_R   0.587440 0.728510 0.227040 -0.588680
O43   O     O_R   0.587440 0.271490 0.227040 -0.588256
O44   O     O_R   0.587440 0.271490 0.772960 -0.589372
O45   O     O_R   0.587440 0.228510 0.272960 -0.578145
O46   O     O_R   0.587440 0.228510 0.727040 -0.580553
O47   O     O_R   0.587440 0.771490 0.727040 -0.578500
O48   O     O_R   0.587440 0.771490 0.272960 -0.578676
O49   O     O_R   0.087440 0.728510 0.272960 -0.588439
O50   O     O_3   0.000010 0.750000 0.250000 -0.528493
O51   O     O_R   0.087440 0.728510 0.727040 -0.588808
O52   O     O_R   0.087440 0.271490 0.727040 -0.588310
O53   O     O_R   0.087440 0.271490 0.272960 -0.588765
O54   O     O_R   0.087440 0.228510 0.772960 -0.578301
O55   O     O_R   0.087440 0.228510 0.227040 -0.578668
O56   O     O_R   0.087440 0.771490 0.227040 -0.578281
O57   O     O_R   0.087440 0.771490 0.772960 -0.578725
O58   O     O_R   0.412580 0.728540 0.727090 -0.642246
O59   O     O_R   0.412580 0.728540 0.272910 -0.642065
O60   O     O_R   0.412580 0.271460 0.272910 -0.642107
O61   O     O_3   0.000010 0.750000 0.750000 -0.527974
O62   O     O_R   0.412580 0.271460 0.727090 -0.642284
O63   O     O_R   0.412580 0.228540 0.227090 -0.623106
O64   O     O_R   0.412580 0.228540 0.772910 -0.622969
O65   O     O_R   0.412580 0.771460 0.772910 -0.622977
O66   O     O_R   0.412580 0.771460 0.227090 -0.623045
O67   O     O_R   0.912580 0.728540 0.227090 -0.641854
O68   O     O_R   0.912580 0.728540 0.772910 -0.641965
O69   O     O_R   0.912580 0.271460 0.772910 -0.640625
O70   O     O_R   0.912580 0.271460 0.227090 -0.641642
O71   O     O_R   0.912580 0.228540 0.727090 -0.624253
O72   O     O_3   0.000010 0.250000 0.750000 -0.528340
O73   O     O_R   0.912580 0.228540 0.272910 -0.622937
O74   O     O_R   0.912580 0.771460 0.272910 -0.623040
O75   O     O_R   0.912580 0.771460 0.727090 -0.622842
O76   O     O_R   0.477090 0.771510 0.837460 -0.581266
O77   O     O_R   0.477090 0.771510 0.162540 -0.581287
O78   O     O_R   0.477090 0.228490 0.162540 -0.580978
O79   O     O_R   0.477090 0.228490 0.837460 -0.581387
O80   O     O_R   0.477090 0.271510 0.337460 -0.664222
O81   O     O_R   0.477090 0.271510 0.662540 -0.665841
O82   O     O_R   0.477090 0.728490 0.662540 -0.664281
O83   O     O_3   0.000010 0.250000 0.250000 -0.528159
O84   O     O_R   0.477090 0.728490 0.337460 -0.664022
O85   O     O_R   0.977090 0.771510 0.337460 -0.581055
O86   O     O_R   0.977090 0.771510 0.662540 -0.581277
O87   O     O_R   0.977090 0.228490 0.662540 -0.581836
O88   O     O_R   0.977090 0.228490 0.337460 -0.581163
O89   O     O_R   0.977090 0.271510 0.837460 -0.663823
O90   O     O_R   0.977090 0.271510 0.162540 -0.663564
O91   O     O_R   0.977090 0.728490 0.162540 -0.663883
O92   O     O_R   0.977090 0.728490 0.837460 -0.663950
O93   O     O_R   0.522920 0.668040 0.772940 -0.616769
O94   O     O_R   0.477080 0.668040 0.727090 -0.641426
O95   O     O_R   0.522920 0.668040 0.227060 -0.621204
O96   O     O_R   0.522920 0.331960 0.227060 -0.620674
O97   O     O_R   0.522920 0.331960 0.772940 -0.625294
O98   O     O_R   0.522920 0.168040 0.272940 -0.608474
O99   O     O_R   0.522920 0.168040 0.727060 -0.614980
O100  O     O_R   0.522920 0.831960 0.727060 -0.607995
O101  O     O_R   0.522920 0.831960 0.272940 -0.608586
O102  O     O_R   0.022920 0.668040 0.272940 -0.622068
O103  O     O_R   0.022920 0.668040 0.727060 -0.621350
O104  O     O_R   0.022920 0.331960 0.727060 -0.620963
Zn1   Zn    Zn3+2 0.467260 0.780730 0.782780 1.042507
Zn2   Zn    Zn3+2 0.967260 0.780730 0.717220 1.042121
Zn3   Zn    Zn3+2 0.967260 0.219270 0.717220 1.041767
Zn4   Zn    Zn3+2 0.967260 0.219270 0.282780 1.042659
Zn5   Zn    Zn3+2 0.967260 0.280730 0.782780 0.988678
Zn6   Zn    Zn3+2 0.967260 0.280730 0.217220 0.988863
Zn7   Zn    Zn3+2 0.967260 0.719270 0.217220 0.989046
Zn8   Zn    Zn3+2 0.967260 0.719270 0.782780 0.987623
Zn9   Zn    Zn3+2 0.532760 0.719300 0.782780 1.021372
Zn10  Zn    Zn3+2 0.532760 0.719300 0.217220 1.017238
Zn11  Zn    Zn3+2 0.532760 0.280700 0.217220 1.019096
Zn12  Zn    Zn3+2 0.467260 0.780730 0.217220 1.042196
Zn13  Zn    Zn3+2 0.532760 0.280700 0.782780 1.016802
Zn14  Zn    Zn3+2 0.532760 0.219300 0.282780 1.074744
Zn15  Zn    Zn3+2 0.532760 0.219300 0.717220 1.072660
Zn16  Zn    Zn3+2 0.532760 0.780700 0.717220 1.074802
Zn17  Zn    Zn3+2 0.532760 0.780700 0.282780 1.072720
Zn18  Zn    Zn3+2 0.032760 0.719300 0.282780 1.017969
Zn19  Zn    Zn3+2 0.032760 0.719300 0.717220 1.017051
Zn20  Zn    Zn3+2 0.032760 0.280700 0.717220 1.018568
Zn21  Zn    Zn3+2 0.032760 0.280700 0.282780 1.016430
Zn22  Zn    Zn3+2 0.032760 0.219300 0.782780 1.074397
Zn23  Zn    Zn3+2 0.467260 0.219270 0.217220 1.043023
Zn24  Zn    Zn3+2 0.032760 0.219300 0.217220 1.072345
Zn25  Zn    Zn3+2 0.032760 0.780700 0.217220 1.073910
Zn26  Zn    Zn3+2 0.032760 0.780700 0.782780 1.072622
Zn27  Zn    Zn3+2 0.467260 0.219270 0.782780 1.041996
Zn28  Zn    Zn3+2 0.467260 0.280730 0.282780 0.987955
Zn29  Zn    Zn3+2 0.467260 0.280730 0.717220 0.985788
Zn30  Zn    Zn3+2 0.467260 0.719270 0.717220 0.986077
Zn31  Zn    Zn3+2 0.467260 0.719270 0.282780 0.987432
Zn32  Zn    Zn3+2 0.967260 0.780730 0.282780 1.043225

loop_
_geom_bond_atom_site_label_1
_geom_bond_atom_site_label_2
_ccdc_geom_bond_type
C143  N11   S    
C175  C229  A    
C101  F64   S    
C32   C379  S    
C302  C315  A    
C132  C150  A    
H201  N15   S    
O1    Zn30  S    
C133  C151  A    
H69   N52   S    
C161  C214  A    
C383  N23   S    
C202  C237  A    
C332  F59   S    
C33   C368  S    
O43   Zn11  S    
C225  N39   S    
C151  N19   S    
C385  H130  S    
C395  H101  S    
C342  C369  A    
C371  C377  A    
C340  C353  A    
C150  N18   S    
O41   Zn9   S    
H74   N55   S    
C118  C206  A    
C141  N9    S    
H158  N23   S    
H56   N47   S    
C147  C164  A    
C49   C395  S    
C40   C98   S    
C5    C6    S    
O34   Zn20  S    
C128  C145  A    
H109  N73   S    
C196  C233  A    
C181  C198  A    
O53   Zn21  S    
O56   Zn25  S    
C295  C313  A    
C126  C143  A    
C46   O5    A    
C224  C342  A    
O50   Zn7   S    
H177  N3    S    
C244  F41   S    
H189  N9    S    
C7    C42   S    
H120  N77   S    
H28   N32   S    
C343  C370  A    
O61   Zn2   S    
H16   N26   S    
C366  C380  A    
C303  C316  A    
C60   F88   S    
C275  C308  A    
O64   Zn27  S    
O63   Zn23  S    
C371  H68   S    
C300  C314  A    
C48   C91   S    
C115  C203  A    
C170  C187  A    
C2    O103  A    
H193  N11   S    
C168  C327  A    
C367  H35   S    
C75   O29   A    
C49   C54   S    
C228  N42   S    
C241  F38   S    
C398  N62   S    
C43   C60   S    
C162  C215  A    
C57   O6    A    
H84   N60   S    
C221  N37   S    
C336  F61   S    
C113  F65   S    
C313  C349  A    
C391  N2    S    
C148  C165  A    
C74   O27   A    
C105  C194  A    
C234  C236  A    
C204  C239  A    
O80   Zn28  S    
C84   O37   A    
C390  O14   A    
C81   O34   A    
C327  F53   S    
O83   Zn6   S    
C233  F30   S    
H163  N45   S    
C239  F36   S    
C235  C333  A    
C50   C53   S    
C324  F50   S    
C29   C99   T    
C51   C52   S    
C120  C208  A    
C394  N5    S    
C299  C310  A    
C235  C343  A    
C38   C100  S    
C230  F27   S    
C264  C380  S    
C42   C388  S    
C116  C133  A    
C122  F26   S    
C246  F79   S    
C173  C191  A    
H5    N20   S    
C331  F58   S    
C79   C257  A    
O16   Zn5   S    
C60   H145  S    
C246  C336  A    
C183  C184  A    
C307  C333  A    
C190  C329  A    
C260  O62   A    
O72   Zn5   S    
C304  C330  A    
C152  C170  A    
C163  C216  A    
C269  C286  A    
C111  C130  A    
C178  C180  A    
C356  H132  S    
C321  F48   S    
H58   N47   S    
C253  O57   A    
H9    N22   S    
C123  C141  A    
C276  F3    S    
H99   N68   S    
C307  C314  A    
H174  N2    S    
C70   O23   A    
O92   Zn8   S    
C322  F49   S    
C400  N64   S    
C34   C69   S    
C312  C360  A    
H108  N72   S    
H34   N36   S    
H172  N80   S    
C293  C310  A    
C316  C352  A    
C169  C221  A    
C36   C399  S    
C315  C351  A    
C201  F74   S    
C25   C95   T    
O33   Zn19  S    
C173  C227  A    
H18   N27   S    
C251  C289  S    
C42   C96   S    
H100  N69   S    
C131  C149  A    
C359  C374  A    
C120  C138  A    
H29   N32   S    
C80   C139  S    
C237  F33   S    
C4    N49   S    
C118  C136  A    
H180  N5    S    
C265  C283  A    
C77   O84   A    
C248  C288  S    
C34   C398  S    
C368  O12   A    
C197  C232  A    
C266  C284  A    
C278  C289  A    
H82   N59   S    
C27   C97   T    
C4    N66   S    
C177  C195  A    
C13   C20   S    
C1    O93   A    
C17   C87   T    
C317  C353  A    
C182  C199  A    
O67   Zn7   S    
C106  F10   S    
C281  C300  A    
O88   Zn4   S    
H202  N16   S    
C73   C128  S    
C28   C334  S    
H161  N34   S    
O57   Zn26  S    
O85   Zn32  S    
H40   N38   S    
C269  C297  A    
C387  H128  S    
C63   F85   S    
C75   C126  S    
O103  Zn19  S    
O47   Zn16  S    
H41   N39   S    
C358  H143  S    
C393  N4    S    
C55   H149  S    
C66   C67   S    
C71   C130  S    
C136  C153  A    
C86   C132  S    
C304  C317  A    
C263  O69   A    
C3    C398  S    
O99   Zn15  S    
O42   Zn10  S    
O39   Zn15  S    
C109  F14   S    
C329  F55   S    
C365  H13   S    
H183  N6    S    
C19   C24   S    
C6    N69   S    
C346  O98   A    
H206  N18   S    
O39   Zn27  S    
C107  F11   S    
C129  C147  A    
C44   C94   S    
H59   N48   S    
C282  C302  A    
O30   Zn16  S    
C242  F39   S    
C74   O80   A    
C222  N38   S    
C392  N3    S    
C248  O47   A    
O65   Zn1   S    
O81   Zn29  S    
O95   Zn10  S    
H205  N17   S    
C264  O73   A    
C15   N77   S    
H170  N78   S    
O44   Zn13  S    
C143  C161  A    
H107  N72   S    
C253  C283  S    
O83   Zn4   S    
C24   O3    A    
C167  C185  A    
C360  H165  S    
H121  N79   S    
H21   N29   S    
C234  F31   S    
H32   N35   S    
C383  H133  S    
C10   N73   S    
O70   Zn6   S    
C33   C104  T    
C47   C92   S    
C361  C372  A    
O69   Zn5   S    
C290  C349  A    
C154  N22   S    
C45   C93   S    
C66   F82   S    
C76   O30   A    
H171  N80   S    
C274  F89   S    
H167  N67   S    
C53   C54   S    
O28   Zn11  S    
C78   O32   A    
C119  F22   S    
C105  C123  A    
C265  C298  A    
C305  C316  A    
H31   N33   S    
O26   Zn13  S    
O78   Zn23  S    
H179  N4    S    
C37   C400  S    
C112  O2    A    
C260  O64   A    
C90   C319  A    
C261  O67   A    
C365  C378  A    
C59   F90   S    
C270  C294  A    
C339  C352  A    
C44   C59   S    
C399  C400  S    
C54   H150  S    
C9    N72   S    
C30   C100  T    
C323  C345  A    
C13   O104  A    
C12   N58   S    
C220  N36   S    
C300  C327  A    
O9    Zn29  S    
C241  C242  A    
C81   O87   A    
H70   N53   S    
C265  F1    S    
C108  C197  A    
C189  C191  A    
C40   C386  S    
C45   C392  S    
C273  F78   S    
C301  C359  A    
C385  N45   S    
C249  O42   A    
C170  C222  A    
C270  F45   S    
C141  C159  A    
C86   O92   A    
C294  C311  A    
O59   Zn31  S    
H19   N28   S    
O50   Zn25  S    
O75   Zn2   S    
C255  O55   A    
C7    N52   S    
C381  C384  S    
C122  C210  A    
C156  N25   S    
O104  Zn20  S    
C212  F75   S    
C5    N50   S    
C382  H134  S    
O77   Zn12  S    
C9    C10   S    
H44   N40   S    
H102  N69   S    
C302  C328  A    
C261  O74   A    
C245  F42   S    
C101  C320  A    
C254  O54   A    
C278  C303  A    
C152  N20   S    
C344  C351  A    
H122  N79   S    
H118  N76   S    
H194  N11   S    
C2    C17   S    
C295  C321  A    
C153  C171  A    
C25   C57   S    
C146  C325  A    
C4    C7    S    
H60   N48   S    
H86   N61   S    
C107  C196  A    
H65   N51   S    
C213  N28   S    
C224  C332  A    
C294  C320  A    
C115  C132  A    
C26   C96   T    
C231  F28   S    
C192  C209  A    
C386  H129  S    
C263  O71   A    
O29   Zn15  S    
C146  F69   S    
C389  H126  S    
O1    Zn9   S    
H95   N65   S    
H192  N10   S    
O83   Zn24  S    
C262  C377  S    
O79   Zn27  S    
C384  N34   S    
O8    Zn28  S    
C266  F12   S    
O25   Zn11  S    
H23   N30   S    
C271  F56   S    
O12   Zn1   S    
C46   O20   A    
C145  C163  A    
C222  C225  A    
O39   Zn13  S    
C178  C196  A    
C142  C160  A    
C298  C325  A    
C340  C366  A    
C37   C102  S    
C229  N43   S    
C121  F25   S    
C311  C348  A    
H106  N71   S    
C308  C315  A    
C28   C98   T    
C111  C200  A    
H54   N46   S    
C362  H187  S    
C39   C99   S    
C74   C127  S    
C38   C65   S    
O94   Zn30  S    
C58   H147  S    
C296  C311  A    
C248  O41   A    
C187  C205  A    
O1    Zn16  S    
C305  C331  A    
C157  F70   S    
H4    N20   S    
C273  C293  A    
O20   Zn4   S    
C271  C295  A    
C83   C136  S    
O22   Zn2   S    
C114  C202  A    
O49   Zn18  S    
C236  F32   S    
H117  N76   S    
H10   N24   S    
C8    N53   S    
C299  C326  A    
C338  C364  A    
C159  C176  A    
O93   Zn9   S    
H76   N57   S    
C41   C97   S    
C5    C40   S    
C206  C241  A    
H51   N43   S    
C276  C289  A    
H196  N13   S    
C215  N30   S    
H61   N49   S    
C363  C376  A    
C54   F94   S    
C212  C331  A    
C271  C286  A    
C318  F44   S    
C144  N13   S    
O82   Zn30  S    
C379  O101  A    
H110  N73   S    
O24   Zn10  S    
O14   Zn7   S    
C257  C345  A    
C12   C16   S    
C73   O26   A    
C273  C284  A    
C366  H24   S    
C194  C231  A    
C396  N7    S    
C164  C182  A    
C341  C367  A    
H15   N26   S    
H88   N62   S    
C252  O49   A    
C394  H113  S    
C85   O38   A    
C277  C291  A    
C330  F57   S    
H42   N39   S    
C107  C126  A    
O90   Zn6   S    
C183  C200  A    
C151  C169  A    
O89   Zn5   S    
C112  O95   A    
C121  C139  A    
C44   C391  S    
C398  N44   S    
C314  C350  A    
O91   Zn7   S    
C399  N63   S    
O76   Zn1   S    
C13   O16   A    
C388  N78   S    
H33   N35   S    
C193  C210  A    
C369  C380  A    
C217  N32   S    
C226  N40   S    
C255  O53   A    
H36   N36   S    
O28   Zn28  S    
C175  C193  A    
C280  C291  A    
C61   H144  S    
C50   C396  S    
C71   O24   A    
H175  N3    S    
O96   Zn11  S    
O40   Zn26  S    
C155  N24   S    
H92   N64   S    
C200  C238  A    
C381  H135  S    
H39   N38   S    
C361  H176  S    
H94   N65   S    
C158  C175  A    
C267  C285  A    
C58   F91   S    
H71   N53   S    
C10   C45   S    
C80   O86   A    
O19   Zn3   S    
H199  N14   S    
H72   N54   S    
C14   C15   S    
C389  N80   S    
O102  Zn18  S    
C113  C321  A    
O61   Zn26  S    
C21   C92   T    
H55   N46   S    
C258  O59   A    
C205  C242  A    
C400  N47   S    
C174  C192  A    
C47   C56   S    
C138  C155  A    
C82   O35   A    
C48   C55   S    
C111  F16   S    
C59   H146  S    
C389  C393  S    
C382  C383  S    
C76   C125  S    
C256  O65   A    
C393  H123  S    
C114  C131  A    
C355  H112  S    
C11   C47   S    
H169  N78   S    
C53   H151  S    
C8    C43   S    
C368  O100  A    
C12   C48   S    
O87   Zn3   S    
C72   O25   A    
C47   C393  S    
C337  C363  A    
C220  C221  A    
C72   C129  S    
C334  O9    A    
C68   O7    A    
H48   N42   S    
C181  C182  A    
C251  O46   A    
C86   O40   A    
C39   C64   S    
H47   N41   S    
C188  C206  A    
H97   N66   S    
C290  C358  A    
C40   C63   S    
C124  F66   S    
C171  C188  A    
C250  O45   A    
C36   C103  S    
C387  N67   S    
H119  N77   S    
C239  C240  A    
C169  C186  A    
C117  C205  A    
O72   Zn3   S    
C219  N35   S    
C341  C352  A    
O97   Zn13  S    
C163  C181  A    
C73   O79   A    
C269  F34   S    
C190  F73   S    
C11   N74   S    
C64   F84   S    
H162  N45   S    
C120  F24   S    
C43   C389  S    
O72   Zn22  S    
H53   N44   S    
H77   N57   S    
C174  C228  A    
C277  C306  A    
C268  C355  A    
C292  C309  A    
C268  C347  A    
C116  C204  A    
C172  C226  A    
C354  H1    S    
C36   C382  S    
O17   Zn17  S    
H20   N28   S    
C68   O22   A    
C274  C307  A    
C43   C95   S    
C208  C243  A    
H7    N21   S    
C71   O77   A    
C396  H90   S    
C79   F62   S    
O28   Zn23  S    
C201  C330  A    
C218  N33   S    
C335  C347  A    
O31   Zn17  S    
C52   C55   S    
C3    N48   S    
H185  N7    S    
C360  C375  A    
C144  C162  A    
H83   N60   S    
C115  F18   S    
C254  C286  S    
C279  C356  A    
C146  C323  A    
O3    Zn21  S    
C69   F80   S    
C267  F23   S    
C109  C198  A    
C81   C138  S    
H93   N64   S    
C41   C62   S    
C34   C381  S    
C292  C318  A    
C275  C288  A    
C67   H137  S    
H186  N8    S    
C145  N14   S    
O7    Zn26  S    
C258  C373  S    
C14   N76   S    
O45   Zn14  S    
O39   Zn29  S    
C223  O96   A    
C20   C91   T    
O101  Zn17  S    
C45   C58   S    
C262  O68   A    
H104  N70   S    
H173  N2    S    
C31   C102  T    
O4    Zn22  S    
C10   N55   S    
H30   N33   S    
H27   N31   S    
C82   O88   A    
H12   N25   S    
C323  C361  A    
H111  N74   S    
O23   Zn9   S    
C113  C290  A    
C85   O91   A    
H98   N68   S    
H190  N9    S    
C90   F63   S    
C335  C362  A    
C37   C383  S    
C79   C318  A    
C165  C183  A    
O46   Zn15  S    
C61   C64   S    
C90   C268  A    
C277  F4    S    
H87   N62   S    
O50   Zn32  S    
C276  C305  A    
C77   C123  S    
C259  C374  S    
C306  C332  A    
C369  H46   S    
H63   N50   S    
C293  C319  A    
C109  C128  A    
O50   Zn18  S    
O6    Zn25  S    
H3    N19   S    
O18   Zn6   S    
C134  C152  A    
C63   H141  S    
H67   N52   S    
O98   Zn14  S    
C32   C103  T    
C166  C184  A    
C325  F51   S    
C11   N57   S    
C147  N15   S    
C259  O60   A    
H103  N70   S    
C34   C104  S    
O86   Zn2   S    
C135  C312  A    
H80   N58   S    
C168  F71   S    
H116  N75   S    
H6    N21   S    
C245  C247  A    
C309  C345  A    
C270  C285  A    
C58   C59   S    
O21   Zn32  S    
C76   O82   A    
O2    Zn31  S    
C333  F60   S    
C26   C112  S    
C75   O81   A    
C35   O19   A    
C212  C341  A    
H159  N23   S    
H195  N13   S    
C124  C322  A    
C251  O44   A    
C29   C223  S    
C384  H131  S    
C84   C134  S    
C30   C357  S    
C338  C351  A    
C379  O13   A    
C166  C219  A    
C101  C279  A    
C56   F92   S    
O61   Zn19  S    
O5    Zn24  S    
C149  N17   S    
C235  F77   S    
C394  C397  S    
C78   C140  S    
C179  F72   S    
C84   O90   A    
C395  C396  S    
C106  C195  A    
C223  O8    A    
O73   Zn4   S    
O32   Zn18  S    
C172  C189  A    
C319  F46   S    
C255  C285  S    
C397  H79   S    
C224  F76   S    
C185  C203  A    
C344  C371  A    
C252  C284  S    
C386  C387  S    
C135  C324  A    
C12   N75   S    
C187  C188  A    
C198  C236  A    
C78   O85   A    
O71   Zn3   S    
C337  C350  A    
C185  C186  A    
H38   N37   S    
C83   O36   A    
C189  C207  A    
C65   C69   S    
C150  C167  A    
C106  C125  A    
C232  C233  A    
C137  C154  A    
H197  N14   S    
C127  C144  A    
C51   C397  S    
C230  C231  A    
C160  C177  A    
C18   C88   T    
C179  C328  A    
C363  H198  S    
C122  C140  A    
C14   C49   S    
C56   C60   S    
H78   N58   S    
O60   Zn28  S    
C240  F37   S    
C359  H154  S    
H178  N4    S    
C41   C387  S    
C386  N56   S    
C279  C348  A    
O58   Zn30  S    
C114  F17   S    
C246  C344  A    
C274  C287  A    
H62   N49   S    
C176  C194  A    
C161  C178  A    
C207  C244  A    
C24   O18   A    
C358  C375  A    
C262  O75   A    
C85   C133  S    
O17   Zn10  S    
C281  C287  A    
C157  C326  A    
C343  C350  A    
C16   C51   S    
C282  C288  A    
H184  N7    S    
C1    O94   A    
O27   Zn14  S    
C164  C217  A    
C179  C338  A    
H14   N25   S    
C381  N1    S    
C364  C377  A    
C31   C346  S    
C259  O63   A    
C80   O33   A    
C249  O48   A    
H182  N6    S    
C250  O43   A    
C36   C67   S    
H85   N61   S    
C391  C392  S    
C77   O31   A    
C256  O58   A    
H11   N24   S    
C55   F93   S    
H166  N56   S    
C22   C35   S    
H115  N75   S    
C62   C63   S    
H200  N15   S    
C110  C129  A    
C142  N10   S    
C339  C365  A    
C82   C137  S    
H91   N63   S    
H156  N12   S    
C298  C309  A    
C256  C372  S    
O13   Zn12  S    
C355  C373  A    
C15   N60   S    
C253  O51   A    
C356  C374  A    
C211  N27   S    
H164  N56   S    
C392  H124  S    
C7    N70   S    
H204  N17   S    
C15   C50   S    
C301  C348  A    
C342  C353  A    
C156  C174  A    
C3    N65   S    
C180  C197  A    
C116  F19   S    
C110  F15   S    
C354  C372  A    
H25   N30   S    
C243  C244  A    
C70   O76   A    
C153  N21   S    
C195  C230  A    
C3    C38   S    
C6    C41   S    
H203  N16   S    
C370  H57   S    
C38   C384  S    
C190  C339  A    
C66   H138  S    
C260  C375  S    
C124  C301  A    
C121  C209  A    
O51   Zn19  S    
C57   O21   A    
C209  C247  A    
C118  F21   S    
C50   C88   S    
H181  N5    S    
C385  C388  S    
C140  C158  A    
C155  C173  A    
C272  C283  A    
C278  F5    S    
H37   N37   S    
C117  F20   S    
H89   N63   S    
C367  C378  A    
O72   Zn20  S    
H160  N34   S    
O68   Zn8   S    
H50   N43   S    
C18   C390  S    
C297  C324  A    
O48   Zn17  S    
O35   Zn21  S    
O84   Zn31  S    
O28   Zn14  S    
C227  N41   S    
H153  N1    S    
O54   Zn22  S    
C275  F2    S    
C184  C202  A    
C52   F96   S    
C261  C376  S    
C130  C148  A    
C280  C304  A    
C171  C225  A    
C216  C217  A    
C303  C329  A    
O74   Zn32  S    
H66   N51   S    
O17   Zn31  S    
C199  C234  A    
C51   C87   S    
C62   H142  S    
C148  N16   S    
C214  C215  A    
C14   N59   S    
C228  C229  A    
C64   H140  S    
H8    N22   S    
C5    N68   S    
O36   Zn22  S    
C250  C291  S    
C117  C134  A    
C23   C68   S    
C105  F9    S    
H208  N19   S    
C232  F29   S    
C19   C89   T    
C214  N29   S    
C254  O52   A    
C312  C349  A    
C16   N61   S    
C201  C340  A    
C308  C336  A    
C4    C39   S    
C125  C142  A    
C158  N26   S    
H45   N41   S    
C37   C66   S    
C53   F95   S    
C52   H152  S    
C154  C172  A    
C346  O10   A    
H17   N27   S    
C399  N46   S    
C8    N71   S    
C395  N6    S    
C9    N54   S    
C42   C61   S    
C203  C240  A    
C56   H148  S    
O61   Zn8   S    
C280  F6    S    
C238  F35   S    
O38   Zn25  S    
H105  N71   S    
H26   N31   S    
O17   Zn12  S    
C326  F52   S    
C176  C177  A    
C211  C213  A    
C226  C227  A    
C35   O4    A    
H81   N59   S    
C362  C373  A    
C357  O99   A    
C22   C93   T    
C247  F43   S    
C258  O66   A    
C334  O97   A    
C119  C207  A    
C67   F81   S    
O66   Zn12  S    
O10   Zn23  S    
C165  C218  A    
C167  C220  A    
C186  C204  A    
C320  F47   S    
C65   F83   S    
H64   N50   S    
C21   C46   S    
O1    Zn1   S    
C252  O56   A    
C9    C44   S    
H155  N1    S    
O15   Zn8   S    
C110  C199  A    
C162  C180  A    
C390  O102  A    
C272  F67   S    
C149  C166  A    
C391  H125  S    
H191  N10   S    
C49   C89   S    
H73   N54   S    
C62   F86   S    
C257  C354  A    
H75   N55   S    
O100  Zn16  S    
C397  N8    S    
C48   C394  S    
C16   N79   S    
H52   N44   S    
C39   C385  S    
C69   H136  S    
C23   C94   T    
C157  C335  A    
C281  F7    S    
O37   Zn24  S    
C72   O78   A    
C192  C193  A    
H22   N29   S    
C266  C299  A    
C282  F8    S    
C243  F40   S    
C216  N31   S    
C297  C313  A    
C310  C347  A    
C272  C292  A    
H168  N67   S    
C218  C219  A    
C61   F87   S    
C119  C137  A    
C139  C156  A    
H114  N74   S    
C8    C11   S    
O83   Zn21  S    
C160  C213  A    
H157  N12   S    
C70   C131  S    
C388  H127  S    
H188  N8    S    
C264  O70   A    
C191  C208  A    
C65   H139  S    
C108  C127  A    
C267  C296  A    
C6    N51   S    
O52   Zn20  S    
C357  O11   A    
H207  N18   S    
C328  F54   S    
H43   N40   S    
H96   N66   S    
O11   Zn27  S    
C249  C287  S    
C364  H2    S    
C1    C27   S    
C306  C317  A    
O55   Zn24  S    
C296  C322  A    
C108  F13   S    
C263  C378  S    
C210  C245  A    
C382  N12   S    
C237  C238  A    
C159  C211  A    
C135  F68   S    
C168  C337  A    
C370  C376  A    
H49   N42   S    
C83   O89   A    
O62   Zn29  S    
C2    O15   A    
