data_mof_unit_52046.cif
_audit_creation_date              2012-12-10T18:56:22-0500
_audit_creation_method            fapswitch 2.2
_symmetry_space_group_name_H-M    P1
_symmetry_Int_Tables_number       1
_space_group_crystal_system       triclinic
_cell_length_a                    10.533637
_cell_length_b                    10.010892
_cell_length_c                    18.937218
_cell_angle_alpha                 90.297432
_cell_angle_beta                  91.558794
_cell_angle_gamma                 89.916376
_cell_volume                      1996.1828839

loop_
_atom_site_label
_atom_site_type_symbol
_atom_type_description
_atom_site_fract_x
_atom_site_fract_y
_atom_site_fract_z
_atom_type_partial_charge
C1    C     C_R   0.871650 0.499834 0.500130 0.019587
C2    C     C_R   0.128390 0.500291 0.500101 0.018353
C3    C     C_R   0.674396 0.566692 0.962818 -0.183904
C4    C     C_R   0.577878 0.352385 0.038696 -0.183853
C5    C     C_R   0.681825 0.568650 0.036167 -0.196013
C6    C     C_R   0.570360 0.350539 0.965490 -0.197811
C7    C     C_R   0.629041 0.463887 0.074386 0.108126
C8    C     C_R   0.613899 0.460076 0.927451 0.109348
C9    C     C_R   0.260817 0.500087 0.499927 0.867122
C10   C     C_R   0.739207 0.499928 0.500254 0.857801
C11   C     C_R   0.506699 0.499020 0.365593 0.848383
C12   C     C_R   0.500637 0.500031 0.634132 0.832835
C13   C     C_R   0.068549 0.506051 0.564590 -0.246195
C14   C     C_R   0.931499 0.494300 0.435630 -0.248996
C15   C     C_R   0.938152 0.505986 0.564534 -0.166319
C16   C     C_R   0.061923 0.494974 0.435686 -0.164582
C17   C     C_R   0.648729 0.522570 0.734253 -0.180725
C18   C     C_R   0.525812 0.604397 0.247391 -0.206325
C19   C     C_R   0.595203 0.375847 0.264658 -0.206224
C20   C     C_R   0.431242 0.456603 0.754629 -0.228740
C21   C     C_R   0.678512 0.509796 0.805658 -0.218006
C22   C     C_R   0.560318 0.596813 0.177203 -0.179162
C23   C     C_R   0.630292 0.368239 0.194739 -0.198462
C24   C     C_R   0.460861 0.442890 0.826169 -0.165526
C25   C     C_R   0.584742 0.469464 0.851905 0.111244
C26   C     C_R   0.610925 0.477879 0.150290 0.121731
C27   C     C_R   0.588364 0.072118 0.539161 -0.023045
C28   C     C_R   0.409860 0.928516 0.462106 -0.021626
C29   C     C_R   0.410695 0.071735 0.461515 -0.025284
C30   C     C_R   0.588314 0.928739 0.539237 -0.020366
C31   C     C_R   0.525063 0.498176 0.709131 0.006163
C32   C     C_R   0.539883 0.493135 0.291169 -0.024197
H1    H     H_    0.122441 0.510399 0.614139 0.120041
H2    H     H_    0.877608 0.490053 0.386072 0.130593
H3    H     H_    0.889247 0.510234 0.614051 0.134707
H4    H     H_    0.111051 0.491964 0.386153 0.147161
H5    H     H_    0.722826 0.547211 0.698122 0.140677
H6    H     H_    0.486648 0.696129 0.266731 0.142601
H7    H     H_    0.612745 0.289951 0.298025 0.146821
H8    H     H_    0.336151 0.434312 0.734741 0.118863
H9    H     H_    0.774835 0.528696 0.824555 0.129299
H10   H     H_    0.543043 0.682196 0.143366 0.126316
H11   H     H_    0.670784 0.276204 0.175058 0.125985
H12   H     H_    0.387018 0.413022 0.861504 0.129225
H13   H     H_    0.708555 0.652026 0.933995 0.127234
H14   H     H_    0.535881 0.270900 0.067303 0.127813
H15   H     H_    0.722891 0.654695 0.063082 0.127068
H16   H     H_    0.525152 0.266669 0.938637 0.127789
N1    N     N_R   0.500000 0.857200 0.500000 -0.120505
N2    N     N_R   0.500000 0.142800 0.500000 -0.121912
O1    O     O_R   0.316770 0.614620 0.500000 -0.612828
O2    O     O_R   0.683230 0.385380 0.500000 -0.614664
O3    O     O_R   0.683230 0.614620 0.500000 -0.616571
O4    O     O_R   0.316770 0.385380 0.500000 -0.612135
O5    O     O_R   0.500030 0.614710 0.398180 -0.611572
O6    O     O_R   0.499970 0.385290 0.601820 -0.611963
O7    O     O_R   0.499970 0.614710 0.601820 -0.613476
O8    O     O_R   0.500030 0.385290 0.398180 -0.620868
Zn1   Zn    Zn3+2 0.500000 0.653120 0.500000 0.946427
Zn2   Zn    Zn3+2 0.500000 0.346880 0.500000 0.942747
C33   C     C_R   0.685427 0.143030 0.582897 0.192219
C34   C     C_R   0.809244 0.156525 0.558088 -0.120613
C35   C     C_R   0.907623 0.199772 0.603561 -0.134449
C36   C     C_R   0.883096 0.230683 0.673919 -0.141638
C37   C     C_R   0.760448 0.216521 0.699120 -0.150565
C38   C     C_R   0.662027 0.171983 0.653976 -0.111398
H17   H     H_    0.829975 0.129778 0.504127 0.104350
H18   H     H_    0.002983 0.208877 0.584305 0.136275
H19   H     H_    0.959342 0.264478 0.709034 0.124343
H20   H     H_    0.742071 0.237686 0.753989 0.145939
H21   H     H_    0.568531 0.156214 0.674844 0.123697
C39   C     C_R   0.309562 0.859273 0.420220 0.204519
C40   C     C_R   0.324439 0.841770 0.347528 -0.137134
C41   C     C_R   0.222761 0.798200 0.304426 -0.157399
C42   C     C_R   0.103807 0.777630 0.333333 -0.124799
C43   C     C_R   0.086645 0.800871 0.405262 -0.142788
C44   C     C_R   0.189125 0.840898 0.448715 -0.124100
H22   H     H_    0.413172 0.869047 0.324160 0.101708
H23   H     H_    0.235236 0.784324 0.248328 0.128092
H24   H     H_    0.024504 0.745708 0.299878 0.127261
H25   H     H_    0.993954 0.787667 0.427331 0.138106
H26   H     H_    0.174166 0.861437 0.504061 0.106549
C45   C     C_R   0.313711 0.141915 0.417617 0.195584
C46   C     C_R   0.188912 0.153329 0.441363 -0.122451
C47   C     C_R   0.090868 0.193608 0.395042 -0.135973
C48   C     C_R   0.117091 0.226248 0.325284 -0.138259
C49   C     C_R   0.241089 0.216053 0.301398 -0.158299
C50   C     C_R   0.338572 0.171433 0.346981 -0.114819
H27   H     H_    0.167078 0.126281 0.494972 0.104444
H28   H     H_    0.994589 0.199965 0.413296 0.134858
H29   H     H_    0.041201 0.258735 0.289692 0.127916
H30   H     H_    0.261108 0.239359 0.247082 0.134466
H31   H     H_    0.432488 0.155614 0.326750 0.111622
C51   C     C_R   0.684249 0.860000 0.584312 0.196151
C52   C     C_R   0.662302 0.844985 0.656628 -0.130954
C53   C     C_R   0.762771 0.814652 0.703615 -0.164054
C54   C     C_R   0.885278 0.797016 0.678666 -0.141332
C55   C     C_R   0.907865 0.811759 0.606806 -0.144435
C56   C     C_R   0.807936 0.843331 0.559777 -0.122885
H32   H     H_    0.568808 0.863600 0.677025 0.122649
H33   H     H_    0.745753 0.805680 0.759494 0.138159
H34   H     H_    0.962881 0.773268 0.715091 0.125674
H35   H     H_    0.003147 0.800596 0.587691 0.135689
H36   H     H_    0.827519 0.860783 0.504784 0.107868

loop_
_geom_bond_atom_site_label_1
_geom_bond_atom_site_label_2
_ccdc_geom_bond_type
C49   C50   A    
O5    Zn1   S    
C40   C41   A    
C52   C53   A    
C9    O1    A    
C10   O2    A    
C54   C55   A    
O3    Zn1   S    
O4    Zn2   S    
C47   C48   A    
C5    H15   S    
C34   C35   A    
C7    C26   S    
C6    H16   S    
C34   H17   S    
C45   C46   A    
C44   H26   S    
C28   C29   A    
C29   C45   S    
C48   H29   S    
C20   H8    S    
O7    Zn1   S    
O8    Zn2   S    
C55   H35   S    
C23   H11   S    
C23   C26   A    
C10   O3    A    
C2    C13   A    
C27   C33   S    
C35   H18   S    
C33   C38   A    
C20   C24   A    
C40   H22   S    
C24   C25   A    
C1    C15   A    
C11   O8    A    
C2    C16   A    
C42   H24   S    
C54   H34   S    
C27   N2    A    
C56   H36   S    
C18   C22   A    
C49   H30   S    
C27   C30   A    
C4    H14   S    
C8    C25   S    
C28   C39   S    
C4    C7    A    
C19   C32   A    
C15   H3    S    
C29   N2    A    
C41   C42   A    
C43   C44   A    
C4    C6    A    
C3    C8    A    
C5    C7    A    
C52   H32   S    
C6    C8    A    
C3    H13   S    
C17   C21   A    
O6    Zn2   S    
C19   C23   A    
C42   C43   A    
C13   H1    S    
C39   C44   A    
C28   N1    A    
C38   H21   S    
C53   C54   A    
C51   C52   A    
C17   H5    S    
C36   H19   S    
C46   C47   A    
C12   O6    A    
C19   H7    S    
C21   H9    S    
C12   O7    A    
C30   N1    A    
C11   C32   S    
C55   C56   A    
C41   H23   S    
C13   C15   A    
C12   C31   S    
C17   C31   A    
C14   C16   A    
O1    Zn1   S    
C46   H27   S    
C11   O5    A    
C21   C25   A    
C50   H31   S    
C48   C49   A    
C1    C10   S    
C39   C40   A    
C3    C5    A    
C43   H25   S    
C14   H2    S    
C47   H28   S    
C9    O4    A    
N1    Zn1   S    
N2    Zn2   S    
C36   C37   A    
C18   H6    S    
C30   C51   S    
C16   H4    S    
C22   H10   S    
C51   C56   A    
C24   H12   S    
C45   C50   A    
C33   C34   A    
C35   C36   A    
C18   C32   A    
O2    Zn2   S    
C37   C38   A    
C22   C26   A    
C1    C14   A    
C53   H33   S    
C2    C9    S    
C37   H20   S    
C20   C31   A    
