data_mof_unit_16483.cif
_audit_creation_date              2012-12-10T17:43:40-0500
_audit_creation_method            fapswitch 2.2
_symmetry_space_group_name_H-M    P1
_symmetry_Int_Tables_number       1
_space_group_crystal_system       triclinic
_cell_length_a                    15.003098
_cell_length_b                    10.726417
_cell_length_c                    9.876631
_cell_angle_alpha                 89.235492
_cell_angle_beta                  90.077986
_cell_angle_gamma                 91.813054
_cell_volume                      1588.50331482

loop_
_atom_site_label
_atom_site_type_symbol
_atom_type_description
_atom_site_fract_x
_atom_site_fract_y
_atom_site_fract_z
_atom_type_partial_charge
C1    C     C_R   0.505347 0.259802 0.501997 0.860642
C2    C     C_R   0.184790 0.464194 0.380465 -0.272415
C3    C     C_R   0.230596 0.493461 0.499788 -0.050346
C4    C     C_R   0.326614 0.498643 0.499930 0.857564
C5    C     C_R   0.185165 0.516823 0.619164 -0.254219
C6    C     C_R   0.514846 0.107093 0.762226 -0.163763
C7    C     C_R   0.485204 0.043671 0.878729 -0.130822
C8    C     C_R   0.438389 0.930523 0.867576 -0.143293
C9    C     C_R   0.429401 0.875172 0.741322 -0.155830
C10   C     C_R   0.467135 0.933583 0.624203 0.099921
C11   C     C_R   0.497364 0.057809 0.631671 0.097306
C12   C     C_R   0.908117 0.517025 0.620472 0.105102
C13   C     C_R   0.508429 0.125764 0.507642 -0.117907
C14   C     C_R   0.508160 0.064351 0.383663 -0.219423
C15   C     C_R   0.496891 0.937428 0.380686 -0.191582
C16   C     C_R   0.490740 0.738828 0.499663 0.895667
C17   C     C_R   0.479179 0.871205 0.500593 -0.142543
C18   C     C_R   0.382784 0.336122 0.142315 -0.141587
C19   C     C_R   0.325252 0.255384 0.072775 -0.230055
C20   C     C_R   0.324802 0.256183 0.932679 -0.167167
C21   C     C_R   0.382530 0.336880 0.861380 -0.127582
C22   C     C_R   0.442130 0.419431 0.928539 0.121689
C23   C     C_R   0.949937 0.431134 0.262176 -0.189697
C24   C     C_R   0.442198 0.419298 0.073354 0.053178
C25   C     C_R   0.555095 0.577555 0.070550 0.639401
C26   C     C_R   0.555051 0.577411 0.927176 -0.229454
C27   C     C_R   0.673322 0.499717 0.500082 0.911035
C28   C     C_R   0.816002 0.520608 0.619738 -0.243740
C29   C     C_R   0.769073 0.496085 0.500326 -0.076606
C30   C     C_R   0.813500 0.466438 0.381385 -0.214585
C31   C     C_R   0.905614 0.461837 0.380640 0.059801
C32   C     C_R   0.953365 0.487800 0.500107 0.063704
C33   C     C_2   0.085941 0.387469 0.130792 0.370390
C34   C     C_R   0.043032 0.426924 0.258835 -0.016277
C35   C     C_R   0.091819 0.457779 0.378082 0.019090
C36   C     C_R   0.046134 0.486086 0.499161 0.065379
C37   C     C_R   0.093188 0.514619 0.619633 0.108991
C38   C     C_R   0.047838 0.542303 0.738691 -0.157518
C39   C     C_R   0.955465 0.543232 0.739228 -0.171467
F1    F     F_    0.611400 0.656963 0.136871 -0.655619
H1    H     H_    0.781041 0.543746 0.711692 0.164706
H2    H     H_    0.379156 0.330719 0.754103 0.206334
H3    H     H_    0.776420 0.446072 0.289501 0.171745
H4    H     H_    0.599902 0.640571 0.872055 0.183393
H5    H     H_    0.911287 0.409203 0.172213 0.189504
H6    H     H_    0.222918 0.448345 0.290345 0.147987
H7    H     H_    0.221356 0.539313 0.711315 0.161207
H8    H     H_    0.083913 0.564345 0.830921 0.171978
H9    H     H_    0.921141 0.565435 0.831928 0.164234
H10   H     H_    0.517967 0.114044 0.288298 0.173928
H11   H     H_    0.155281 0.363830 0.126888 0.069524
H12   H     H_    0.553987 0.191835 0.777568 0.174399
H13   H     H_    0.497051 0.083709 0.977456 0.147349
H14   H     H_    0.411736 0.883598 0.957136 0.139606
H15   H     H_    0.392689 0.786893 0.736314 0.156845
H16   H     H_    0.503807 0.891234 0.284508 0.193594
H17   H     H_    0.378393 0.330589 0.249664 0.205375
H18   H     H_    0.280489 0.192144 0.128134 0.150786
H19   H     H_    0.279975 0.193213 0.878731 0.160714
N1    N     N_R   0.499150 0.498800 0.142780 -0.173908
N2    N     N_R   0.499120 0.498720 0.857170 -0.155451
O1    O     O_R   0.500000 0.316780 0.614690 -0.653929
O2    O     O_R   0.499990 0.316750 0.385360 -0.645698
O3    O     O_R   0.367850 0.499980 0.614680 -0.651063
O4    O     O_R   0.367840 0.499960 0.385350 -0.648303
O5    O     O_R   0.500010 0.683250 0.614640 -0.624814
O6    O     O_R   0.500000 0.683220 0.385310 -0.572495
O7    O     O_R   0.632160 0.500040 0.614650 -0.626669
O8    O     O_R   0.632150 0.500020 0.385320 -0.573315
O9    O     O_2   0.042886 0.378115 0.026182 -0.585936
Zn1   Zn    Zn3+2 0.500010 0.500020 0.653130 0.926648
Zn2   Zn    Zn3+2 0.499990 0.499980 0.346870 0.986360

loop_
_geom_bond_atom_site_label_1
_geom_bond_atom_site_label_2
_ccdc_geom_bond_type
C2    C35   A    
C37   C38   A    
O8    Zn2   S    
C6    C7    A    
C9    H15   S    
C25   N1    A    
C5    C37   A    
C27   C29   S    
O4    Zn2   S    
C5    H7    S    
C9    C10   A    
C4    O3    A    
C18   H17   S    
C38   H8    S    
O5    Zn1   S    
C27   O8    A    
C30   C31   A    
C24   N1    A    
C23   C34   A    
C15   H16   S    
N2    Zn1   S    
C19   C20   A    
C14   C15   A    
C2    C3    A    
C3    C4    S    
C3    C5    A    
C26   H4    S    
C7    C8    A    
C25   F1    S    
C16   O6    A    
C14   H10   S    
C21   C22   A    
C2    H6    S    
C22   N2    A    
C11   C13   A    
C29   C30   A    
C33   O9    D    
C12   C39   A    
O7    Zn1   S    
C23   H5    S    
C1    O2    A    
C28   C29   A    
C39   H9    S    
C26   N2    A    
C12   C28   A    
O1    Zn1   S    
C33   C34   S    
C19   H18   S    
C38   C39   A    
C34   C35   A    
C22   C24   A    
C30   H3    S    
C18   C24   A    
C1    C13   S    
C10   C11   A    
N1    Zn2   S    
C10   C17   A    
C21   H2    S    
C32   C36   A    
C28   H1    S    
C16   O5    A    
O2    Zn2   S    
C1    O1    A    
C20   C21   A    
O6    Zn2   S    
O3    Zn1   S    
C8    H14   S    
C6    C11   A    
C15   C17   A    
C18   C19   A    
C7    H13   S    
C4    O4    A    
C36   C37   A    
C27   O7    A    
C6    H12   S    
C25   C26   A    
C13   C14   A    
C12   C32   A    
C33   H11   S    
C31   C32   A    
C16   C17   S    
C8    C9    A    
C20   H19   S    
C35   C36   A    
C23   C31   A    
