data_mof_unit_67233.cif
_audit_creation_date              2012-12-11T18:15:38-0500
_audit_creation_method            fapswitch 2.2
_symmetry_space_group_name_H-M    P1
_symmetry_Int_Tables_number       1
_space_group_crystal_system       triclinic
_cell_length_a                    20.329058
_cell_length_b                    20.916526
_cell_length_c                    8.446899
_cell_angle_alpha                 90.000356
_cell_angle_beta                  91.862628
_cell_angle_gamma                 89.891526
_cell_volume                      3589.82934105

loop_
_atom_site_label
_atom_site_type_symbol
_atom_type_description
_atom_site_fract_x
_atom_site_fract_y
_atom_site_fract_z
_atom_type_partial_charge
Ba1   Ba    Ba6+2 0.999980 0.452130 0.155200 1.816313
Ba2   Ba    Ba6+2 0.999980 0.547870 0.655200 1.809995
Ba3   Ba    Ba6+2 0.499980 0.952130 0.155200 1.776989
Ba4   Ba    Ba6+2 0.499980 0.047870 0.655200 1.741734
C1    C     C_3   0.943337 0.151772 0.365824 -0.254194
C2    C     C_R   0.124705 0.652277 0.164924 -0.136429
C3    C     C_2   0.453037 0.861348 0.641669 0.556957
C4    C     C_2   0.038392 0.103071 0.046555 0.681940
C5    C     C_2   0.073204 0.877488 0.249708 0.527886
C6    C     C_2   0.538548 0.603032 0.045914 0.690954
C7    C     C_2   0.573272 0.377235 0.249608 0.528917
C8    C     C_R   0.617116 0.844343 0.673203 -0.232055
C9    C     C_R   0.624685 0.152279 0.164939 -0.132741
C10   C     C_R   0.126193 0.292092 0.573234 0.041715
C11   C     C_R   0.131404 0.705467 0.067047 0.069064
C12   C     C_R   0.626249 0.792126 0.573147 0.044655
C13   C     C_R   0.631399 0.205460 0.067038 0.081296
C14   C     C_R   0.170879 0.245210 0.616541 -0.049664
C15   C     C_R   0.173888 0.753695 0.113250 -0.094486
C16   C     C_R   0.670980 0.745274 0.616391 -0.050871
C17   C     C_3   0.945441 0.848442 0.872981 -0.239476
C18   C     C_R   0.673904 0.253673 0.113204 -0.105481
C19   C     C_R   0.207841 0.248101 0.761069 -0.012720
C20   C     C_R   0.209838 0.751486 0.259602 -0.022221
C21   C     C_R   0.707922 0.748157 0.760946 -0.015861
C22   C     C_R   0.709847 0.251473 0.259567 -0.015442
C23   C     C_R   0.200095 0.301911 0.860837 -0.058106
C24   C     C_R   0.201843 0.697880 0.360230 -0.057281
C25   C     C_R   0.700145 0.801945 0.860763 -0.067016
C26   C     C_R   0.701837 0.197881 0.360226 -0.041951
C27   C     C_R   0.796271 0.701828 0.939699 -0.001691
C28   C     C_3   0.443413 0.651712 0.365336 -0.265906
C29   C     C_R   0.796733 0.298732 0.440832 -0.018539
C30   C     C_R   0.296210 0.201785 0.939791 0.008546
C31   C     C_R   0.296741 0.798728 0.440842 -0.027063
C32   C     C_R   0.789066 0.757703 0.038412 -0.071853
C33   C     C_R   0.789306 0.243104 0.539981 -0.082033
C34   C     C_R   0.289011 0.257665 0.038490 -0.076160
C35   C     C_R   0.289330 0.743086 0.539958 -0.087162
C36   C     C_R   0.846942 0.654341 0.984006 -0.027337
C37   C     C_R   0.848154 0.345603 0.483912 -0.026692
C38   C     C_R   0.346909 0.154320 0.984052 -0.044652
C39   C     C_3   0.445434 0.348443 0.872939 -0.249235
C40   C     C_R   0.348163 0.845598 0.483914 -0.029228
C41   C     C_R   0.885736 0.666624 0.121587 -0.264309
C42   C     C_R   0.888463 0.332170 0.619381 -0.271957
C43   C     C_R   0.385715 0.166616 0.121608 -0.258826
C44   C     C_R   0.388486 0.832154 0.619359 -0.265698
C45   C     C_3   0.020174 0.208869 0.912545 0.180299
C46   C     C_3   0.012039 0.798529 0.405430 0.205114
C47   C     C_3   0.519918 0.708649 0.911556 0.157826
C48   C     C_3   0.512040 0.298463 0.405616 0.212647
C49   C     C_R   0.872496 0.716108 0.228652 0.023987
C50   C     C_R   0.151350 0.350050 0.818707 0.001179
C51   C     C_R   0.873717 0.283995 0.728179 -0.005890
C52   C     C_R   0.372459 0.216085 0.228700 0.033121
C53   C     C_R   0.373749 0.783970 0.728147 0.002430
C54   C     C_R   0.826479 0.763484 0.183855 -0.162189
C55   C     C_R   0.826761 0.237411 0.685175 -0.131224
C56   C     C_R   0.326425 0.263448 0.183929 -0.156282
C57   C     C_R   0.326799 0.737382 0.685133 -0.138019
C58   C     C_R   0.751744 0.697527 0.804228 0.441810
C59   C     C_R   0.752705 0.302643 0.304144 0.428820
C60   C     C_R   0.251667 0.197471 0.804350 0.442844
C61   C     C_R   0.154583 0.648804 0.315733 -0.003013
C62   C     C_R   0.252688 0.802658 0.304202 0.436607
C63   C     C_3   0.042430 0.139331 0.893111 0.224224
C64   C     C_3   0.009406 0.864225 0.326133 0.182344
C65   C     C_3   0.541832 0.639023 0.891977 0.211475
C66   C     C_3   0.509480 0.364129 0.326196 0.180225
C67   C     C_3   0.789063 0.474192 0.789407 0.514522
C68   C     C_3   0.790727 0.526594 0.290804 0.510426
C69   C     C_3   0.289087 0.974175 0.789381 0.503096
C70   C     C_3   0.290770 0.026640 0.290867 0.495484
C71   C     C_3   0.718607 0.445647 0.785800 0.248323
C72   C     C_R   0.651374 0.850064 0.818670 0.005053
C73   C     C_3   0.720788 0.555992 0.285738 0.243893
C74   C     C_3   0.218646 0.945595 0.785786 0.254355
C75   C     C_3   0.220828 0.056050 0.285883 0.247193
C76   C     C_3   0.207378 0.524430 0.031666 0.591921
C77   C     C_3   0.205186 0.474111 0.535059 0.616553
C78   C     C_3   0.707365 0.024438 0.031676 0.606669
C79   C     C_3   0.705194 0.974111 0.535035 0.594375
C80   C     C_3   0.272581 0.530955 0.124597 -0.252296
C81   C     C_3   0.271091 0.465734 0.624217 -0.248332
C82   C     C_3   0.772569 0.030976 0.124594 -0.255760
C83   C     C_R   0.654574 0.148805 0.315737 -0.022485
C84   C     C_3   0.771092 0.965748 0.624233 -0.226514
C85   C     C_3   0.979001 0.214118 0.403753 0.278971
C86   C     C_3   0.980610 0.785119 0.904302 0.300889
C87   C     C_3   0.478923 0.714174 0.402825 0.245427
C88   C     C_3   0.480602 0.285120 0.904270 0.325451
C89   C     C_R   0.241343 0.305683 0.996919 -0.046045
C90   C     C_R   0.241876 0.694970 0.498391 -0.051851
C91   C     C_R   0.741386 0.805714 0.996859 -0.040730
C92   C     C_R   0.741857 0.194982 0.498409 -0.062390
C93   C     C_2   0.714677 0.380590 0.709658 0.459145
C94   C     C_R   0.117092 0.344329 0.673243 -0.217340
C95   C     C_2   0.718440 0.623160 0.221592 0.413504
C96   C     C_2   0.214729 0.880571 0.709477 0.450016
C97   C     C_2   0.218520 0.123470 0.223233 0.406753
C98   C     C_2   0.820099 0.820697 0.286116 0.570500
C99   C     C_2   0.820445 0.180361 0.787720 0.598424
C100  C     C_2   0.320026 0.320647 0.286226 0.552084
C101  C     C_2   0.320492 0.680325 0.787658 0.590425
C102  C     C_2   0.946095 0.631344 0.151366 0.476696
C103  C     C_2   0.953018 0.361357 0.641680 0.585845
C104  C     C_2   0.446110 0.131384 0.151314 0.474434
Cl1   Cl    Cl    0.659103 0.498237 0.695102 -0.426842
Cl2   Cl    Cl    0.741340 0.372168 0.190295 -0.645477
Cl3   Cl    Cl    0.239610 0.127363 0.693519 -0.632381
Cl4   Cl    Cl    0.241261 0.872219 0.190507 -0.646810
Cl5   Cl    Cl    0.994272 0.101523 0.739037 -0.586844
Cl6   Cl    Cl    0.995177 0.925668 0.467776 -0.529634
Cl7   Cl    Cl    0.492631 0.601181 0.739841 -0.591737
Cl8   Cl    Cl    0.495427 0.425642 0.467775 -0.530856
Cl9   Cl    Cl    0.841963 0.419436 0.884582 -0.689659
Cl10  Cl    Cl    0.843897 0.579440 0.389855 -0.759222
Cl11  Cl    Cl    0.342000 0.919436 0.884552 -0.694007
Cl12  Cl    Cl    0.664263 0.506680 0.176768 -0.516373
Cl13  Cl    Cl    0.344023 0.079394 0.389950 -0.767225
Cl14  Cl    Cl    0.159083 0.998194 0.695356 -0.427116
Cl15  Cl    Cl    0.164474 0.007046 0.175434 -0.515000
Cl16  Cl    Cl    0.200870 0.589077 0.898978 -0.749826
Cl17  Cl    Cl    0.195306 0.408714 0.406172 -0.731124
Cl18  Cl    Cl    0.700842 0.089078 0.898980 -0.759177
Cl19  Cl    Cl    0.695350 0.908719 0.406118 -0.735224
Cl20  Cl    Cl    0.739638 0.627405 0.693480 -0.626642
H1    H     H_    0.949163 0.253219 0.348510 0.041437
H2    H     H_    0.164681 0.475955 0.619693 0.008314
H3    H     H_    0.666259 0.024300 0.114677 -0.002775
H4    H     H_    0.664678 0.975939 0.619642 0.010748
H5    H     H_    0.280318 0.489165 0.203932 0.123466
H6    H     H_    0.281209 0.507599 0.701741 0.131905
H7    H     H_    0.780319 0.989189 0.203928 0.122831
H8    H     H_    0.781191 0.007613 0.701765 0.129653
H9    H     H_    0.272880 0.575411 0.196518 0.102116
H10   H     H_    0.270815 0.421597 0.697257 0.101490
H11   H     H_    0.772862 0.075433 0.196512 0.102487
H12   H     H_    0.951168 0.747650 0.841424 0.052475
H13   H     H_    0.770818 0.921609 0.697268 0.097641
H14   H     H_    0.314182 0.532900 0.042526 0.153385
H15   H     H_    0.311642 0.461932 0.539511 0.160132
H16   H     H_    0.814167 0.032929 0.042514 0.154060
H17   H     H_    0.811653 0.961956 0.539553 0.158332
H18   H     H_    0.981789 0.220251 0.534181 -0.008351
H19   H     H_    0.981815 0.775994 0.033798 -0.017955
H20   H     H_    0.481356 0.720613 0.533156 0.002420
H21   H     H_    0.481801 0.276000 0.033768 -0.025764
H22   H     H_    0.974815 0.110246 0.399547 0.214740
H23   H     H_    0.449200 0.753119 0.346546 0.049655
H24   H     H_    0.895716 0.847017 0.923518 0.014325
H25   H     H_    0.474849 0.610317 0.400203 0.216721
H26   H     H_    0.395695 0.347007 0.923397 0.013185
H27   H     H_    0.897028 0.149477 0.431758 0.067941
H28   H     H_    0.939856 0.857086 0.743803 0.201129
H29   H     H_    0.396914 0.649551 0.430531 0.073964
H30   H     H_    0.439884 0.357103 0.743764 0.202403
H31   H     H_    0.094429 0.139080 0.856682 0.099194
H32   H     H_    0.968301 0.865080 0.236065 0.033992
H33   H     H_    0.593599 0.638532 0.853815 0.102462
H34   H     H_    0.451163 0.247650 0.841391 0.047191
H35   H     H_    0.468342 0.365024 0.236210 0.035390
H36   H     H_    0.086259 0.383421 0.632337 0.086919
H37   H     H_    0.096382 0.611952 0.121187 0.094633
H38   H     H_    0.586262 0.883424 0.632328 0.091971
H39   H     H_    0.596345 0.111961 0.121226 0.094635
H40   H     H_    0.177067 0.207472 0.531095 0.127762
H41   H     H_    0.178897 0.792050 0.029032 0.147879
H42   H     H_    0.677215 0.707562 0.530888 0.125056
H43   H     H_    0.678925 0.292013 0.028953 0.146312
H44   H     H_    0.235912 0.346821 0.071801 0.119586
H45   H     H_    0.703350 0.439351 0.909361 0.168866
H46   H     H_    0.236260 0.653966 0.573662 0.119718
H47   H     H_    0.735934 0.846838 0.071777 0.119812
H48   H     H_    0.736235 0.153985 0.573700 0.119682
H49   H     H_    0.930689 0.148981 0.237359 0.142540
H50   H     H_    0.973294 0.888674 0.927771 0.203900
H51   H     H_    0.431112 0.648564 0.236777 0.145929
H52   H     H_    0.473268 0.388671 0.927802 0.206031
H53   H     H_    0.054833 0.233772 0.996157 0.040046
H54   H     H_    0.053653 0.796968 0.494090 0.102822
H55   H     H_    0.554967 0.733502 0.994290 0.041681
H56   H     H_    0.702825 0.558156 0.408088 0.154506
H57   H     H_    0.553608 0.296907 0.494401 0.103162
H58   H     H_    0.022547 0.232632 0.795104 -0.048928
H59   H     H_    0.022428 0.762103 0.313584 -0.067668
H60   H     H_    0.521952 0.732284 0.793943 -0.039676
H61   H     H_    0.522462 0.262007 0.313867 -0.066569
H62   H     H_    0.805213 0.484579 0.668494 0.061315
H63   H     H_    0.807662 0.516974 0.170125 0.050613
H64   H     H_    0.305229 0.984572 0.668467 0.061780
H65   H     H_    0.307692 0.017049 0.170163 0.055921
H66   H     H_    0.740361 0.340640 0.765248 0.016079
H67   H     H_    0.203427 0.939218 0.909344 0.168557
H68   H     H_    0.741264 0.661609 0.289457 0.041699
H69   H     H_    0.240454 0.840614 0.764922 0.013865
H70   H     H_    0.241572 0.161633 0.291712 0.046489
H71   H     H_    0.823032 0.868166 0.235089 -0.008045
H72   H     H_    0.823909 0.132849 0.737058 0.026414
H73   H     H_    0.322973 0.368123 0.235244 -0.003931
H74   H     H_    0.323930 0.632816 0.736963 0.029482
H75   H     H_    0.946972 0.581812 0.187684 0.069316
H76   H     H_    0.994250 0.329874 0.632192 0.095906
H77   H     H_    0.447040 0.081849 0.187576 0.077122
H78   H     H_    0.202713 0.057778 0.408151 0.157786
H79   H     H_    0.494273 0.829867 0.632218 -0.126340
H80   H     H_    0.065836 0.119764 0.150393 0.044445
H81   H     H_    0.117760 0.881216 0.322511 0.150540
H82   H     H_    0.566216 0.620072 0.149020 0.045283
H83   H     H_    0.617880 0.380777 0.322297 0.150820
H84   H     H_    0.166271 0.524298 0.114664 0.004877
O1    O     O_2   0.130070 0.404060 0.104920 -0.418025
O2    O     O_3   0.953252 0.788599 0.485521 -0.557044
O3    O     O_3   0.456543 0.710251 0.973661 -0.580475
O4    O     O_3   0.453201 0.288589 0.485523 -0.558198
O5    O     O_3   0.924190 0.533610 0.949240 -0.470114
O6    O     O_3   0.924190 0.466390 0.449240 -0.434117
O7    O     O_3   0.424190 0.033610 0.949240 -0.467763
O8    O     O_3   0.424190 0.966390 0.449240 -0.429408
O9    O     O_3   0.075780 0.466370 0.861070 -0.451008
O10   O     O_3   0.075780 0.533630 0.361070 -0.481082
O11   O     O_3   0.575780 0.966370 0.861070 -0.446160
O12   O     O_2   0.130070 0.595940 0.604920 -0.419131
O13   O     O_3   0.575780 0.033630 0.361070 -0.473022
O14   O     O_3   0.022320 0.344950 0.359800 -0.508221
O15   O     O_3   0.022320 0.655050 0.859800 -0.467395
O16   O     O_3   0.522320 0.844950 0.359800 -0.504344
O17   O     O_3   0.522320 0.155050 0.859800 -0.463525
O18   O     O_2   0.128223 0.293456 0.240394 -0.423611
O19   O     O_2   0.127347 0.706187 0.733278 -0.437891
O20   O     O_2   0.628222 0.793464 0.240313 -0.420768
O21   O     O_2   0.627342 0.206186 0.733270 -0.438547
O22   O     O_3   0.210262 0.469551 0.939208 -0.658511
O23   O     O_2   0.630070 0.904060 0.104920 -0.414338
O24   O     O_3   0.209141 0.528339 0.440311 -0.659700
O25   O     O_3   0.710257 0.969558 0.939223 -0.655722
O26   O     O_3   0.709144 0.028345 0.440306 -0.653968
O27   O     O_3   0.042684 0.212117 0.343450 -0.606173
O28   O     O_3   0.045088 0.787850 0.848412 -0.542325
O29   O     O_3   0.542779 0.712074 0.343540 -0.594701
O30   O     O_3   0.545083 0.287850 0.848399 -0.543277
O31   O     O_2   0.869860 0.403670 0.205810 -0.371758
O32   O     O_2   0.869860 0.596330 0.705810 -0.362774
O33   O     O_2   0.369860 0.903670 0.205810 -0.368943
O34   O     O_2   0.630070 0.095940 0.604920 -0.415127
O35   O     O_2   0.369860 0.096330 0.705810 -0.357797
O36   O     O_3   0.977590 0.344880 0.951200 -0.442961
O37   O     O_3   0.977590 0.655120 0.451200 -0.432350
O38   O     O_3   0.477590 0.844880 0.951200 -0.439575
O39   O     O_3   0.477590 0.155120 0.451200 -0.426890
O40   O     O_2   0.870321 0.292860 0.062936 -0.390132
O41   O     O_2   0.867972 0.704132 0.561889 -0.398040
O42   O     O_2   0.370270 0.792940 0.062865 -0.386746
O43   O     O_2   0.367954 0.204105 0.561947 -0.397636
O44   O     O_2   0.681114 0.371185 0.589602 -0.524889
O45   O     O_3   0.789522 0.470708 0.380836 -0.557793
O46   O     O_2   0.689635 0.635705 0.096555 -0.567611
O47   O     O_2   0.181127 0.871196 0.589470 -0.514849
O48   O     O_2   0.189441 0.136558 0.098849 -0.564685
O49   O     O_2   0.810402 0.815396 0.427313 -0.520688
O50   O     O_2   0.810345 0.185837 0.928684 -0.532632
O51   O     O_2   0.310302 0.315325 0.427405 -0.520322
O52   O     O_2   0.310429 0.685789 0.928641 -0.528220
O53   O     O_2   0.996568 0.661466 0.153293 -0.666470
O54   O     O_2   0.960392 0.414607 0.697525 -0.503017
O55   O     O_2   0.496553 0.161553 0.153261 -0.669756
O56   O     O_3   0.789459 0.529345 0.882551 -0.552761
O57   O     O_2   0.460405 0.914602 0.697491 -0.491068
O58   O     O_2   0.004750 0.055021 0.056872 -0.465188
O59   O     O_2   0.075639 0.884405 0.106687 -0.506498
O60   O     O_2   0.505256 0.554825 0.057462 -0.459903
O61   O     O_2   0.575648 0.384213 0.106591 -0.507445
O62   O     O_3   0.289533 0.970722 0.380785 -0.550404
O63   O     O_3   0.289469 0.029325 0.882539 -0.547288
O64   O     O_3   0.956543 0.210187 0.973264 -0.591043
P1    P     P_3+3 0.136530 0.426510 0.931350 1.020658
P2    P     P_3+3 0.917393 0.715793 0.429557 1.126637
P3    P     P_3+3 0.419004 0.783511 0.927720 1.109093
P4    P     P_3+3 0.417363 0.215773 0.429594 1.125339
P5    P     P_3+3 0.083165 0.713102 0.877902 1.107335
P6    P     P_3+3 0.081478 0.285707 0.379990 1.024274
P7    P     P_3+3 0.583161 0.213103 0.877893 1.105062
P8    P     P_3+3 0.581499 0.785716 0.379953 1.034552
P9    P     P_3+3 0.136530 0.573490 0.431350 1.020966
P10   P     P_3+3 0.636530 0.926510 0.931350 1.025623
P11   P     P_3+3 0.636530 0.073490 0.431350 1.035664
P12   P     P_3+3 0.863410 0.426100 0.379280 1.122629
P13   P     P_3+3 0.863410 0.573900 0.879280 1.126880
P14   P     P_3+3 0.363410 0.926100 0.379280 1.137356
P15   P     P_3+3 0.363410 0.073900 0.879280 1.141928
P16   P     P_3+3 0.919016 0.283494 0.927683 1.100415

loop_
_geom_bond_atom_site_label_1
_geom_bond_atom_site_label_2
_ccdc_geom_bond_type
Ba1   O14   S    
Ba3   P10   S    
C16   H42   S    
C78   O25   S    
C89   H44   S    
O30   P7    S    
C67   O56   S    
C69   Cl11  S    
C51   C55   A    
O43   P4    D    
C52   P4    S    
C10   C14   A    
C1    C85   S    
O9    P1    S    
C27   C36   A    
C30   C38   A    
Ba3   O38   S    
C48   O4    S    
C76   C80   S    
C39   H30   S    
O25   P10   S    
C66   H35   S    
C81   H15   S    
C77   H2    S    
C23   C50   A    
C82   H16   S    
C44   C53   A    
C35   C90   A    
C25   C72   A    
C10   P6    S    
C100  H73   S    
C11   C15   A    
C68   C73   S    
C40   P14   S    
O13   P11   S    
Ba2   P13   S    
C61   P9    S    
C83   P11   S    
C74   C96   S    
O10   P9    S    
C47   H55   S    
C8    H38   S    
C74   H67   S    
C47   O3    S    
C9    H39   S    
C28   C87   S    
C71   H45   S    
C16   C21   A    
C46   O2    S    
O8    P14   S    
C97   O48   D    
C71   C93   S    
O23   P10   D    
C85   H1    S    
O37   P2    S    
C24   C90   A    
Ba1   Ba2   S    
C17   H24   S    
O63   P15   S    
C4    H80   S    
C91   H47   S    
O39   P4    S    
C7    O61   D    
C26   C92   A    
C47   H60   S    
Ba1   O31   S    
Ba3   O23   S    
C102  H75   S    
C88   O30   S    
C6    H82   S    
C2    C61   A    
C78   Cl18  S    
C45   H58   S    
C8    C12   A    
C45   O64   S    
C5    H81   S    
Ba3   O8    S    
Ba4   O8    S    
C42   C51   A    
C51   P16   S    
Ba2   O5    S    
C4    O58   D    
C37   C42   A    
C28   H51   S    
Ba1   O6    S    
C54   C98   S    
C100  O51   D    
C19   C23   A    
C28   H25   S    
C37   P12   S    
C57   C101  S    
C36   C41   A    
Ba3   O13   S    
C68   H63   S    
C18   H43   S    
C20   C62   A    
O31   P12   D    
C76   H84   S    
C7    H83   S    
C96   H69   S    
O16   P8    S    
O12   P9    D    
C5    O59   D    
C96   O47   D    
C41   C49   A    
C68   O45   S    
O7    P15   S    
O22   P1    S    
O3    P3    S    
Ba4   O17   S    
O6    P12   S    
O4    P4    S    
C27   C58   A    
C72   P10   S    
O34   P11   D    
C46   H54   S    
C73   Cl12  S    
C46   H59   S    
O15   P5    S    
O5    P13   S    
C87   H20   S    
C5    C64   S    
Ba2   O15   S    
C10   C94   A    
C17   C86   S    
Ba4   O11   S    
C21   C25   A    
C49   P2    S    
C35   C57   A    
O27   P6    S    
O1    P1    D    
C80   H5    S    
C2    C11   A    
Ba4   P11   S    
C71   Cl1   S    
O36   P16   S    
C14   C19   A    
C87   O29   S    
C3    O57   D    
C84   H8    S    
C3    H79   S    
C11   P5    S    
Ba2   O37   S    
C79   Cl19  S    
C25   C91   A    
C67   Cl9   S    
C97   H70   S    
C60   Cl3   S    
C98   O49   D    
C31   C62   A    
C66   Cl8   S    
C78   C82   S    
C69   C74   S    
C75   Cl15  S    
C95   H68   S    
C70   O62   S    
Ba2   O9    S    
C29   C33   A    
C1    H22   S    
C52   C56   A    
C33   C92   A    
Ba1   O10   S    
O40   P16   D    
C30   C34   A    
C93   H66   S    
C12   P8    S    
C104  O55   D    
C31   C35   A    
C22   C59   A    
O14   P6    S    
Ba4   O35   S    
Ba1   P1    S    
C86   H19   S    
C76   O22   S    
O11   P10   S    
O42   P3    D    
C82   H7    S    
C94   H36   S    
C80   H14   S    
C12   C16   A    
Ba4   O7    S    
C1    H49   S    
C42   C103  S    
C9    C83   A    
C103  O54   D    
C30   C60   A    
C73   H56   S    
C84   H17   S    
C56   C100  S    
C36   P13   S    
C70   H65   S    
O20   P8    D    
C53   C57   A    
C31   C40   A    
O62   P14   S    
C48   H61   S    
C33   C55   A    
C82   H11   S    
C90   H46   S    
C93   O44   D    
C45   H53   S    
C53   P3    S    
Ba3   O7    S    
C17   H50   S    
O21   P7    D    
C67   C71   S    
C80   H9    S    
C22   C26   A    
C50   P1    S    
C70   C75   S    
Ba2   P9    S    
C8    C72   A    
Ba1   O1    S    
O33   P14   D    
C34   C56   A    
C23   C89   A    
C48   H57   S    
C24   C61   A    
O29   P8    S    
C68   Cl10  S    
Ba3   Ba4   S    
C39   H26   S    
C84   H13   S    
C41   C102  S    
C63   H31   S    
C28   H29   S    
C76   Cl16  S    
C88   H34   S    
O18   P6    D    
C38   P15   S    
C19   C60   A    
C102  O53   D    
C14   H40   S    
C92   H48   S    
C77   Cl17  S    
C58   Cl20  S    
Ba4   O34   S    
C85   O27   S    
O19   P5    D    
C75   C97   S    
C20   C24   A    
Ba4   O39   S    
C65   H33   S    
C104  H77   S    
Ba1   O36   S    
Ba2   O12   S    
C86   H12   S    
C49   C54   A    
O56   P13   S    
C45   C63   S    
C77   O24   S    
C21   C58   A    
C75   H78   S    
C47   C65   S    
C65   Cl7   S    
C81   H6    S    
C32   C54   A    
C39   C88   S    
C95   O46   D    
C86   O28   S    
C3    C44   S    
O28   P5    S    
C29   C37   A    
C99   H72   S    
C59   Cl2   S    
O2    P2    S    
C15   C20   A    
C78   H3    S    
Ba4   P15   S    
C55   C99   S    
C103  H76   S    
C1    H27   S    
C98   H71   S    
O38   P3    S    
C13   P7    S    
C87   H23   S    
C2    H37   S    
C32   C91   A    
C15   H41   S    
C101  H74   S    
C46   C64   S    
C39   H52   S    
C69   O63   S    
C101  O52   D    
Ba3   O16   S    
C34   C89   A    
C17   H28   S    
C73   C95   S    
C38   C43   A    
O45   P12   S    
C67   H62   S    
C63   Cl5   S    
C74   Cl14  S    
C29   C59   A    
C79   O26   S    
C69   H64   S    
C48   C66   S    
O41   P2    D    
C7    C66   S    
C9    C13   A    
O64   P16   S    
C6    C65   S    
O32   P13   D    
C79   H4    S    
C70   Cl13  S    
C13   C18   A    
C4    C63   S    
C77   C81   S    
C43   C104  S    
C18   C22   A    
O35   P15   D    
C88   H21   S    
Ba2   O6    S    
O17   P7    S    
C27   C32   A    
C50   C94   A    
C85   H18   S    
Ba1   O5    S    
O24   P9    S    
Ba3   O33   S    
Ba3   P14   S    
C62   Cl4   S    
C26   C83   A    
C64   H32   S    
C79   C84   S    
Ba2   O32   S    
C81   H10   S    
Ba1   P12   S    
C99   O50   D    
O26   P11   S    
C40   C44   A    
C64   Cl6   S    
C43   C52   A    
C6    O60   D    
