data_mof_unit_19084.cif
_audit_creation_date              2013-03-05T16:32:07-0500
_audit_creation_method            fapswitch 2.2
_symmetry_space_group_name_H-M    P1
_symmetry_Int_Tables_number       1
_space_group_crystal_system       triclinic
_cell_length_a                    10.778087
_cell_length_b                    10.86728
_cell_length_c                    9.654669
_cell_angle_alpha                 93.630752
_cell_angle_beta                  89.387478
_cell_angle_gamma                 93.464732
_cell_volume                      1126.47752781

loop_
_atom_site_label
_atom_site_type_symbol
_atom_site_description
_atom_site_fract_x
_atom_site_fract_y
_atom_site_fract_z
_atom_type_partial_charge
O1    O     O_R   0.500000 0.319640 0.618810 -0.547474
O2    O     O_R   0.500010 0.319680 0.381230 -0.558688
C1    C     C_R   0.494986 0.261243 0.496277 0.821903
O3    O     O_R   0.317690 0.499960 0.618790 -0.533688
O4    O     O_R   0.317700 0.500000 0.381210 -0.535035
C2    C     C_R   0.260025 0.501972 0.500287 0.766620
Cu1   Cu    Cu3+1 0.499990 0.499980 0.640670 0.985220
Cu2   Cu    Cu3+1 0.500010 0.500020 0.359330 0.970752
O5    O     O_R   0.499990 0.680320 0.618770 -0.577689
O6    O     O_R   0.500000 0.680360 0.381190 -0.596036
O7    O     O_R   0.682300 0.500000 0.618790 -0.588847
O8    O     O_R   0.682310 0.500040 0.381210 -0.584659
C3    C     C_R   0.511741 0.737486 0.504362 0.785193
C4    C     C_R   0.739882 0.502469 0.499505 0.743284
C5    C     C_3   0.067782 0.497073 0.646892 -0.295409
H1    H     H_    0.110382 0.573892 0.715590 0.207483
H2    H     H_    0.087378 0.406039 0.684906 0.246608
C6    C     C_3   0.927294 0.506505 0.648373 -0.397365
H3    H     H_    0.883091 0.429037 0.705313 0.180379
H4    H     H_    0.905231 0.594809 0.704850 0.168153
H5    H     H_    0.114243 0.706189 0.505758 0.150032
H6    H     H_    0.901494 0.705878 0.484093 0.155571
C7    C     C_3   0.079836 0.624352 0.438797 -0.384773
C8    C     C_3   0.064982 0.392726 0.408515 -0.388565
C9    C     C_3   0.121539 0.504335 0.498995 0.111702
H7    H     H_    0.093545 0.404709 0.299582 0.219168
H8    H     H_    0.099933 0.304753 0.441123 0.150617
C10   C     C_3   0.877887 0.504225 0.498278 0.162446
C11   C     C_3   0.935920 0.620610 0.430640 -0.375001
C12   C     C_3   0.921719 0.387332 0.416339 -0.395276
H9    H     H_    0.887107 0.303098 0.468139 0.164563
H10   H     H_    0.883476 0.380222 0.309273 0.172443
H11   H     H_    0.120294 0.634880 0.333333 0.193548
H12   H     H_    0.907791 0.619009 0.320145 0.168258
C13   C     C_R   0.467568 0.066685 0.617592 0.016926
C14   C     C_R   0.487066 0.124877 0.492225 -0.188992
C15   C     C_R   0.510423 0.047127 0.371973 0.444421
C16   C     C_R   0.551406 0.929781 0.389829 -0.295463
H13   H     H_    0.588075 0.878086 0.301063 0.156339
C17   C     C_R   0.527818 0.872027 0.513091 -0.104630
C18   C     C_R   0.485851 0.942356 0.628296 0.022024
C19   C     C_3   0.542532 0.968661 0.770326 0.297335
C20   C     C_3   0.515461 0.102876 0.759089 -0.435125
H14   H     H_    0.487163 0.920277 0.850488 0.075540
H15   H     H_    0.441014 0.133483 0.831402 0.164388
H16   H     H_    0.600023 0.166512 0.756580 0.211266
C21   C     C_R   0.606623 0.527966 0.073736 0.178413
N1    N     N_R   0.500800 0.500930 0.147930 -0.245925
C22   C     C_R   0.398269 0.458223 0.073046 0.429799
C23   C     C_R   0.397864 0.459781 0.925612 0.311096
N2    N     N_R   0.500800 0.500890 0.852020 -0.266908
C24   C     C_R   0.606782 0.526958 0.927067 0.166187
C25   C     C_3   0.684095 0.644509 0.928151 -0.478246
C26   C     C_3   0.684335 0.646027 0.085344 -0.486698
H17   H     H_    0.777418 0.632515 0.882475 0.193317
H18   H     H_    0.631721 0.717701 0.885023 0.214930
H19   H     H_    0.777691 0.633825 0.127928 0.192417
H20   H     H_    0.634682 0.723010 0.136226 0.191989
O9    O     O_3   0.497299 0.081987 0.237795 -0.617032
C27   C     C_3   0.387293 0.021338 0.177255 0.006722
H21   H     H_    0.376929 0.059891 0.075474 0.171048
H22   H     H_    0.303719 0.041322 0.241713 0.132213
C28   C     C_3   0.389373 0.880359 0.144433 -0.395160
H23   H     H_    0.478531 0.857917 0.094416 0.208854
H24   H     H_    0.376236 0.830918 0.240842 0.239276
C29   C     C_3   0.284039 0.830184 0.048160 -0.902537
H25   H     H_    0.192893 0.840404 0.101011 0.251305
H26   H     H_    0.294326 0.730355 0.021466 0.275853
H27   H     H_    0.286031 0.878927 0.950473 0.244891
O10   O     O_3   0.672277 0.953253 0.770024 -0.591769
C30   C     C_3   0.718788 0.957971 0.907591 0.060831
H28   H     H_    0.804715 0.906257 0.904263 0.167893
H29   H     H_    0.654551 0.911492 0.980895 0.122914
C31   C     C_3   0.752012 0.090312 0.966007 -0.351503
H30   H     H_    0.816632 0.137923 0.893528 0.215450
H31   H     H_    0.666873 0.142478 0.978950 0.226618
C32   C     C_3   0.811980 0.090495 0.108733 -0.890016
H32   H     H_    0.744464 0.052188 0.184729 0.281139
H33   H     H_    0.841652 0.186588 0.145239 0.251520
H34   H     H_    0.894325 0.033770 0.104324 0.248233
O11   O     O_3   0.291486 0.415202 0.139756 -0.567214
C33   C     C_3   0.279859 0.284585 0.124929 0.123053
H35   H     H_    0.307429 0.250138 0.224854 0.147309
H36   H     H_    0.341885 0.245839 0.042433 0.113281
C34   C     C_3   0.143894 0.237982 0.094999 -0.334726
H37   H     H_    0.097806 0.210371 0.192611 0.164147
H38   H     H_    0.090322 0.312482 0.056396 0.279824
C35   C     C_3   0.132507 0.126280 0.990116 -0.877960
H39   H     H_    0.202292 0.132074 0.905411 0.284769
H40   H     H_    0.039351 0.120013 0.941839 0.261238
H41   H     H_    0.143296 0.040680 0.043769 0.234994
N3    N     N_R   0.285755 0.418234 0.857448 0.138195
O12   O     O_R   0.182621 0.461731 0.904451 -0.437626
O13   O     O_R   0.282019 0.315846 0.779784 -0.415863

loop_
_geom_bond_atom_site_label_1
_geom_bond_atom_site_label_2
_geom_bond_distance
_ccdc_geom_bond_type
C5    C6    1.523680 S    
C29   H26   1.110931 S    
C28   H24   1.107447 S    
H6    C11   1.113350 S    
C18   C19   1.510765 S    
C13   C14   1.408736 A    
C8    H8    1.113182 S    
O11   C33   1.415696 S    
Cu1   Cu2   2.716269 S    
C32   H32   1.109880 S    
Cu1   O7    1.974018 S    
C31   H31   1.109278 S    
C27   C28   1.546163 S    
C7    C11   1.551917 S    
C27   H22   1.113719 S    
C10   C11   1.554870 S    
C16   C17   1.394135 A    
C8    H7    1.106081 S    
C12   H9    1.113523 S    
O7    C4    1.303391 A    
C25   H18   1.107222 S    
C2    C9    1.494586 S    
C5    H1    1.112519 S    
C19   O10   1.418356 S    
Cu1   O5    1.984447 S    
C6    H3    1.114671 S    
C22   O11   1.383928 S    
O5    C3    1.302480 A    
C3    C17   1.459083 S    
C7    H11   1.113210 S    
C31   C32   1.528105 S    
O10   C30   1.421432 S    
C13   C20   1.486562 S    
C34   H38   1.107750 S    
C29   H25   1.110430 S    
C28   C29   1.527649 S    
O9    C27   1.432969 S    
C19   H14   1.111461 S    
O3    Cu1   1.978398 S    
C25   H17   1.105552 S    
C16   H13   1.079294 S    
C31   H30   1.111012 S    
N2    C24   1.364784 A    
C6    C10   1.547411 S    
C8    C9    1.547127 S    
O3    C2    1.309866 A    
C30   H29   1.108102 S    
C34   H37   1.110276 S    
C11   H12   1.110941 S    
C27   H21   1.101718 S    
O1    C1    1.306647 A    
Cu2   N1    2.041572 S    
C15   C16   1.395934 A    
C30   C31   1.534283 S    
C21   N1    1.367118 A    
C35   H41   1.105712 S    
Cu2   O8    1.978397 S    
N3    O13   1.300561 A    
C23   N2    1.377940 A    
C32   H33   1.110158 S    
C20   H15   1.110302 S    
C15   O9    1.383556 S    
C21   C26   1.487996 S    
C23   N3    1.417897 S    
C17   C18   1.396153 A    
O8    C4    1.303639 A    
C33   H35   1.106558 S    
C33   H36   1.112997 S    
H5    C7    1.113040 S    
C19   C20   1.515402 S    
C24   C25   1.481968 S    
C34   C35   1.530667 S    
C26   H20   1.106371 S    
C32   H34   1.109735 S    
C5    H2    1.109464 S    
C14   C15   1.421409 A    
O1    Cu1   1.957810 S    
O2    Cu2   1.984444 S    
C35   H40   1.108018 S    
O6    C3    1.309888 A    
O4    Cu2   1.974017 S    
C25   C26   1.516719 S    
C21   C24   1.415371 A    
C33   C34   1.545420 S    
C10   C12   1.549182 S    
O2    C1    1.312955 A    
Cu1   N2    2.040022 S    
C30   H28   1.111100 S    
C12   H10   1.113339 S    
O4    C2    1.300687 A    
C1    C14   1.477287 S    
N1    C22   1.368178 A    
N3    O12   1.300212 A    
C6    H4    1.110527 S    
C7    C9    1.553498 S    
C13   C18   1.387562 A    
C20   H16   1.111291 S    
C8    C12   1.542899 S    
C5    C9    1.540086 S    
C28   H23   1.104352 S    
C29   H27   1.109964 S    
C35   H39   1.107311 S    
Cu2   O6    1.957810 S    
C22   C23   1.424651 A    
C4    C10   1.486330 S    
C26   H19   1.109471 S    
