data_mof_unit_40475.cif
_audit_creation_date              2012-12-10T19:44:41-0500
_audit_creation_method            fapswitch 2.2
_symmetry_space_group_name_H-M    P1
_symmetry_Int_Tables_number       1
_space_group_crystal_system       triclinic
_cell_length_a                    8.574365
_cell_length_b                    14.992326
_cell_length_c                    14.372535
_cell_angle_alpha                 90.086513
_cell_angle_beta                  98.635193
_cell_angle_gamma                 93.249565
_cell_volume                      1823.61008912

loop_
_atom_site_label
_atom_site_type_symbol
_atom_type_description
_atom_site_fract_x
_atom_site_fract_y
_atom_site_fract_z
_atom_type_partial_charge
C1    C     C_R   0.500484 0.328040 0.499983 0.846469
C2    C     C_R   0.427588 0.429410 0.888549 -0.260777
C3    C     C_R   0.515587 0.493132 0.054239 0.086699
C4    C     C_R   0.515626 0.493936 0.948234 0.071041
C5    C     C_R   0.201532 0.500399 0.475194 0.964632
C6    C     C_R   0.798585 0.502426 0.524593 0.963199
C7    C     C_2   0.035897 0.499334 0.461780 -0.399395
C8    C     C_2   0.964287 0.509451 0.536746 -0.396414
C9    C     C_R   0.456638 0.092101 0.575359 -0.177741
C10   C     C_R   0.436084 0.903687 0.419116 -0.180743
C11   C     C_R   0.455576 0.184115 0.575534 -0.197270
C12   C     C_R   0.500327 0.671851 0.500064 0.844448
C13   C     C_R   0.434001 0.811529 0.419363 -0.212255
C14   C     C_R   0.502480 0.232052 0.499981 -0.019336
C15   C     C_R   0.501241 0.767678 0.500116 -0.010257
C16   C     C_R   0.551851 0.187788 0.424608 -0.201113
C17   C     C_R   0.570093 0.815796 0.580721 -0.199467
C18   C     C_R   0.553506 0.095728 0.424648 -0.181910
C19   C     C_R   0.572708 0.907944 0.580388 -0.177672
C20   C     C_R   0.505564 0.047987 0.499933 0.116148
C21   C     C_R   0.505472 0.951801 0.499643 0.115182
C22   C     C_3   0.231155 0.411369 0.217652 -0.365752
C23   C     C_R   0.391607 0.450302 0.092765 -0.304161
C24   C     C_3   0.249759 0.322125 0.268241 -0.768603
C25   C     C_3   0.715890 0.625451 0.770185 -0.391784
C26   C     C_3   0.885895 0.606672 0.810774 -0.915864
C27   C     C_3   0.719939 0.623287 0.267881 -0.400764
C28   C     C_3   0.659198 0.716728 0.244968 -0.328695
C29   C     C_3   0.699845 0.754176 0.152140 -0.885086
C30   C     C_3   0.288017 0.372251 0.734231 -0.405505
C31   C     C_3   0.117386 0.392888 0.744494 -0.345815
C32   C     C_3   0.056571 0.348795 0.829006 -0.873711
C33   C     C_R   0.598198 0.560740 0.904343 -0.268828
C34   C     C_R   0.383562 0.453029 0.190303 0.273278
C35   C     C_R   0.599038 0.559730 0.805918 0.288419
C36   C     C_R   0.615499 0.549766 0.213915 0.251202
C37   C     C_R   0.409687 0.436783 0.789596 0.249466
C38   C     C_R   0.630476 0.540833 0.117596 -0.271416
H1    H     H_    0.973270 0.487500 0.390827 0.172994
H2    H     H_    0.627998 0.945024 0.642577 0.130855
H3    H     H_    0.295302 0.416959 0.046254 0.134689
H4    H     H_    0.666037 0.613616 0.946020 0.142931
H5    H     H_    0.730026 0.575081 0.092363 0.147889
H6    H     H_    0.370642 0.372490 0.918172 0.154924
H7    H     H_    0.366725 0.295459 0.264116 0.254203
H8    H     H_    0.231314 0.329378 0.342488 0.257810
H9    H     H_    0.157985 0.271749 0.235148 0.213823
H10   H     H_    0.169263 0.459663 0.254229 0.211051
H11   H     H_    0.142885 0.397372 0.153524 0.160261
H12   H     H_    0.027140 0.523976 0.606743 0.174389
H13   H     H_    0.905260 0.534953 0.801434 0.276027
H14   H     H_    0.969435 0.647270 0.773696 0.250428
H15   H     H_    0.911385 0.624035 0.886859 0.255776
H16   H     H_    0.708851 0.623315 0.693983 0.264584
H17   H     H_    0.691577 0.694422 0.789960 0.176557
H18   H     H_    0.826562 0.747055 0.147164 0.255456
H19   H     H_    0.624848 0.720069 0.091407 0.260160
H20   H     H_    0.676468 0.826276 0.148295 0.244760
H21   H     H_    0.529166 0.715257 0.243565 0.225645
H22   H     H_    0.713829 0.763633 0.302281 0.213892
H23   H     H_    0.417648 0.055288 0.633308 0.130609
H24   H     H_    0.725473 0.616301 0.343577 0.234403
H25   H     H_    0.843793 0.619941 0.254259 0.168011
H26   H     H_    0.086417 0.277702 0.834636 0.256838
H27   H     H_    0.105296 0.385304 0.895012 0.250509
H28   H     H_    0.925973 0.351393 0.820259 0.252946
H29   H     H_    0.108507 0.466151 0.749371 0.222114
H30   H     H_    0.037818 0.368297 0.680158 0.219392
H31   H     H_    0.294249 0.375262 0.659181 0.234683
H32   H     H_    0.312174 0.302559 0.755584 0.171478
H33   H     H_    0.381739 0.937364 0.356924 0.132217
H34   H     H_    0.416503 0.217454 0.633996 0.141186
H35   H     H_    0.377780 0.774611 0.357343 0.144223
H36   H     H_    0.590777 0.224199 0.366427 0.151400
H37   H     H_    0.623575 0.782382 0.643175 0.137191
H38   H     H_    0.593342 0.061810 0.366646 0.130655
N1    N     N_R   0.500000 0.499980 0.252470 -0.122166
N2    N     N_R   0.500000 0.500020 0.747530 -0.137968
O1    O     O_R   0.500010 0.369070 0.579480 -0.642795
O2    O     O_R   0.499990 0.630930 0.420520 -0.640649
O3    O     O_R   0.500010 0.369060 0.420520 -0.613555
O4    O     O_R   0.499990 0.630940 0.579480 -0.644006
O5    O     O_R   0.271750 0.500000 0.560890 -0.623996
O6    O     O_R   0.728250 0.500000 0.439110 -0.634502
O7    O     O_R   0.271750 0.499990 0.401930 -0.631505
O8    O     O_R   0.728250 0.500010 0.598070 -0.627889
Zn1   Zn    Zn3+2 0.500000 0.500010 0.606140 0.914602
Zn2   Zn    Zn3+2 0.500000 0.499990 0.393860 0.917619

loop_
_geom_bond_atom_site_label_1
_geom_bond_atom_site_label_2
_ccdc_geom_bond_type
N2    Zn1   S    
C22   H10   S    
C3    C23   A    
O1    Zn1   S    
C7    C8    D    
C31   H29   S    
C16   H36   S    
C24   H7    S    
C22   C24   S    
C28   C29   S    
C19   C21   A    
C36   N1    A    
C34   N1    A    
C30   C31   S    
C5    O5    A    
C11   C14   A    
O7    Zn2   S    
C1    O3    A    
O4    Zn1   S    
C17   C19   A    
C3    C38   A    
C2    H6    S    
C18   C20   A    
C5    O7    A    
C10   H33   S    
C30   H32   S    
C28   H22   S    
C10   C21   A    
C31   H30   S    
C22   C34   S    
C6    O6    A    
O6    Zn2   S    
C25   H16   S    
C32   H26   S    
C5    C7    S    
O8    Zn1   S    
C6    C8    S    
C25   C26   S    
C30   C37   S    
C2    C4    A    
C27   H24   S    
C26   H14   S    
C9    C20   A    
C31   C32   S    
C12   C15   S    
C23   C34   A    
C12   O4    A    
C29   H20   S    
C9    C11   A    
C27   H25   S    
C25   C35   S    
C22   H11   S    
C13   H35   S    
C13   C15   A    
C1    O1    A    
C9    H23   S    
C33   H4    S    
C3    C4    S    
N1    Zn2   S    
C26   H15   S    
C8    H12   S    
C30   H31   S    
C32   H28   S    
C28   H21   S    
C15   C17   A    
C4    C33   A    
C18   H38   S    
C11   H34   S    
C24   H9    S    
C25   H17   S    
C29   H19   S    
C10   C13   A    
C6    O8    A    
O5    Zn1   S    
C29   H18   S    
C27   C36   S    
C37   N2    A    
C35   N2    A    
C23   H3    S    
C24   H8    S    
C36   C38   A    
C38   H5    S    
O2    Zn2   S    
C26   H13   S    
C2    C37   A    
C12   O2    A    
C33   C35   A    
C14   C16   A    
O3    Zn2   S    
C19   H2    S    
C20   C21   S    
C16   C18   A    
C27   C28   S    
C17   H37   S    
C7    H1    S    
C1    C14   S    
C32   H27   S    
