data_mof_unit_49408.cif
_audit_creation_date              2012-12-10T17:39:22-0500
_audit_creation_method            fapswitch 2.2
_symmetry_space_group_name_H-M    P1
_symmetry_Int_Tables_number       1
_space_group_crystal_system       triclinic
_cell_length_a                    12.425141
_cell_length_b                    13.104249
_cell_length_c                    27.727787
_cell_angle_alpha                 75.54108
_cell_angle_beta                  101.629497
_cell_angle_gamma                 116.978809
_cell_volume                      3875.49625249

loop_
_atom_site_label
_atom_site_type_symbol
_atom_type_description
_atom_site_fract_x
_atom_site_fract_y
_atom_site_fract_z
_atom_type_partial_charge
C1    C     C_R   0.855779 0.286328 0.502344 0.833376
C2    C     C_R   0.044856 0.438428 0.732757 -0.120307
C3    C     C_R   0.005293 0.512487 0.745009 0.304785
C4    C     C_R   0.006906 0.512242 0.897383 -0.048635
C5    C     C_R   0.896486 0.462002 0.867856 -0.013738
C6    C     C_R   0.787088 0.414132 0.889061 -0.148612
C7    C     C_R   0.116878 0.561193 0.875734 -0.020230
C8    C     C_R   0.004285 0.506219 0.644723 -0.083274
C9    C     C_R   0.002296 0.505032 0.355117 -0.121941
C10   C     C_R   0.896673 0.480429 0.018813 0.060793
C11   C     C_R   0.119010 0.549371 0.030730 -0.022649
C12   C     C_R   0.001688 0.502093 0.592173 0.815715
C13   C     C_R   0.008067 0.515229 0.050143 0.070864
C14   C     C_R   0.789902 0.457430 0.038509 -0.208186
C15   C     C_R   0.791597 0.462596 0.088044 -0.159380
C16   C     C_R   0.899319 0.489292 0.120014 -0.006138
C17   C     C_R   0.008137 0.515259 0.101392 -0.106497
C18   C     C_R   0.116555 0.541176 0.134040 -0.134987
C19   C     C_R   0.111511 0.535061 0.185157 0.574451
C20   C     C_R   0.900619 0.491477 0.170370 0.590598
C21   C     C_R   0.932993 0.403868 0.284452 0.521359
C22   C     C_R   0.934025 0.403087 0.335322 -0.446649
C23   C     C_R   0.144982 0.714720 0.492121 0.837563
C24   C     C_R   0.074805 0.608838 0.325273 0.414840
C25   C     C_R   0.071230 0.609899 0.274070 -0.313751
C26   C     C_R   0.003011 0.508079 0.254047 0.239876
C27   C     C_R   0.895627 0.470869 0.968840 0.037830
C28   C     C_R   0.007329 0.513232 0.948512 0.068677
C29   C     C_R   0.119398 0.556612 0.978760 0.069104
C30   C     C_R   0.786377 0.418995 0.938481 -0.211450
C31   C     C_R   0.226712 0.609504 0.905119 -0.153114
C32   C     C_R   0.225981 0.573933 0.064151 -0.301499
C33   C     C_R   0.226060 0.571703 0.114774 0.472861
C34   C     C_R   0.000560 0.501375 0.407838 0.860244
C35   C     C_R   0.228230 0.606922 0.955680 -0.209950
C36   C     C_R   0.280329 0.036876 0.436051 -0.337599
C37   C     C_R   0.228130 0.839367 0.481352 -0.127142
C38   C     C_R   0.817666 0.075199 0.524325 0.437570
C39   C     C_R   0.734341 0.958305 0.533472 -0.253368
C40   C     C_R   0.611136 0.925926 0.519734 -0.270888
C41   C     C_R   0.567015 0.009291 0.494141 0.100194
C42   C     C_R   0.652235 0.126085 0.480357 0.020778
C43   C     C_R   0.441069 0.980218 0.480901 0.100984
C44   C     C_R   0.403726 0.064127 0.449636 0.101395
C45   C     C_R   0.898209 0.460235 0.817638 0.514090
C46   C     C_R   0.490077 0.173761 0.430982 -0.206830
C47   C     C_R   0.612427 0.203862 0.445476 -0.161315
C48   C     C_R   0.351033 0.870572 0.498263 -0.340724
C49   C     C_R   0.191199 0.923052 0.449777 0.466133
C50   C     C_R   0.775363 0.161410 0.500990 -0.226013
C51   C     C_R   0.367766 0.371403 0.592208 -0.281777
C52   C     C_R   0.753832 0.634816 0.427952 -0.007164
C53   C     C_R   0.648776 0.646920 0.405614 0.325664
C54   C     C_R   0.538623 0.577739 0.427649 0.050076
C55   C     C_R   0.544608 0.523889 0.479460 -0.131837
C56   C     C_R   0.114193 0.561670 0.824817 0.527722
C57   C     C_R   0.653683 0.507118 0.499715 0.134656
C58   C     C_R   0.447006 0.479540 0.511160 -0.012237
C59   C     C_R   0.461833 0.424006 0.561039 0.116240
C60   C     C_R   0.568616 0.416201 0.580110 -0.389155
C61   C     C_R   0.652319 0.433629 0.548500 0.495259
C62   C     C_R   0.338052 0.494276 0.498209 0.024911
C63   C     C_R   0.258165 0.375735 0.574300 0.087734
C64   C     C_R   0.966742 0.586847 0.706796 0.186450
C65   C     C_R   0.964511 0.580616 0.656629 -0.216953
C66   C     C_R   0.045711 0.436183 0.682971 -0.228725
Cu1   Cu    Cu3+1 0.098270 0.475420 0.511360 0.953617
Cu2   Cu    Cu3+1 0.901730 0.524580 0.488640 0.987875
H1    H     H_    0.076273 0.377987 0.674339 0.153743
H2    H     H_    0.312503 0.649366 0.889185 0.185864
H3    H     H_    0.311491 0.591935 0.052511 0.156436
H4    H     H_    0.120955 0.689352 0.249238 0.149549
H5    H     H_    0.316399 0.648403 0.975407 0.139150
H6    H     H_    0.463087 0.236423 0.404714 0.141249
H7    H     H_    0.254120 0.103794 0.413483 0.154833
H8    H     H_    0.075036 0.382310 0.762131 0.148373
H9    H     H_    0.374475 0.806535 0.524867 0.176159
H10   H     H_    0.553387 0.834105 0.528161 0.155632
H11   H     H_    0.764800 0.891948 0.552921 0.150937
H12   H     H_    0.675289 0.287641 0.427593 0.161445
H13   H     H_    0.184744 0.335523 0.597880 0.140662
H14   H     H_    0.577567 0.380984 0.619606 0.144161
H15   H     H_    0.378387 0.325615 0.629968 0.143505
H16   H     H_    0.326366 0.554858 0.466417 0.144184
H17   H     H_    0.834201 0.678687 0.408344 0.171839
H18   H     H_    0.701003 0.373312 0.867380 0.185313
H19   H     H_    0.883290 0.323089 0.359762 0.142289
H20   H     H_    0.707259 0.444223 0.101324 0.181472
H21   H     H_    0.703749 0.438374 0.016083 0.139314
H22   H     H_    0.698527 0.378052 0.952330 0.140899
H23   H     H_    0.933942 0.634533 0.626312 0.163101
N1    N     N_R   0.005832 0.512087 0.796893 -0.467919
N2    N     N_R   0.004917 0.511293 0.202026 -0.438268
N3    N     N_R   0.246290 0.438210 0.528570 -0.194234
N4    N     N_R   0.754320 0.561170 0.471730 -0.231025
O1    O     O_R   0.972510 0.318140 0.514280 -0.535208
O2    O     O_2   0.798528 0.474499 0.187593 -0.558420
O3    O     O_2   0.218873 0.611425 0.803313 -0.542733
O4    O     O_2   0.211591 0.551655 0.218011 -0.507926
O5    O     O_R   0.806530 0.359640 0.495100 -0.520382
O6    O     O_R   0.082990 0.479270 0.579320 -0.594790
O7    O     O_R   0.917010 0.520770 0.560140 -0.537936
O8    O     O_R   0.193470 0.640360 0.504900 -0.595515
O9    O     O_R   0.027490 0.681860 0.485720 -0.543945
O10   O     O_R   0.082990 0.479230 0.439860 -0.586874
O11   O     O_R   0.917010 0.520730 0.420680 -0.597574
O12   O     O_2   0.793301 0.407134 0.789711 -0.560770
C67   C     C_3   0.931315 0.671895 0.720928 -0.381129
C68   C     C_3   0.907140 0.759700 0.677433 -0.855302
H24   H     H_    0.987784 0.811682 0.656161 0.256024
H25   H     H_    0.826450 0.714376 0.652138 0.249661
H26   H     H_    0.888274 0.820397 0.692404 0.255141
H27   H     H_    0.848449 0.622233 0.740865 0.234193
H28   H     H_    0.005753 0.722224 0.747198 0.209746
O13   O     O_3   0.141252 0.707853 0.346907 -0.593897
C69   C     C_3   0.256559 0.775421 0.328905 0.052169
H29   H     H_    0.248336 0.832769 0.292678 0.154638
H30   H     H_    0.299358 0.720312 0.324222 0.150016
C70   C     C_3   0.340292 0.852929 0.366068 -0.814368
H31   H     H_    0.351590 0.798797 0.402834 0.245241
H32   H     H_    0.430487 0.908000 0.351984 0.199948
H33   H     H_    0.301575 0.910780 0.370697 0.252537
O14   O     O_3   0.333611 0.593958 0.145658 -0.529315
C71   C     C_3   0.402103 0.715738 0.140752 0.086245
H34   H     H_    0.347835 0.758710 0.147111 0.133983
H35   H     H_    0.434742 0.753768 0.102929 0.124119
C72   C     C_3   0.512005 0.741348 0.179712 -0.707754
H36   H     H_    0.569651 0.701695 0.173960 0.253949
H37   H     H_    0.566492 0.836923 0.176341 0.181478
H38   H     H_    0.482064 0.705017 0.217927 0.267674
O15   O     O_3   0.068266 0.893466 0.435380 -0.588355
C73   C     C_3   0.043983 0.931858 0.383509 0.097866
H39   H     H_    0.971696 0.856444 0.367632 0.179780
H40   H     H_    0.121939 0.964373 0.361060 0.134193
C74   C     C_3   0.996632 0.024228 0.375970 -0.833672
H41   H     H_    0.066665 0.103228 0.390066 0.238278
H42   H     H_    0.970873 0.048893 0.335522 0.228055
H43   H     H_    0.915706 0.989614 0.396466 0.237845
O16   O     O_3   0.939248 0.106322 0.541427 -0.571016
C75   C     C_3   0.988703 0.059456 0.515688 0.085689
H44   H     H_    0.957069 0.068116 0.474880 0.137646
H45   H     H_    0.964184 0.966091 0.532108 0.150549
C76   C     C_3   0.126326 0.124650 0.521009 -0.747307
H46   H     H_    0.161750 0.121863 0.561197 0.242650
H47   H     H_    0.166170 0.083771 0.503636 0.216241
H48   H     H_    0.153897 0.216599 0.501780 0.247028
C77   C     C_3   0.421681 0.550637 0.391777 -0.357910
C78   C     C_3   0.343450 0.420139 0.393501 -0.797548
H49   H     H_    0.393660 0.381875 0.380693 0.242307
H50   H     H_    0.317526 0.372841 0.431425 0.248315
H51   H     H_    0.258941 0.406927 0.367847 0.251020
H52   H     H_    0.369345 0.596830 0.395398 0.169128
H53   H     H_    0.443361 0.585169 0.352350 0.249376
O17   O     O_3   0.653047 0.717479 0.359045 -0.583927
C79   C     C_3   0.638476 0.815191 0.363807 0.052623
H54   H     H_    0.709889 0.863774 0.391489 0.138998
H55   H     H_    0.548045 0.789185 0.375779 0.140316
C80   C     C_3   0.648162 0.896222 0.313451 -0.797550
H56   H     H_    0.576855 0.850194 0.285204 0.247400
H57   H     H_    0.635250 0.972217 0.317054 0.195981
H58   H     H_    0.738964 0.927082 0.300839 0.257960
O18   O     O_3   0.717784 0.365931 0.561169 -0.524203
C81   C     C_3   0.702204 0.290413 0.608663 0.046171
H59   H     H_    0.604805 0.229773 0.611993 0.151432
H60   H     H_    0.740209 0.342559 0.639135 0.158765
C82   C     C_3   0.768776 0.214012 0.615753 -0.755422
H61   H     H_    0.863777 0.266462 0.606692 0.240619
H62   H     H_    0.769968 0.168782 0.655343 0.205184
H63   H     H_    0.720447 0.146757 0.591883 0.239479
O19   O     O_3   0.872524 0.303219 0.264013 -0.570528
C83   C     C_3   0.750483 0.243180 0.275153 0.096580
H64   H     H_    0.709924 0.303312 0.275814 0.168016
H65   H     H_    0.744811 0.183832 0.311970 0.127556
C84   C     C_3   0.675357 0.170690 0.235040 -0.765904
H66   H     H_    0.713117 0.109921 0.232826 0.247507
H67   H     H_    0.579986 0.119598 0.244188 0.191725
H68   H     H_    0.676557 0.228443 0.198047 0.267897

loop_
_geom_bond_atom_site_label_1
_geom_bond_atom_site_label_2
_ccdc_geom_bond_type
C10   C27   A    
C58   C62   A    
C74   H43   S    
C80   H57   S    
C20   N2    A    
C8    C66   A    
C79   H55   S    
C41   C42   A    
C77   C78   S    
C75   C76   S    
C56   O3    S    
C83   H64   S    
Cu2   O5    S    
Cu1   O8    S    
O14   C71   S    
C53   C54   A    
C69   H29   S    
C49   O15   S    
C63   N3    A    
C63   H13   S    
C7    C56   A    
C28   C29   A    
C81   H60   S    
C78   H50   S    
C77   H52   S    
C68   H25   S    
C5    C6    A    
C9    C22   A    
C66   H1    S    
O19   C83   S    
C15   C16   A    
C67   C68   S    
C52   N4    A    
C76   H47   S    
C18   C19   A    
C67   H28   S    
C45   N1    A    
C84   H66   S    
C80   H58   S    
C54   C55   A    
C60   H14   S    
C31   H2    S    
C23   O8    A    
C20   O2    S    
C81   H59   S    
C73   H39   S    
Cu1   N3    S    
C38   O16   S    
C78   H51   S    
C35   H5    S    
C43   C48   A    
C19   N2    A    
C30   H22   S    
C42   C47   A    
C26   N2    S    
C59   C60   A    
C65   H23   S    
C21   C22   A    
C79   C80   S    
C82   H62   S    
C41   C43   A    
C82   H61   S    
Cu2   O11   S    
C47   H12   S    
C60   C61   A    
C4    C7    A    
C1    O5    A    
C4    C28   A    
C21   C26   A    
C44   C46   A    
C64   C67   S    
C32   H3    S    
C70   H32   S    
C38   C39   A    
C83   C84   S    
C79   H54   S    
Cu2   N4    S    
C7    C31   A    
Cu1   Cu2   S    
C34   O11   A    
C74   H41   S    
C81   C82   S    
C51   C63   A    
C24   C25   A    
C21   O19   S    
C10   C14   A    
C68   H26   S    
C39   C40   A    
C19   O4    S    
C16   C17   A    
C58   C59   A    
C23   C37   S    
C5    C45   A    
C61   O18   S    
C3    N1    S    
C39   H11   S    
C48   H9    S    
C43   C44   A    
C72   H37   S    
C14   H21   S    
C12   O7    A    
C36   H7    S    
C54   C77   S    
C37   C49   A    
C23   O9    A    
C56   N1    A    
C8    C12   S    
C17   C18   A    
C25   H4    S    
C16   C20   A    
C22   H19   S    
C75   H44   S    
C37   C48   A    
C84   H68   S    
O17   C79   S    
C42   C50   A    
C71   C72   S    
C40   C41   A    
C6    C30   A    
C11   C32   A    
C62   N3    A    
C80   H56   S    
C31   C35   A    
C36   C44   A    
C51   C59   A    
C76   H48   S    
C72   H36   S    
C51   H15   S    
C46   H6    S    
C2    H8    S    
C52   C53   A    
Cu1   O6    S    
C71   H35   S    
O18   C81   S    
C1    C50   S    
C70   H33   S    
C74   H42   S    
C62   H16   S    
C46   C47   A    
C52   H17   S    
C34   O10   A    
Cu1   O10   S    
Cu2   O9    S    
Cu2   O7    S    
C4    C5    A    
C2    C66   A    
C10   C13   A    
O16   C75   S    
C9    C24   A    
C57   C61   A    
C24   O13   S    
C38   C50   A    
C83   H65   S    
C67   H27   S    
C29   C35   A    
C6    H18   S    
C69   C70   S    
C13   C17   A    
C64   C65   A    
C55   C57   A    
C76   H46   S    
C25   C26   A    
C72   H38   S    
C12   O6    A    
C68   H24   S    
C32   C33   A    
C11   C13   A    
Cu1   O1    S    
C73   C74   S    
C69   H30   S    
C9    C34   S    
C2    C3    A    
C40   H10   S    
C78   H49   S    
C3    C64   A    
O15   C73   S    
C77   H53   S    
C18   C33   A    
C84   H67   S    
C45   O12   S    
C8    C65   A    
C11   C29   A    
C82   H63   S    
C73   H40   S    
C70   H31   S    
C57   N4    A    
C55   C58   A    
C27   C28   A    
C33   O14   S    
C14   C15   A    
C15   H20   S    
C1    O1    A    
C75   H45   S    
C53   O17   S    
C36   C49   A    
O13   C69   S    
C71   H34   S    
C27   C30   A    
