data_mof_unit_46307.cif
_audit_creation_date              2012-12-11T16:53:37-0500
_audit_creation_method            fapswitch 2.2
_symmetry_space_group_name_H-M    P1
_symmetry_Int_Tables_number       1
_space_group_crystal_system       triclinic
_cell_length_a                    14.897852
_cell_length_b                    14.744768
_cell_length_c                    17.041156
_cell_angle_alpha                 108.398898
_cell_angle_beta                  105.563339
_cell_angle_gamma                 107.922815
_cell_volume                      3090.40446372

loop_
_atom_site_label
_atom_site_type_symbol
_atom_type_description
_atom_site_fract_x
_atom_site_fract_y
_atom_site_fract_z
_atom_type_partial_charge
C1    C     C_R   0.089058 0.273476 0.047203 -0.133997
C2    C     C_R   0.026326 0.583092 0.745891 0.093260
C3    C     C_R   0.713298 0.198279 0.731747 -0.133651
C4    C     C_R   0.288183 0.460078 0.962006 0.108739
C5    C     C_R   0.267750 0.691369 0.253126 0.791758
C6    C     C_R   0.705502 0.500540 0.918245 -0.047376
C7    C     C_R   0.888349 0.460920 0.187162 -0.109118
C8    C     C_R   0.077422 0.807890 0.044279 -0.121525
C9    C     C_R   0.906601 0.724000 0.968651 -0.103831
C10   C     C_R   0.060540 0.544211 0.263670 -0.102403
C11   C     C_R   0.271711 0.789143 0.177046 -0.259939
C12   C     C_R   0.936460 0.521590 0.748546 -0.093266
C13   C     C_R   0.698877 0.407369 0.997698 -0.111878
C14   C     C_R   0.320874 0.787268 0.256214 -0.050072
C15   C     C_R   0.640477 0.439326 0.943931 0.131411
C16   C     C_R   0.967366 0.528006 0.272734 0.036641
C17   C     C_R   0.987885 0.823797 0.025804 0.087752
C18   C     C_R   0.399066 0.470178 0.876884 0.000698
C19   C     C_R   0.350436 0.420152 0.921288 0.048751
C20   C     C_R   0.376145 0.342008 0.937500 -0.377588
C21   C     C_R   0.464925 0.333971 0.930730 0.758818
C22   C     C_R   0.529811 0.407921 0.911175 -0.157191
C23   C     C_R   0.746214 0.203185 0.816639 -0.239818
C24   C     C_R   0.488476 0.464930 0.872713 -0.141248
C25   C     C_3   0.534045 0.577595 0.886168 1.341501
C26   C     C_3   0.435980 0.582816 0.889937 -0.644614
C27   C     C_R   0.955664 0.568166 0.358285 0.115195
C28   C     C_R   0.031372 0.622524 0.676588 -0.084550
C29   C     C_R   0.128767 0.696523 0.600444 -0.340975
C30   C     C_R   0.125998 0.683544 0.677410 0.759035
C31   C     C_R   0.939483 0.587808 0.601873 -0.339457
C32   C     C_R   0.942574 0.595789 0.523530 0.187244
C33   C     C_R   0.038418 0.646489 0.521609 0.070975
C34   C     C_R   0.253867 0.531037 0.944977 -0.134507
C35   C     C_R   0.043685 0.636239 0.439148 -0.183561
C36   C     C_R   0.858857 0.528106 0.361682 -0.160812
C37   C     C_R   0.852236 0.543361 0.444311 -0.168620
C38   C     C_R   0.636067 0.108780 0.653254 0.164839
C39   C     C_R   0.403426 0.872981 0.334465 -0.046082
C40   C     C_R   0.578897 0.002700 0.411548 -0.179183
C41   C     C_R   0.495755 0.928783 0.331274 -0.228630
C42   C     C_R   0.390231 0.892146 0.414923 0.708849
C43   C     C_R   0.473067 0.961750 0.494832 -0.038857
C44   C     C_R   0.568118 0.018134 0.493204 0.079598
C45   C     C_R   0.755225 0.298495 0.737418 0.716593
C46   C     C_R   0.649742 0.091180 0.573331 -0.133550
C47   C     C_R   0.544732 0.049864 0.656172 -0.189703
C48   C     C_R   0.462416 0.975928 0.576311 -0.104416
C49   C     C_R   0.101548 0.058033 0.980997 0.101174
C50   C     C_R   0.008336 0.068119 0.963934 0.032927
C51   C     C_R   0.916798 0.974120 0.905156 -0.172277
C52   C     C_R   0.921082 0.880305 0.854687 -0.193427
C53   C     C_R   0.016252 0.877914 0.862340 0.065249
C54   C     C_R   0.104962 0.965033 0.930718 0.066113
C55   C     C_3   0.205984 0.021828 0.929228 -0.172978
C56   C     C_R   0.257489 0.440657 0.027682 -0.127358
C57   C     C_3   0.202209 0.124427 0.983637 -0.283688
C58   C     C_R   0.106953 0.605729 0.823764 -0.114302
C59   C     C_R   0.918484 0.191422 0.968732 -0.103120
C60   C     C_R   0.005667 0.173449 0.994602 0.055255
H1    H     H_    0.166208 0.288982 0.087206 0.125854
H2    H     H_    0.683597 0.523183 0.864233 0.150904
H3    H     H_    0.806374 0.432415 0.168989 0.101064
H4    H     H_    0.154902 0.869075 0.085469 0.105541
H5    H     H_    0.825885 0.706887 0.940337 0.158349
H6    H     H_    0.137169 0.590742 0.316182 0.180511
H7    H     H_    0.298853 0.848541 0.154014 0.144403
H8    H     H_    0.671660 0.347871 0.020385 0.175430
H9    H     H_    0.336303 0.296697 0.966099 0.150861
H10   H     H_    0.858564 0.503416 0.707765 0.170000
H11   H     H_    0.448211 0.639263 0.957385 0.202713
H12   H     H_    0.389886 0.590780 0.831394 0.220736
H13   H     H_    0.118263 0.672754 0.438319 0.161869
H14   H     H_    0.788892 0.478681 0.300860 0.126045
H15   H     H_    0.202685 0.738125 0.600317 0.184150
H16   H     H_    0.777712 0.505853 0.445188 0.138984
H17   H     H_    0.865128 0.544571 0.599772 0.164221
H18   H     H_    0.722415 0.137737 0.573697 0.133837
H19   H     H_    0.718114 0.141167 0.836579 0.146760
H20   H     H_    0.535422 0.065291 0.719333 0.149151
H21   H     H_    0.651354 0.046137 0.410093 0.148606
H22   H     H_    0.390460 0.932285 0.578385 0.184901
H23   H     H_    0.503976 0.912710 0.267641 0.163792
H24   H     H_    0.841729 0.974140 0.892043 0.140716
H25   H     H_    0.850547 0.811626 0.805324 0.155107
H26   H     H_    0.268441 0.005070 0.965467 0.164973
H27   H     H_    0.260333 0.561437 0.896110 0.128645
H28   H     H_    0.193239 0.174661 0.948184 0.155129
H29   H     H_    0.276724 0.393227 0.060000 0.106235
H30   H     H_    0.185549 0.663983 0.851322 0.181077
H31   H     H_    0.839674 0.132799 0.934408 0.095476
N1    N     N_R   0.055640 0.348550 0.045600 -0.042858
N2    N     N_R   0.798340 0.505430 0.954400 -0.060931
N3    N     N_R   0.931580 0.439470 0.128350 -0.045938
N4    N     N_R   0.051950 0.704140 0.002340 -0.042224
N5    N     N_R   0.944360 0.651450 0.954400 -0.053335
N6    N     N_R   0.039170 0.492150 0.176290 -0.046341
N7    N     N_R   0.188710 0.696600 0.128350 -0.073932
N8    N     N_R   0.794820 0.447010 0.002340 -0.058851
N9    N     N_R   0.960830 0.507850 0.823710 -0.055512
N10   N     N_R   0.811290 0.303400 0.871650 -0.071840
N11   N     N_R   0.205180 0.552990 0.997660 -0.049425
N12   N     N_R   0.814810 0.361830 0.823710 -0.110407
N13   N     N_R   0.201660 0.494570 0.045600 -0.046327
N14   N     N_R   0.068420 0.560530 0.871650 -0.061897
N15   N     N_R   0.948050 0.295860 0.997660 -0.042380
N16   N     N_R   0.185190 0.638170 0.176290 -0.119913
Ni1   Ni    Ni4+2 0.119330 0.493420 0.109950 0.269404
Ni2   Ni    Ni4+2 0.880670 0.506580 0.890050 0.244667
Ni3   Ni    Ni4+2 0.872590 0.372590 0.000000 0.219773
Ni4   Ni    Ni4+2 0.127410 0.627410 0.000000 0.208803
F1    F     F_    0.492349 0.263812 0.954509 -0.737826
F2    F     F_    0.618842 0.645601 0.967276 -0.729181
F3    F     F_    0.548883 0.586689 0.811705 -0.711634
F4    F     F_    0.216855 0.725873 0.749459 -0.722811
F5    F     F_    0.296726 0.841429 0.414991 -0.723891
N17   N     N_3   0.198062 0.007477 0.838143 -0.180419
H32   H     H_    0.139486 0.025647 0.807296 0.126310
H33   H     H_    0.267392 0.061940 0.844838 0.166470
N18   N     N_3   0.282972 0.183692 0.075625 -0.210989
H34   H     H_    0.353796 0.212871 0.070921 0.158307
H35   H     H_    0.285908 0.133082 0.106693 0.130237
F6    F     F_    0.727125 0.330364 0.672121 -0.727685
F7    F     F_    0.303414 0.649113 0.307710 -0.708272

loop_
_geom_bond_atom_site_label_1
_geom_bond_atom_site_label_2
_ccdc_geom_bond_type
C59   C60   A    
C26   H12   S    
C3    C23   A    
N4    N5    A    
C18   C26   S    
C2    C12   A    
C10   C16   A    
C39   C41   A    
C53   C54   A    
C45   F6    S    
C5    F7    S    
N9    N14   A    
C34   N11   A    
C11   N7    A    
C18   C24   A    
C52   H25   S    
N17   H33   S    
N15   Ni3   S    
C11   C14   A    
C49   C54   A    
C41   H23   S    
C29   C33   A    
C49   C57   S    
C18   C19   A    
C45   N12   A    
C14   C39   S    
N6    Ni1   S    
N1    Ni1   S    
C15   C22   S    
C35   H13   S    
C19   C20   A    
C3    C38   S    
C11   H7    S    
N16   Ni1   S    
C43   C48   A    
N2    N8    A    
C16   C27   S    
C6    C15   A    
N9    Ni2   S    
N10   N12   A    
C21   C22   A    
C4    C56   A    
C26   H11   S    
C4    C19   S    
N11   Ni4   S    
C8    N4    A    
C47   H20   S    
C44   C46   A    
C31   H17   S    
C39   C42   A    
C30   F4    S    
C10   H6    S    
C4    C34   A    
C59   N15   A    
C12   N9    A    
C51   C52   A    
C24   C25   S    
C56   N13   A    
C1    C60   A    
C46   H18   S    
N3    N6    A    
C27   C35   A    
N10   Ni3   S    
N8    Ni3   S    
N3    Ni3   S    
N7    N16   A    
C13   N8    A    
C10   N6    A    
C43   C44   A    
C28   C31   A    
C29   C30   A    
C25   F2    S    
C47   C48   A    
C48   H22   S    
C6    N2    A    
C50   C51   A    
C5    C14   A    
C59   H31   S    
C32   C37   A    
N11   N13   A    
C58   H30   S    
C9    N5    A    
C7    H3    S    
C38   C47   A    
C36   H14   S    
C8    H4    S    
C57   N18   S    
C55   N17   S    
N1    N15   A    
C56   H29   S    
C37   H16   S    
C1    N1    A    
C55   C57   S    
C22   C24   A    
C20   H9    S    
C42   C43   A    
N13   Ni1   S    
C21   F1    S    
N18   H34   S    
N18   H35   S    
C5    N16   A    
C9    C17   A    
C7    N3    A    
C12   H10   S    
C54   C55   S    
C40   C41   A    
N7    Ni4   S    
C40   H21   S    
C31   C32   A    
C7    C16   A    
C1    H1    S    
C2    C58   A    
C29   H15   S    
C27   C36   A    
N5    Ni2   S    
C8    C17   A    
C57   H28   S    
N12   Ni2   S    
C58   N14   A    
C50   C60   S    
C32   C33   A    
C6    H2    S    
C55   H26   S    
C13   C15   A    
C25   C26   S    
N4    Ni4   S    
C25   F3    S    
C23   N10   A    
C42   F5    S    
C28   C30   A    
C33   C35   A    
C3    C45   A    
C34   H27   S    
N14   Ni4   S    
C9    H5    S    
C38   C46   A    
C40   C44   A    
C20   C21   A    
C36   C37   A    
C49   C50   A    
N2    Ni2   S    
C2    C28   S    
C23   H19   S    
N17   H32   S    
C51   H24   S    
C52   C53   A    
C13   H8    S    
