data_mof_unit_61034.cif
_audit_creation_date              2012-10-26T18:10:54-0400
_audit_creation_method            fapswitch 2.2
_symmetry_space_group_name_H-M    P1
_symmetry_Int_Tables_number       1
_space_group_crystal_system       triclinic
_cell_length_a                    21.744173
_cell_length_b                    21.740824
_cell_length_c                    23.682714
_cell_angle_alpha                 89.92917
_cell_angle_beta                  89.909784
_cell_angle_gamma                 89.986386
_cell_volume                      11195.654383

loop_
_atom_site_label
_atom_site_type_symbol
_atom_type_description
_atom_site_fract_x
_atom_site_fract_y
_atom_site_fract_z
_atom_type_partial_charge
C1    C     C_R   0.118767 0.499993 0.000012 0.548354
C2    C     C_R   0.499959 0.000008 0.108088 0.549937
C3    C     C_3   0.679491 0.318628 0.862287 -0.451345
C4    C     C_3   0.312306 0.599846 0.060540 -0.257529
C5    C     C_3   0.290745 0.663127 0.039268 -0.317366
C6    C     C_3   0.327721 0.715067 0.066177 -0.448450
C7    C     C_3   0.415300 0.315812 0.075830 -0.238582
C8    C     C_3   0.364384 0.277488 0.104140 -0.324643
C9    C     C_3   0.320798 0.318350 0.138085 -0.451322
C10   C     C_3   0.687464 0.400027 0.060478 -0.257446
C11   C     C_3   0.709167 0.336768 0.039361 -0.317469
C12   C     C_3   0.672108 0.284794 0.066343 -0.448456
C13   C     C_R   0.999990 0.500032 0.891909 0.550900
C14   C     C_3   0.584778 0.683993 0.075463 -0.238588
C15   C     C_3   0.635759 0.722224 0.103543 -0.324767
C16   C     C_3   0.679368 0.681258 0.137325 -0.450966
C17   C     C_3   0.812103 0.903353 0.433556 -0.256312
C18   C     C_3   0.788336 0.838842 0.448991 -0.318512
C19   C     C_3   0.827403 0.788598 0.421710 -0.449843
C20   C     C_3   0.901445 0.187664 0.437660 -0.256953
C21   C     C_3   0.837628 0.210440 0.456398 -0.318465
C22   C     C_3   0.786359 0.172482 0.429559 -0.448996
C23   C     C_3   0.184053 0.086114 0.425627 -0.238871
C24   C     C_R   0.500041 0.999992 0.891911 0.549876
C25   C     C_3   0.222371 0.137338 0.397793 -0.324525
C26   C     C_3   0.181507 0.181308 0.364290 -0.451152
C27   C     C_3   0.099253 0.812076 0.436869 -0.257221
C28   C     C_3   0.162987 0.790100 0.456430 -0.317200
C29   C     C_3   0.214310 0.827843 0.429202 -0.448778
C30   C     C_3   0.816336 0.087055 0.571914 -0.239448
C31   C     C_3   0.778050 0.138571 0.599243 -0.324995
C32   C     C_3   0.818949 0.182769 0.632344 -0.451074
C33   C     C_3   0.909018 0.816971 0.567691 -0.240449
C34   C     C_3   0.856417 0.778869 0.593493 -0.324403
C35   C     C_R   0.500011 0.999968 0.608091 0.550579
C36   C     C_3   0.810813 0.820044 0.624815 -0.450900
C37   C     C_3   0.183756 0.913061 0.573464 -0.239020
C38   C     C_3   0.221953 0.861484 0.600795 -0.324413
C39   C     C_3   0.180914 0.817032 0.633674 -0.451554
C40   C     C_3   0.099103 0.187489 0.561442 -0.257249
C41   C     C_3   0.162635 0.209634 0.541292 -0.317749
C42   C     C_3   0.214270 0.172201 0.568270 -0.448764
C43   C     C_R   0.999959 0.500014 0.608088 0.551044
C44   C     C_R   0.499981 0.000032 0.391908 0.549975
C45   C     C_R   0.000040 0.499991 0.391911 0.550469
C46   C     C_1   0.000056 0.499907 0.168974 -0.022147
C47   C     C_1   0.499878 0.000047 0.168971 -0.023654
C48   C     C_1   0.999941 0.500095 0.831026 -0.022328
C49   C     C_R   0.500007 0.881295 0.999991 0.546979
C50   C     C_1   0.500118 0.999955 0.831029 -0.023851
C51   C     C_1   0.500057 0.999907 0.668974 -0.023645
C52   C     C_1   0.999880 0.500054 0.668971 -0.022641
C53   C     C_1   0.499930 0.000095 0.331026 -0.023280
C54   C     C_1   0.000118 0.499955 0.331029 -0.022324
C55   C     C_1   0.000097 0.499900 0.220052 -0.042722
C56   C     C_1   0.499863 0.000080 0.220049 -0.043946
C57   C     C_1   0.999900 0.500107 0.779947 -0.042967
C58   C     C_1   0.500128 0.999922 0.779950 -0.044217
C59   C     C_1   0.500098 0.999899 0.720052 -0.044143
C60   C     C_R   0.881233 0.500005 0.999992 0.548327
C61   C     C_1   0.999869 0.500086 0.720049 -0.043111
C62   C     C_1   0.499889 0.000104 0.279947 -0.043778
C63   C     C_1   0.000128 0.499923 0.279950 -0.042787
C64   C     C_R   0.217193 0.455000 0.970109 -0.124890
C65   C     C_R   0.459392 0.783282 0.965074 -0.123980
C66   C     C_R   0.782927 0.544950 0.969856 -0.124913
C67   C     C_R   0.540729 0.216816 0.965125 -0.123906
C68   C     C_R   0.217055 0.544919 0.030057 -0.124889
C69   C     C_R   0.459316 0.216740 0.034982 -0.123974
C70   C     C_R   0.782829 0.455020 0.029994 -0.124860
C71   C     C_R   0.499995 0.118705 0.000008 0.546972
C72   C     C_R   0.540711 0.783163 0.034789 -0.123896
C73   C     C_R   0.716863 0.956851 0.466832 -0.124126
C74   C     C_R   0.955725 0.282995 0.469149 -0.124690
C75   C     C_R   0.283185 0.041451 0.465807 -0.123954
C76   C     C_R   0.044562 0.716933 0.468516 -0.124273
C77   C     C_R   0.717065 0.042024 0.532497 -0.124849
C78   C     C_R   0.956068 0.717314 0.530629 -0.124560
C79   C     C_R   0.283059 0.958305 0.533935 -0.123720
C80   C     C_R   0.044440 0.282862 0.530543 -0.124879
C81   C     C_R   0.281310 0.452828 0.970919 -0.025402
C82   C     C_R   0.618742 0.000008 0.499449 0.547677
C83   C     C_R   0.459032 0.718980 0.963605 -0.033427
C84   C     C_R   0.718800 0.547079 0.970579 -0.025510
C85   C     C_R   0.541147 0.281120 0.963714 -0.033294
C86   C     C_R   0.281179 0.547060 0.029312 -0.025482
C87   C     C_R   0.458962 0.281044 0.036453 -0.033395
C88   C     C_R   0.718713 0.452845 0.029185 -0.025387
C89   C     C_R   0.541120 0.718858 0.036200 -0.033254
C90   C     C_R   0.780921 0.953843 0.467928 -0.025638
C91   C     C_R   0.953499 0.218861 0.469893 -0.026019
C92   C     C_R   0.218884 0.041745 0.464259 -0.033586
C93   C     C_R   0.000008 0.381246 0.499983 0.548322
C94   C     C_R   0.047321 0.780993 0.469481 -0.025069
C95   C     C_R   0.781384 0.041600 0.534523 -0.034060
C96   C     C_R   0.956344 0.781668 0.532467 -0.033970
C97   C     C_R   0.218751 0.957818 0.535252 -0.032939
C98   C     C_R   0.046682 0.218743 0.529700 -0.025355
C99   C     C_R   0.313782 0.499948 0.000116 0.032570
C100  C     C_R   0.500065 0.686658 0.999911 0.008721
C101  C     C_R   0.686219 0.499965 0.999884 0.032531
C102  C     C_R   0.500054 0.313342 0.000083 0.008724
C103  C     C_R   0.813550 0.997657 0.500969 0.020313
C104  C     C_R   0.381269 0.999999 0.500016 0.546923
C105  C     C_R   0.000036 0.186253 0.499871 0.031673
C106  C     C_R   0.186598 0.999846 0.499815 0.009797
C107  C     C_R   0.001992 0.813664 0.500774 0.022752
C108  C     C_R   0.500015 0.619328 0.999970 0.530039
C109  C     C_R   0.619216 0.500005 0.999961 0.532859
C110  C     C_R   0.500015 0.380672 0.000029 0.529968
C111  C     C_R   0.380784 0.499997 0.000038 0.532932
C112  C     C_R   0.999994 0.119227 0.499963 0.532594
C113  C     C_R   0.119306 0.999971 0.499949 0.529961
C114  C     C_R   0.001349 0.880780 0.500139 0.531328
C115  C     C_R   0.999967 0.618776 0.499539 0.547650
C116  C     C_R   0.880739 0.998588 0.500177 0.530766
C117  C     C_R   0.185450 0.499974 0.000057 -0.005654
C118  C     C_R   0.500030 0.814694 0.999957 -0.005944
C119  C     C_R   0.814551 0.500004 0.999958 -0.005608
C120  C     C_R   0.499999 0.185306 0.000030 -0.005898
C121  C     C_R   0.685400 0.999948 0.499223 -0.005947
C122  C     C_R   0.000035 0.314581 0.499919 -0.005530
C123  C     C_R   0.314627 0.999964 0.499964 -0.006303
C124  C     C_R   0.999938 0.685499 0.499254 -0.006432
C125  C     C_3   0.312586 0.400027 0.939723 -0.257420
C126  C     C_R   0.000009 0.499968 0.108091 0.550949
C127  C     C_3   0.290899 0.336753 0.960939 -0.317442
C128  C     C_3   0.327943 0.284796 0.934001 -0.448464
C129  C     C_3   0.415435 0.684242 0.924284 -0.238585
C130  C     C_3   0.364555 0.722591 0.896067 -0.324667
C131  C     C_3   0.321049 0.681759 0.862153 -0.451334
C132  C     C_3   0.687638 0.599836 0.939196 -0.257570
C133  C     C_3   0.709197 0.663140 0.960236 -0.317351
C134  C     C_3   0.672131 0.715050 0.933237 -0.448621
C135  C     C_3   0.584856 0.315963 0.924371 -0.238550
C136  C     C_3   0.635851 0.277697 0.896174 -0.324681
Cu1   Cu    Cu3+1 1.000000 0.561790 0.000000 0.923371
Cu2   Cu    Cu3+1 0.500000 0.500000 0.055780 0.871696
Cu3   Cu    Cu3+1 1.000000 0.000000 0.444220 0.875560
Cu4   Cu    Cu3+1 1.000000 0.000000 0.555780 0.868200
Cu5   Cu    Cu3+1 0.561790 0.000000 0.000000 0.921114
Cu6   Cu    Cu3+1 1.000000 0.438210 0.000000 0.923484
Cu7   Cu    Cu3+1 0.438210 0.000000 0.000000 0.920966
Cu8   Cu    Cu3+1 0.500000 0.061790 0.500000 0.920708
Cu9   Cu    Cu3+1 0.061790 0.500000 0.500000 0.923539
Cu10  Cu    Cu3+1 0.500000 0.938210 0.500000 0.922128
Cu11  Cu    Cu3+1 0.938210 0.500000 0.500000 0.922010
Cu12  Cu    Cu3+1 0.500000 0.500000 0.944220 0.871487
H1    H     H_    0.191546 0.421369 0.946015 0.124952
H2    H     H_    0.922666 0.308816 0.444497 0.124659
H3    H     H_    0.098287 0.862678 0.441372 0.178502
H4    H     H_    0.842870 0.157896 0.666931 0.155221
H5    H     H_    0.853781 0.204235 0.604203 0.155937
H6    H     H_    0.790259 0.219729 0.651143 0.145819
H7    H     H_    0.753204 0.164931 0.566126 0.162818
H8    H     H_    0.744107 0.118389 0.629116 0.161170
H9    H     H_    0.838686 0.060762 0.606511 0.173313
H10   H     H_    0.852937 0.109057 0.546073 0.159235
H11   H     H_    0.834109 0.844028 0.660217 0.154879
H12   H     H_    0.790782 0.854862 0.595830 0.156658
H13   H     H_    0.309858 0.072368 0.439728 0.123416
H14   H     H_    0.772937 0.791537 0.642320 0.146529
H15   H     H_    0.831544 0.753748 0.559657 0.162583
H16   H     H_    0.875318 0.745159 0.624233 0.161475
H17   H     H_    0.933527 0.839939 0.602972 0.173621
H18   H     H_    0.888154 0.853131 0.540602 0.156385
H19   H     H_    0.156424 0.841738 0.668038 0.154879
H20   H     H_    0.146575 0.795383 0.605285 0.155457
H21   H     H_    0.209587 0.780219 0.652739 0.146033
H22   H     H_    0.247057 0.835336 0.567682 0.163376
H23   H     H_    0.255667 0.881574 0.630792 0.160647
H24   H     H_    0.077366 0.691079 0.443546 0.124194
H25   H     H_    0.161712 0.939835 0.607922 0.171590
H26   H     H_    0.146874 0.891003 0.548146 0.158890
H27   H     H_    0.213691 0.178224 0.614832 0.154121
H28   H     H_    0.209038 0.122635 0.558287 0.168015
H29   H     H_    0.259345 0.188122 0.551710 0.148107
H30   H     H_    0.165797 0.205575 0.494744 0.168136
H31   H     H_    0.169694 0.258674 0.552547 0.161198
H32   H     H_    0.094043 0.197601 0.607213 0.143863
H33   H     H_    0.098237 0.136928 0.556659 0.179012
H34   H     H_    0.690543 0.074099 0.557434 0.124651
H35   H     H_    0.922689 0.690934 0.554273 0.125690
H36   H     H_    0.309623 0.927384 0.560041 0.123349
H37   H     H_    0.077616 0.308541 0.555128 0.124595
H38   H     H_    0.320965 0.284602 0.887552 0.153948
H39   H     H_    0.377679 0.290354 0.943021 0.168194
H40   H     H_    0.312522 0.239933 0.951433 0.148237
H41   H     H_    0.429186 0.809991 0.938405 0.122901
H42   H     H_    0.295766 0.334279 0.007453 0.167904
H43   H     H_    0.241689 0.329449 0.950513 0.161280
H44   H     H_    0.302085 0.404249 0.893959 0.143785
H45   H     H_    0.363180 0.401257 0.944108 0.178563
H46   H     H_    0.346708 0.657467 0.828259 0.155368
H47   H     H_    0.298602 0.647260 0.889998 0.155132
H48   H     H_    0.284794 0.710561 0.842388 0.145830
H49   H     H_    0.337492 0.747415 0.928740 0.163450
H50   H     H_    0.385396 0.756556 0.866604 0.160703
H51   H     H_    0.443224 0.662584 0.890284 0.171395
H52   H     H_    0.808674 0.578594 0.945716 0.124816
H53   H     H_    0.392755 0.647077 0.948923 0.160661
H54   H     H_    0.679182 0.715252 0.886778 0.153609
H55   H     H_    0.622387 0.709433 0.942353 0.168111
H56   H     H_    0.687469 0.759932 0.950543 0.148222
H57   H     H_    0.704245 0.665609 0.006747 0.168009
H58   H     H_    0.758416 0.670503 0.949725 0.161136
H59   H     H_    0.698347 0.595581 0.893456 0.143507
H60   H     H_    0.637027 0.598579 0.943531 0.178576
H61   H     H_    0.653967 0.343015 0.828383 0.155352
H62   H     H_    0.701824 0.353050 0.890146 0.155139
H63   H     H_    0.570960 0.190184 0.938388 0.122839
H64   H     H_    0.715827 0.289885 0.842536 0.145897
H65   H     H_    0.662782 0.252775 0.928854 0.163487
H66   H     H_    0.615130 0.243818 0.866693 0.160680
H67   H     H_    0.557176 0.337683 0.890362 0.171483
H68   H     H_    0.607439 0.353085 0.948992 0.160580
H69   H     H_    0.320576 0.715306 0.112623 0.153977
H70   H     H_    0.377486 0.709450 0.057166 0.168133
H71   H     H_    0.312388 0.759931 0.048712 0.148217
H72   H     H_    0.295793 0.665554 0.992755 0.167889
H73   H     H_    0.241498 0.670491 0.049670 0.161274
H74   H     H_    0.191298 0.578565 0.054124 0.125006
H75   H     H_    0.301561 0.595652 0.106289 0.143693
H76   H     H_    0.362923 0.598573 0.056245 0.178587
H77   H     H_    0.346386 0.342674 0.171923 0.155383
H78   H     H_    0.298382 0.352820 0.110243 0.155160
H79   H     H_    0.284524 0.289565 0.157924 0.145867
H80   H     H_    0.337388 0.252641 0.071521 0.163439
H81   H     H_    0.385186 0.243541 0.133594 0.160731
H82   H     H_    0.443030 0.337478 0.109779 0.171439
H83   H     H_    0.392652 0.352973 0.051213 0.160560
H84   H     H_    0.679051 0.284544 0.112793 0.154015
H85   H     H_    0.429070 0.190047 0.061703 0.122831
H86   H     H_    0.622381 0.290378 0.057282 0.168117
H87   H     H_    0.687546 0.239948 0.048981 0.148293
H88   H     H_    0.704329 0.334347 0.992850 0.167928
H89   H     H_    0.758370 0.329439 0.049822 0.161312
H90   H     H_    0.697973 0.404213 0.106231 0.143783
H91   H     H_    0.636869 0.401264 0.056103 0.178551
H92   H     H_    0.653818 0.656893 0.171290 0.155622
H93   H     H_    0.701706 0.646818 0.109414 0.155120
H94   H     H_    0.715702 0.709973 0.156985 0.146478
H95   H     H_    0.662716 0.747132 0.070803 0.163500
H96   H     H_    0.808491 0.421376 0.054152 0.124920
H97   H     H_    0.615025 0.756115 0.133074 0.160925
H98   H     H_    0.557056 0.662308 0.109536 0.171547
H99   H     H_    0.607371 0.646845 0.050806 0.160674
H100  H     H_    0.825632 0.792660 0.374987 0.154887
H101  H     H_    0.875940 0.792152 0.435776 0.167325
H102  H     H_    0.809461 0.742727 0.434162 0.147405
H103  H     H_    0.789072 0.832716 0.495437 0.169317
H104  H     H_    0.740187 0.832980 0.434439 0.160511
H105  H     H_    0.803477 0.912067 0.387995 0.144252
H106  H     H_    0.862485 0.902897 0.439688 0.179765
H107  H     H_    0.570907 0.809776 0.061477 0.122970
H108  H     H_    0.787841 0.177213 0.382873 0.154805
H109  H     H_    0.791196 0.123187 0.440895 0.167975
H110  H     H_    0.741043 0.189040 0.444982 0.147583
H111  H     H_    0.833667 0.207548 0.502968 0.168572
H112  H     H_    0.830861 0.259192 0.443891 0.160846
H113  H     H_    0.907486 0.197221 0.391867 0.144573
H114  H     H_    0.901896 0.137157 0.443077 0.179427
H115  H     H_    0.157269 0.156115 0.330151 0.155497
H116  H     H_    0.146964 0.203330 0.392334 0.155417
H117  H     H_    0.210270 0.217869 0.344873 0.145814
H118  H     H_    0.690980 0.925424 0.440552 0.123064
H119  H     H_    0.247227 0.163964 0.430661 0.163251
H120  H     H_    0.256302 0.116854 0.368121 0.160813
H121  H     H_    0.162159 0.058957 0.391411 0.171824
H122  H     H_    0.147058 0.108462 0.450699 0.159647
H123  H     H_    0.213261 0.822346 0.382594 0.154226
H124  H     H_    0.209146 0.877293 0.439756 0.167712
H125  H     H_    0.259563 0.811752 0.445093 0.148178
H126  H     H_    0.166438 0.794024 0.502965 0.168317
H127  H     H_    0.170090 0.741108 0.444966 0.161161
H128  H     H_    0.093698 0.801663 0.391220 0.143447
O1    O     O_R   0.090160 0.552180 0.999990 -0.512586
O2    O     O_R   0.052180 0.409840 0.499990 -0.512402
O3    O     O_R   0.409840 0.947820 0.499990 -0.512311
O4    O     O_R   0.947820 0.590160 0.499990 -0.513518
O5    O     O_R   0.590160 0.947820 0.500010 -0.511156
O6    O     O_R   0.052180 0.590160 0.500010 -0.511658
O7    O     O_R   0.409840 0.052180 0.500010 -0.512235
O8    O     O_R   0.947820 0.409840 0.500010 -0.512330
O9    O     O_R   0.999980 0.552180 0.081400 -0.503726
O10   O     O_R   0.552180 0.000020 0.081400 -0.503918
O11   O     O_R   0.000020 0.447820 0.081400 -0.503754
O12   O     O_R   0.552180 0.909840 0.999990 -0.512074
O13   O     O_R   0.447820 0.999980 0.081400 -0.504111
O14   O     O_R   0.999980 0.447820 0.918600 -0.503733
O15   O     O_R   0.552180 0.999980 0.918600 -0.504125
O16   O     O_R   0.000020 0.552180 0.918600 -0.503900
O17   O     O_R   0.447820 0.000020 0.918600 -0.504086
O18   O     O_R   0.499980 0.052180 0.581400 -0.503836
O19   O     O_R   0.052180 0.500020 0.581400 -0.503477
O20   O     O_R   0.500020 0.947820 0.581400 -0.503864
O21   O     O_R   0.947820 0.499980 0.581400 -0.503848
O22   O     O_R   0.499980 0.947820 0.418600 -0.504023
O23   O     O_R   0.909840 0.447820 0.999990 -0.512568
O24   O     O_R   0.052180 0.499980 0.418600 -0.503951
O25   O     O_R   0.500020 0.052180 0.418600 -0.504358
O26   O     O_R   0.947820 0.500020 0.418600 -0.504021
O27   O     O_R   0.499980 0.590270 0.952910 -0.522646
O28   O     O_R   0.590270 0.500020 0.952910 -0.517571
O29   O     O_R   0.500020 0.409730 0.952910 -0.522651
O30   O     O_R   0.409730 0.499980 0.952910 -0.517477
O31   O     O_R   0.499980 0.409730 0.047090 -0.522602
O32   O     O_R   0.590270 0.499980 0.047090 -0.517507
O33   O     O_R   0.500020 0.590270 0.047090 -0.522598
O34   O     O_R   0.447820 0.090160 0.999990 -0.512052
O35   O     O_R   0.409730 0.500020 0.047090 -0.517489
O36   O     O_R   0.999980 0.090270 0.452910 -0.517088
O37   O     O_R   0.090270 0.000020 0.452910 -0.522555
O38   O     O_R   0.000020 0.909730 0.452910 -0.519961
O39   O     O_R   0.909730 0.999980 0.452910 -0.519502
O40   O     O_R   0.999980 0.909730 0.547090 -0.520377
O41   O     O_R   0.090270 0.999980 0.547090 -0.522810
O42   O     O_R   0.000020 0.090270 0.547090 -0.517452
O43   O     O_R   0.909730 0.000020 0.547090 -0.520369
O44   O     O_R   0.090160 0.447820 0.000010 -0.512570
O45   O     O_R   0.552180 0.090160 0.000010 -0.512041
O46   O     O_R   0.909840 0.552180 0.000010 -0.512542
O47   O     O_R   0.447820 0.909840 0.000010 -0.512063
O48   O     O_R   0.590160 0.052180 0.499990 -0.513093

loop_
_geom_bond_atom_site_label_1
_geom_bond_atom_site_label_2
_ccdc_geom_bond_type
C111  O30   A    
C129  H53   S    
C3    H61   S    
C43   O19   A    
C12   H87   S    
C82   O48   A    
C33   H18   S    
C136  H65   S    
C38   H23   S    
C104  C123  S    
C109  O32   A    
C110  O31   A    
C2    O13   A    
C52   C61   T    
C40   C98   S    
C5    C6    S    
Cu12  O27   S    
C54   C63   T    
C44   O25   A    
C76   C94   A    
C40   H32   S    
C44   C53   S    
Cu7   O13   S    
Cu3   O36   S    
C78   C96   A    
C46   C55   T    
C65   C118  A    
C134  H54   S    
C9    H78   S    
C67   C120  A    
Cu5   O12   S    
C3    H62   S    
C43   O21   A    
C21   C22   S    
C24   C50   S    
C25   H119  S    
C116  O43   A    
Cu5   O15   S    
C115  O6    A    
C94   C107  A    
C68   H74   S    
C67   C85   A    
C127  H42   S    
C71   O45   A    
Cu9   O19   S    
Cu10  O20   S    
C80   C122  A    
C81   C99   A    
C29   H123  S    
C1    O1    A    
C37   C38   S    
Cu3   O38   S    
C125  H45   S    
C86   C99   A    
Cu10  O5    S    
C32   H6    S    
C92   C106  A    
C105  C112  S    
C65   H41   S    
C73   C121  A    
C83   C100  A    
C35   C51   S    
C56   C62   S    
C72   H107  S    
Cu7   O34   S    
C40   H33   S    
C110  O29   A    
C79   C97   A    
C131  H47   S    
C4    C5    S    
Cu3   Cu4   S    
C19   H102  S    
C57   C61   S    
Cu12  O29   S    
C2    C47   S    
Cu6   O44   S    
C103  C116  S    
C133  H58   S    
C113  O37   A    
C39   H21   S    
C42   H28   S    
Cu11  O8    S    
C130  C131  S    
C24   O15   A    
C73   H118  S    
C20   C21   S    
C72   C118  A    
C125  C127  S    
C66   H52   S    
C7    H82   S    
C16   H94   S    
C115  O4    A    
Cu1   Cu6   S    
C23   H122  S    
Cu2   O35   S    
C128  H39   S    
C48   C57   T    
C91   C105  A    
Cu8   O25   S    
C31   H8    S    
C8    H80   S    
C134  H55   S    
C79   H36   S    
Cu1   O1    S    
C73   C90   A    
C83   C129  S    
C34   H16   S    
C104  O7    A    
C38   C39   S    
C43   C52   S    
C4    C86   S    
C112  O42   A    
C60   C119  S    
C3    C136  S    
C76   H24   S    
C69   H85   S    
C135  H68   S    
Cu2   Cu12  S    
Cu6   O23   S    
C55   C63   S    
Cu6   O11   S    
C20   H114  S    
C109  O28   A    
C10   H91   S    
Cu3   O37   S    
C95   C103  A    
C19   H100  S    
Cu10  O22   S    
C29   H125  S    
C15   H95   S    
C17   H106  S    
C100  C108  S    
C106  C113  S    
C76   C124  A    
C45   O24   A    
C114  O40   A    
Cu8   O18   S    
Cu2   O33   S    
Cu7   O17   S    
C28   H127  S    
C26   H115  S    
C25   C26   S    
C84   C132  S    
C127  H43   S    
Cu1   O16   S    
C8    H81   S    
C31   C32   S    
C32   H4    S    
C18   H103  S    
C99   C111  S    
Cu8   O7    S    
C17   C18   S    
C1    C117  S    
C67   H63   S    
C129  H51   S    
Cu3   O39   S    
C85   C135  S    
C66   C119  A    
C33   C96   S    
C129  C130  S    
C81   C125  S    
C41   H31   S    
C33   H17   S    
C37   H25   S    
C132  H60   S    
C4    H75   S    
C64   H1    S    
C75   H13   S    
Cu7   O47   S    
Cu12  O28   S    
C34   C36   S    
C64   C81   A    
C77   C121  A    
C10   C11   S    
C16   H92   S    
C13   O16   A    
C23   C92   S    
C9    H77   S    
C93   O8    A    
C24   O17   A    
C85   C102  A    
C47   C56   T    
Cu6   O14   S    
C30   H9    S    
C49   O12   A    
C113  O41   A    
C41   C42   S    
C114  O38   A    
Cu11  O4    S    
C135  C136  S    
C7    H83   S    
C22   H110  S    
Cu4   O41   S    
C128  H38   S    
C28   C29   S    
C14   H99   S    
Cu5   Cu7   S    
C30   C31   S    
C101  C109  S    
C18   C19   S    
C39   H20   S    
C49   O47   A    
C36   H11   S    
C37   H26   S    
C6    H70   S    
C7    C87   S    
Cu11  O21   S    
C130  H49   S    
C69   C87   A    
C111  O35   A    
C35   O20   A    
C22   H109  S    
Cu5   O45   S    
C36   H14   S    
C104  O3    A    
Cu9   Cu11  S    
C38   H22   S    
C20   C91   S    
Cu9   O2    S    
C89   C100  A    
C50   C58   T    
C7    C8    S    
C93   C122  S    
Cu8   Cu10  S    
C19   H101  S    
Cu12  O30   S    
C58   C59   S    
C60   O23   A    
C64   C117  A    
C74   C91   A    
C14   C89   S    
C30   C95   S    
C20   H113  S    
C28   H126  S    
C10   C88   S    
C77   H34   S    
C9    H79   S    
C21   H111  S    
C71   O34   A    
C93   O2    A    
C97   C106  A    
C74   C122  A    
C96   C107  A    
C133  C134  S    
C102  C110  S    
C127  C128  S    
C25   H120  S    
C11   H88   S    
Cu4   O43   S    
C23   H121  S    
C27   H3    S    
C115  C124  S    
C80   C98   A    
C128  H40   S    
C17   C90   S    
C31   H7    S    
C134  H56   S    
C69   C120  A    
C125  H44   S    
C90   C103  A    
C60   O46   A    
C32   H5    S    
C108  O27   A    
C35   O18   A    
C27   C94   S    
C27   H128  S    
C5    H73   S    
C68   C86   A    
C131  H48   S    
C70   C88   A    
C37   C97   S    
C88   C101  A    
Cu9   O24   S    
C107  C114  S    
C12   H86   S    
C17   H105  S    
C98   C105  A    
C71   C120  S    
C75   C123  A    
C42   H27   S    
C116  O39   A    
C65   C83   A    
C5    H72   S    
C26   H116  S    
C42   H29   S    
C133  H57   S    
C15   C16   S    
Cu4   O40   S    
C1    O44   A    
C78   H35   S    
C70   H96   S    
C135  H67   S    
C15   H97   S    
C18   H104  S    
C8    C9    S    
C80   H37   S    
C78   C124  A    
C82   C121  S    
C22   H108  S    
C2    O10   A    
C26   H117  S    
C16   H93   S    
Cu11  O26   S    
C112  O36   A    
C126  O11   A    
C84   C101  A    
Cu9   O6    S    
C12   H84   S    
C136  H66   S    
C41   H30   S    
C34   H15   S    
Cu1   O46   S    
C132  C133  S    
C4    H76   S    
C6    H69   S    
C79   C123  A    
C77   C95   A    
Cu8   O48   S    
C68   C117  A    
C87   C102  A    
C53   C62   T    
C49   C118  S    
Cu1   O9    S    
C70   C119  A    
C33   C34   S    
C45   O26   A    
C75   C92   A    
C132  H59   S    
Cu2   O31   S    
C40   C41   S    
C45   C54   S    
C10   H90   S    
C131  H46   S    
C51   C59   T    
Cu10  O3    S    
Cu5   O10   S    
C3    H64   S    
C30   H10   S    
C14   C15   S    
C29   H124  S    
C46   C126  S    
C13   C48   S    
C11   C12   S    
C21   H112  S    
C11   H89   S    
Cu4   O42   S    
Cu2   O32   S    
C72   C89   A    
C108  O33   A    
C44   O22   A    
C23   C25   S    
C39   H19   S    
C36   H12   S    
C66   C84   A    
C6    H71   S    
C13   O14   A    
C126  O9    A    
C27   C28   S    
C74   H2    S    
C130  H50   S    
C82   O5    A    
C14   H98   S    
