data_mof_unit_47967.cif
_audit_creation_date              2012-12-11T15:12:08-0500
_audit_creation_method            fapswitch 2.2
_symmetry_space_group_name_H-M    P1
_symmetry_Int_Tables_number       1
_space_group_crystal_system       triclinic
_cell_length_a                    8.293026
_cell_length_b                    17.425296
_cell_length_c                    19.076473
_cell_angle_alpha                 94.548139
_cell_angle_beta                  94.642899
_cell_angle_gamma                 95.727641
_cell_volume                      2723.31641549

loop_
_atom_site_label
_atom_site_type_symbol
_atom_type_description
_atom_site_fract_x
_atom_site_fract_y
_atom_site_fract_z
_atom_type_partial_charge
Ba1   Ba    Ba6+2 0.157360 0.537160 0.466280 1.725138
Ba2   Ba    Ba6+2 0.652820 0.462830 0.533660 1.681543
C1    C     C_3   0.379550 0.737045 0.202479 0.257578
C2    C     C_3   0.398322 0.710095 0.276395 0.367203
C3    C     C_3   0.597411 0.701455 0.678221 0.375980
C4    C     C_3   0.679242 0.747976 0.746224 -0.180706
C5    C     C_3   0.931779 0.258025 0.751912 0.346296
C6    C     C_3   0.893586 0.199042 0.806711 -0.048485
C7    C     C_3   0.398006 0.279422 0.723583 0.330551
C8    C     C_3   0.378252 0.236230 0.789372 0.163124
C9    C     C_R   0.712826 0.722551 0.473002 -0.293445
C10   C     C_R   0.863460 0.746038 0.510056 0.050755
C11   C     C_R   0.920809 0.825728 0.519460 -0.117459
C12   C     C_3   0.927457 0.752605 0.316507 0.301012
C13   C     C_R   0.825443 0.881483 0.492382 -0.011746
C14   C     C_R   0.670314 0.856231 0.457545 -0.114103
C15   C     C_R   0.613750 0.776844 0.448798 0.018084
C16   C     C_R   0.885891 0.171449 0.483658 0.004785
C17   C     C_R   0.944348 0.252438 0.490573 0.094446
C18   C     C_R   0.198242 0.222623 0.549752 0.003699
C19   C     C_R   0.138824 0.144028 0.547320 -0.151260
C20   C     C_R   0.982273 0.117445 0.515010 -0.001547
C21   C     C_1   0.928972 0.033746 0.508488 0.005737
C22   C     C_1   0.883268 0.964393 0.501772 0.006456
C23   C     C_3   0.961444 0.835475 0.297685 -0.278983
C24   C     C_R   0.099728 0.275891 0.523301 -0.299039
C25   C     C_R   0.609967 0.538077 0.300654 -0.239385
C26   C     C_R   0.457616 0.498441 0.278699 0.070544
C27   C     C_R   0.398655 0.494234 0.207342 -0.068097
C28   C     C_R   0.494346 0.526576 0.156738 -0.007580
C29   C     C_R   0.651604 0.563384 0.179858 -0.081281
C30   C     C_R   0.709234 0.568654 0.251444 0.067356
C31   C     C_R   0.481781 0.574646 0.034598 -0.073658
C32   C     C_R   0.430445 0.564944 0.962243 -0.072888
C33   C     C_R   0.328139 0.498857 0.932929 0.060381
C34   C     C_3   0.728616 0.334738 0.310247 0.619422
C35   C     C_R   0.274921 0.444127 0.978779 -0.012298
C36   C     C_R   0.328927 0.452924 0.050675 -0.029178
C37   C     C_R   0.433912 0.518175 0.079892 0.044893
C38   C     C_R   0.124480 0.449742 0.828729 -0.093132
C39   C     C_R   0.081346 0.437500 0.755724 -0.014720
C40   C     C_R   0.342261 0.501231 0.733118 0.030264
C41   C     C_R   0.388699 0.511297 0.805975 -0.074413
C42   C     C_R   0.280140 0.486077 0.855003 0.060004
C43   C     C_R   0.191864 0.461694 0.708488 -0.278868
C44   C     C_3   0.656961 0.272074 0.252230 0.273096
C45   C     C_3   0.051029 0.631007 0.679331 0.325474
C46   C     C_3   0.094905 0.656116 0.757734 0.264458
C47   C     C_3   0.274442 0.296249 0.365959 0.329847
C48   C     C_3   0.249584 0.212913 0.330445 0.285879
H1    H     H_    0.313354 0.656831 0.277455 0.015608
H2    H     H_    0.602484 0.221089 0.276256 -0.014025
H3    H     H_    0.755454 0.251920 0.221618 0.168690
H4    H     H_    0.159704 0.613892 0.655147 0.026075
H5    H     H_    0.956271 0.580617 0.674030 -0.033288
H6    H     H_    0.160142 0.612265 0.783418 -0.036683
H7    H     H_    0.983279 0.662002 0.784433 0.027800
H8    H     H_    0.159999 0.312489 0.386231 0.030693
H9    H     H_    0.372438 0.301690 0.409803 -0.041548
H10   H     H_    0.255344 0.754261 0.191178 0.100696
H11   H     H_    0.351030 0.203773 0.297839 0.120879
H12   H     H_    0.525265 0.696276 0.287353 -0.081769
H13   H     H_    0.398139 0.689091 0.163075 -0.016153
H14   H     H_    0.687481 0.666992 0.654484 0.035038
H15   H     H_    0.806824 0.768644 0.737824 0.118174
H16   H     H_    0.615509 0.799900 0.758831 0.146602
H17   H     H_    0.921015 0.875934 0.339018 0.076556
H18   H     H_    0.045714 0.293032 0.774429 0.029930
H19   H     H_    0.007348 0.172971 0.821373 0.115458
H20   H     H_    0.279333 0.299714 0.706709 -0.080972
H21   H     H_    0.489721 0.330602 0.736266 0.119749
H22   H     H_    0.488329 0.208307 0.803671 0.095747
H23   H     H_    0.996694 0.747429 0.367960 0.073279
H24   H     H_    0.274296 0.190460 0.779613 0.045916
H25   H     H_    0.593024 0.898017 0.438290 0.089433
H26   H     H_    0.215975 0.103476 0.568999 0.086710
H27   H     H_    0.037216 0.844195 0.548928 0.098832
H28   H     H_    0.667732 0.661735 0.466974 0.071032
H29   H     H_    0.147225 0.336296 0.526058 0.062696
H30   H     H_    0.507015 0.541121 0.824147 0.057966
H31   H     H_    0.469838 0.609881 0.929462 0.073590
H32   H     H_    0.558478 0.626833 0.054986 0.093735
H33   H     H_    0.794991 0.740819 0.321537 -0.025805
H34   H     H_    0.279015 0.464356 0.191630 0.121858
H35   H     H_    0.194956 0.392835 0.958976 0.130779
H36   H     H_    0.290839 0.407141 0.082776 0.136012
H37   H     H_    0.035570 0.432366 0.864514 0.059918
H38   H     H_    0.731896 0.585336 0.142374 0.075998
H39   H     H_    0.155911 0.455283 0.652347 0.058298
H40   H     H_    0.656278 0.540154 0.355513 0.071873
H41   H     H_    0.093805 0.849853 0.294014 0.151817
H42   H     H_    0.894663 0.842747 0.246216 0.183111
H43   H     H_    0.632039 0.359464 0.338673 -0.055129
O1    O     O_2   0.143190 0.684560 0.534150 -0.444768
O2    O     O_3   0.320327 0.343112 0.313434 -0.576465
O3    O     O_3   0.977325 0.701869 0.263479 -0.610617
O4    O     O_2   0.667110 0.315390 0.465830 -0.490416
O5    O     O_3   0.927950 0.409760 0.464380 -0.466564
O6    O     O_3   0.437660 0.360670 0.591630 -0.472743
O7    O     O_3   0.838604 0.300825 0.354099 -0.633806
O8    O     O_3   0.379150 0.537830 0.583060 -0.466403
O9    O     O_3   0.857920 0.398470 0.626650 -0.466415
O10   O     O_2   0.752036 0.448584 0.748706 -0.482952
O11   O     O_3   0.802556 0.304049 0.741294 -0.578598
O12   O     O_3   0.882350 0.590230 0.535560 -0.492518
O13   O     O_3   0.431150 0.462160 0.416880 -0.508971
O14   O     O_2   0.634060 0.535220 0.669530 -0.471482
O15   O     O_3   0.456329 0.657021 0.694200 -0.604903
O16   O     O_2   0.532754 0.226008 0.543501 -0.478378
O17   O     O_3   0.452311 0.228891 0.671619 -0.618676
O18   O     O_3   0.372640 0.639320 0.408320 -0.500578
O19   O     O_2   0.278235 0.774997 0.454882 -0.487378
O20   O     O_3   0.992328 0.692897 0.646732 -0.624895
O21   O     O_3   0.360176 0.768301 0.325740 -0.580714
O22   O     O_2   0.176230 0.464730 0.330450 -0.391961
O23   O     O_3   0.952380 0.601530 0.373300 -0.481596
O24   O     O_2   0.044452 0.558267 0.247750 -0.443166
P1    P     P_3+3 0.970290 0.672580 0.555000 1.002411
P2    P     P_3+3 0.347000 0.441860 0.341200 1.071400
P3    P     P_3+3 0.920760 0.606774 0.282369 1.014068
P4    P     P_3+3 0.840010 0.327410 0.444950 1.016746
P5    P     P_3+3 0.875476 0.396665 0.719126 0.967285
P6    P     P_3+3 0.406297 0.740608 0.410624 0.963738
P7    P     P_3+3 0.455354 0.557232 0.671643 0.955320
P8    P     P_3+3 0.404695 0.259412 0.588051 0.968701
Cl1   Cl    Cl    0.510783 0.305766 0.191367 -0.622866
Cl2   Cl    Cl    0.218024 0.746944 0.771286 -0.657602
Cl3   Cl    Cl    0.068589 0.198484 0.271547 -0.592347
C49   C     C_3   0.246603 0.150967 0.382028 -0.489181
H44   H     H_    0.260087 0.093998 0.353873 0.169612
H45   H     H_    0.347272 0.164160 0.424526 0.093821
H46   H     H_    0.128272 0.146453 0.404159 0.152664
C50   C     C_3   0.545901 0.756833 0.624593 -0.335484
H47   H     H_    0.490280 0.722928 0.575429 0.103820
H48   H     H_    0.453793 0.792721 0.645234 0.161240
H49   H     H_    0.652529 0.795705 0.612623 0.035867
C51   C     C_3   0.678681 0.700529 0.810367 -0.339498
H50   H     H_    0.554645 0.693468 0.828516 0.174270
H51   H     H_    0.716687 0.642237 0.797219 0.097236
H52   H     H_    0.762940 0.731037 0.854272 0.135453
Cl4   Cl    Cl    0.525937 0.817191 0.194286 -0.646666
C52   C     C_3   0.963499 0.218035 0.681192 -0.335506
H53   H     H_    0.009042 0.263270 0.648412 0.066406
H54   H     H_    0.055774 0.176731 0.688242 0.058525
H55   H     H_    0.849903 0.187172 0.653247 0.142815
C53   C     C_3   0.765338 0.131604 0.777724 -0.385514
H56   H     H_    0.822761 0.088398 0.744753 0.113767
H57   H     H_    0.713071 0.101434 0.821198 0.140896
H58   H     H_    0.666231 0.151869 0.743956 0.167923
C54   C     C_3   0.846016 0.240283 0.874976 -0.288099
H59   H     H_    0.732009 0.267604 0.865326 0.173752
H60   H     H_    0.828627 0.198510 0.915474 0.144061
H61   H     H_    0.944334 0.286048 0.896605 0.124863
Cl5   Cl    Cl    0.348345 0.299923 0.863042 -0.769150
C55   C     C_3   0.731085 0.139662 0.438912 -0.311230
H62   H     H_    0.667538 0.183836 0.412873 0.118193
H63   H     H_    0.760495 0.097631 0.396191 0.121023
H64   H     H_    0.645649 0.109111 0.471924 0.121638
Cl6   Cl    Cl    0.842747 0.406445 0.268892 -0.636320

loop_
_geom_bond_atom_site_label_1
_geom_bond_atom_site_label_2
_ccdc_geom_bond_type
O5    P4    S    
C38   C39   A    
C2    H12   S    
O13   P2    S    
C55   H63   S    
C14   H25   S    
O1    P1    D    
C1    Cl4   S    
C8    Cl5   S    
C40   P7    S    
C46   H7    S    
O6    P8    S    
C3    C50   S    
C51   H51   S    
C19   H26   S    
C6    H19   S    
C31   C37   A    
C36   H36   S    
O14   P7    D    
C38   H37   S    
C35   H35   S    
C26   C27   A    
C48   C49   S    
C35   C36   A    
O15   P7    S    
C32   C33   A    
C3    C4    S    
O11   P5    S    
Ba2   O9    S    
C13   C14   A    
C44   H2    S    
Ba2   O14   S    
C25   H40   S    
C45   O20   S    
Ba1   Ba2   S    
Ba1   P2    S    
C17   C24   A    
O4    P4    D    
C34   Cl6   S    
C5    H18   S    
C34   H43   S    
C15   P6    S    
C4    H15   S    
C17   P4    S    
C45   C46   S    
Ba2   O4    S    
Ba1   O1    S    
C54   H61   S    
C23   H17   S    
C50   H49   S    
C21   C22   T    
C34   C44   S    
C32   H31   S    
C43   H39   S    
C7    C8    S    
Ba1   O13   S    
C49   H46   S    
C1    H10   S    
C19   C20   A    
C55   H64   S    
C52   H55   S    
C12   H33   S    
C30   P3    S    
C12   O3    S    
C44   Cl1   S    
C53   H57   S    
C51   H52   S    
C11   H27   S    
C23   H41   S    
O8    P7    S    
C52   H53   S    
C2    H1    S    
O18   P6    S    
C12   H23   S    
C5    C6    S    
C7    H20   S    
C27   H34   S    
O24   P3    D    
C16   C17   A    
Ba2   O8    S    
O2    P2    S    
C41   H30   S    
Ba2   O13   S    
C47   H8    S    
O23   P3    S    
C3    H14   S    
C40   C43   A    
C39   P5    S    
C6    C54   S    
C41   C42   A    
C27   C28   A    
C9    H28   S    
C53   H58   S    
C29   C30   A    
C38   C42   A    
C28   C29   A    
C18   C19   A    
C31   C32   A    
C34   O7    S    
C47   O2    S    
C33   C42   S    
O19   P6    D    
C45   H4    S    
C10   P1    S    
O21   P6    S    
O16   P8    D    
C13   C22   S    
Ba1   O23   S    
Ba2   O6    S    
O22   P2    D    
C5    O11   S    
C11   C13   A    
C8    H22   S    
C50   H47   S    
C54   H60   S    
O12   P1    S    
C48   Cl3   S    
C40   C41   A    
C1    C2    S    
Ba1   O8    S    
C55   H62   S    
C45   H5    S    
C53   H56   S    
C31   H32   S    
Ba2   P4    S    
C2    O21   S    
C7    O17   S    
C46   H6    S    
C9    C15   A    
C23   H42   S    
C29   H38   S    
C33   C35   A    
C25   C30   A    
C16   C20   A    
O3    P3    S    
C6    C53   S    
C7    H21   S    
C26   P2    S    
Ba1   O5    S    
C9    C10   A    
C1    H13   S    
C51   H50   S    
Ba2   O12   S    
C24   H29   S    
C47   H9    S    
C4    C51   S    
C49   H44   S    
C18   P8    S    
Ba1   O18   S    
C46   Cl2   S    
C8    H24   S    
C36   C37   A    
C18   C24   A    
C44   H3    S    
C28   C37   S    
C52   H54   S    
Ba1   P1    S    
C12   C23   S    
O17   P8    S    
O20   P1    S    
C4    H16   S    
C10   C11   A    
Ba2   O5    S    
C47   C48   S    
C25   C26   A    
C50   H48   S    
C48   H11   S    
C39   C43   A    
C20   C21   S    
Ba1   O22   S    
O9    P5    S    
O10   P5    D    
C5    C52   S    
C16   C55   S    
C14   C15   A    
Ba1   O12   S    
C54   H59   S    
C49   H45   S    
C3    O15   S    
O7    P4    S    
