data_mof_unit_41577.cif
_audit_creation_date              2012-12-11T14:29:41-0500
_audit_creation_method            fapswitch 2.2
_symmetry_space_group_name_H-M    P1
_symmetry_Int_Tables_number       1
_space_group_crystal_system       triclinic
_cell_length_a                    6.934789
_cell_length_b                    14.886981
_cell_length_c                    16.168956
_cell_angle_alpha                 90.429418
_cell_angle_beta                  89.35699
_cell_angle_gamma                 90.03003
_cell_volume                      1669.09968638

loop_
_atom_site_label
_atom_site_type_symbol
_atom_type_description
_atom_site_fract_x
_atom_site_fract_y
_atom_site_fract_z
_atom_type_partial_charge
O1    O     O_R   0.494400 0.416610 0.413880 -0.537923
O2    O     O_R   0.823920 0.406790 0.585520 -0.540389
O3    O     O_R   0.994250 0.583390 0.586120 -0.547189
C1    C     C_R   0.652573 0.387271 0.615404 0.710321
O4    O     O_R   0.824110 0.405730 0.414490 -0.534154
O5    O     O_R   0.994440 0.582310 0.413870 -0.537489
C2    C     C_R   0.655669 0.385090 0.385448 0.757567
O6    O     O_R   0.494210 0.417690 0.586130 -0.535172
O7    O     O_3   0.660810 0.557940 0.500000 -0.377507
V1    V     V_3+5 0.935650 0.489250 0.500000 1.484490
O8    O     O_R   0.324160 0.593210 0.414480 -0.531315
C3    C     C_R   0.155449 0.613031 0.384526 0.770320
O9    O     O_R   0.323970 0.594270 0.585510 -0.545836
C4    C     C_R   0.153999 0.615887 0.614054 0.673731
V2    V     V_3+5 0.435660 0.510750 0.500000 1.489895
O10   O     O_3   0.160630 0.442060 0.500000 -0.364443
H1    H     H_    0.744985 0.867265 0.530931 0.134988
C5    C     C_R   0.323844 0.584584 0.774183 -0.155173
C6    C     C_R   0.405177 0.566275 0.850495 -0.117565
C7    C     C_R   0.392116 0.628639 0.915318 0.005202
C8    C     C_R   0.297014 0.710263 0.902172 -0.192492
C9    C     C_R   0.217717 0.731904 0.824322 0.052977
C10   C     C_R   0.229804 0.667137 0.759242 0.071524
C11   C     C_R   0.125305 0.815973 0.811303 -0.153108
C12   C     C_R   0.043283 0.834385 0.732299 0.015173
C13   C     C_R   0.036877 0.764828 0.671021 0.062974
C14   C     C_R   0.140555 0.683686 0.682312 -0.164226
C15   C     C_R   0.967841 0.920420 0.710769 -0.021727
C16   C     C_R   0.848952 0.928892 0.641697 -0.131406
C17   C     C_R   0.828996 0.858426 0.586330 -0.142250
C18   C     C_R   0.930566 0.779477 0.597965 -0.143115
H2    H     H_    0.333276 0.532150 0.727720 0.130296
H3    H     H_    0.476319 0.502284 0.858996 0.187996
H4    H     H_    0.284513 0.756210 0.953937 0.145211
H5    H     H_    0.785273 0.992989 0.626187 0.154775
H6    H     H_    0.922706 0.730822 0.548431 0.129965
C19   C     C_2   0.989231 0.694295 0.268344 0.020534
C20   C     C_2   0.145003 0.681582 0.317954 -0.345413
H7    H     H_    0.267636 0.726493 0.313265 0.158865
C21   C     C_2   0.974795 0.770518 0.208884 -0.183831
C22   C     C_2   0.127295 0.812452 0.174846 -0.289575
H8    H     H_    0.831693 0.788199 0.187621 0.165379
H9    H     H_    0.272337 0.793236 0.191816 0.165503
C23   C     C_2   0.753010 0.246268 0.812326 0.348842
C24   C     C_2   0.626569 0.176901 0.816178 -0.214521
H10   H     H_    0.539891 0.160470 0.763148 0.094710
C25   C     C_2   0.771786 0.304600 0.737735 -0.223036
C26   C     C_2   0.624579 0.327545 0.687907 -0.212875
H11   H     H_    0.913018 0.333333 0.725612 0.171425
C27   C     C_2   0.769335 0.213791 0.210218 -0.147968
C28   C     C_2   0.610059 0.165496 0.190017 -0.164465
H12   H     H_    0.895575 0.210024 0.169976 0.186390
C29   C     C_2   0.788166 0.273808 0.284037 -0.064315
C30   C     C_2   0.641015 0.323610 0.313877 -0.274594
H13   H     H_    0.930454 0.281147 0.310641 0.156027
H14   H     H_    0.502294 0.321203 0.283572 0.146478
O11   O     O_R   0.770210 0.079270 0.910680 -0.511728
O12   O     O_R   0.440150 0.091160 0.082270 -0.521793
O13   O     O_R   0.269970 0.914530 0.082860 -0.545837
C31   C     C_R   0.607505 0.110274 0.112909 0.701857
O14   O     O_R   0.440480 0.090100 0.911240 -0.537682
O15   O     O_R   0.270310 0.913460 0.910610 -0.530864
C32   C     C_R   0.611425 0.113909 0.885544 0.797008
O16   O     O_R   0.769870 0.080340 0.082930 -0.540538
O17   O     O_3   0.603660 0.938980 0.996790 -0.384514
V3    V     V_3+5 0.328750 0.007610 0.996740 1.563826
O18   O     O_R   0.940600 0.902510 0.911180 -0.549203
C33   C     C_R   0.110321 0.882213 0.881315 0.708705
O19   O     O_R   0.940270 0.903570 0.082200 -0.548457
C34   C     C_R   0.109442 0.881768 0.110184 0.745576
V4    V     V_3+5 0.828770 0.986010 0.996670 1.526312
O20   O     O_3   0.103730 0.054750 0.996710 -0.347992
Br1   Br    Br    0.925341 0.272434 0.901689 -0.451060
C35   C     C_2   0.420798 0.304902 0.709328 0.765173
O21   O     O_2   0.354436 0.323808 0.777683 -0.541130
O22   O     O_R   0.305451 0.262838 0.650180 -0.654385
H15   H     H_    0.172671 0.247137 0.672432 0.302817
C36   C     C_2   0.443922 0.155280 0.248494 0.748653
O23   O     O_2   0.278812 0.155601 0.222726 -0.564715
O24   O     O_R   0.476960 0.142865 0.332827 -0.655318
H16   H     H_    0.352979 0.136587 0.366118 0.298615
C37   C     C_2   0.476454 0.608678 0.997190 0.785078
O25   O     O_2   0.558124 0.537107 0.008750 -0.531242
O26   O     O_R   0.463098 0.671818 0.061513 -0.675448
H17   H     H_    0.525795 0.650366 0.114112 0.317084
C38   C     C_2   0.044584 0.005350 0.744540 0.728753
O27   O     O_2   0.941743 0.071696 0.749271 -0.571284
O28   O     O_R   0.240399 0.012669 0.761634 -0.662004
H18   H     H_    0.275490 0.076495 0.776688 0.301876
C39   C     C_2   0.824040 0.631100 0.267900 0.785021
O29   O     O_2   0.659175 0.659901 0.272806 -0.588149
O30   O     O_R   0.856960 0.539056 0.257798 -0.648668
H19   H     H_    0.732588 0.503743 0.253134 0.287173

loop_
_geom_bond_atom_site_label_1
_geom_bond_atom_site_label_2
_ccdc_geom_bond_type
C7    C37   S    
C6    C7    A    
C1    O6    A    
C25   H11   S    
C29   C30   D    
C12   C15   A    
C13   C14   A    
C16   C17   A    
C35   O22   S    
C19   C39   S    
C15   C16   A    
C19   C21   S    
O13   V3    S    
O5    C3    A    
C17   C18   A    
C36   O24   S    
O12   C31   A    
V2    O10   S    
O14   C32   A    
C5    C6    A    
O16   V4    S    
O19   V4    S    
O8    V2    S    
O26   H17   S    
O12   V3    S    
V3    O20   S    
C27   H12   S    
O1    V2    S    
C10   C14   A    
C4    C14   S    
O7    V1    S    
O18   V4    S    
C23   C25   S    
O28   H18   S    
C21   H8    S    
C13   C18   A    
C8    C9    A    
H1    C17   S    
C22   H9    S    
O19   C34   A    
O14   V3    S    
O11   C32   A    
C29   H13   S    
C30   H14   S    
C27   C29   S    
C35   O21   D    
O15   V3    S    
O18   C33   A    
C26   C35   S    
C11   C12   A    
C6    H3    S    
O4    C2    A    
C36   O23   D    
C8    H4    S    
C12   C13   A    
O17   V4    S    
C24   C32   S    
O11   V4    S    
C5    C10   A    
O2    C1    A    
C19   C20   D    
C39   O30   S    
C25   C26   D    
C27   C28   D    
O22   H15   S    
O3    C4    A    
C21   C22   D    
O17   V3    S    
O6    V2    S    
C37   O26   S    
O9    V2    S    
C15   C38   S    
C9    C11   A    
C5    H2    S    
O2    V1    S    
C23   C24   D    
C38   O27   D    
C1    C26   S    
O1    C2    A    
C9    C10   A    
O24   H16   S    
O5    V1    S    
O8    C3    A    
C16   H5    S    
O15   C33   A    
C31   O16   A    
O7    V2    S    
C28   C36   S    
O4    V1    S    
O3    V1    S    
V1    O10   S    
C39   O29   D    
C20   H7    S    
O30   H19   S    
C38   O28   S    
C3    C20   S    
C23   Br1   S    
C11   C33   S    
O13   C34   A    
C24   H10   S    
V4    O20   S    
C7    C8    A    
C37   O25   D    
C18   H6    S    
C28   C31   S    
C2    C30   S    
O9    C4    A    
C22   C34   S    
