data_mof_unit_56934.cif
_audit_creation_date              2012-10-26T21:19:42-0400
_audit_creation_method            fapswitch 2.2
_symmetry_space_group_name_H-M    P1
_symmetry_Int_Tables_number       1
_space_group_crystal_system       triclinic
_cell_length_a                    10.930168
_cell_length_b                    15.121578
_cell_length_c                    13.945739
_cell_angle_alpha                 91.296425
_cell_angle_beta                  90.82647
_cell_angle_gamma                 91.359084
_cell_volume                      2303.4747084

loop_
_atom_site_label
_atom_site_type_symbol
_atom_type_description
_atom_site_fract_x
_atom_site_fract_y
_atom_site_fract_z
_atom_type_partial_charge
C1    C     C_R   0.498692 0.329850 0.499130 0.541656
C2    C     C_R   0.568391 0.811754 0.434768 -0.127926
C3    C     C_R   0.495176 0.233010 0.497816 0.013990
C4    C     C_R   0.499388 0.765563 0.501811 0.022713
C5    C     C_R   0.508181 0.184947 0.411648 -0.137674
C6    C     C_R   0.426936 0.811200 0.567168 -0.142361
C7    C     C_R   0.504269 0.092914 0.411231 -0.130540
C8    C     C_R   0.421957 0.902890 0.564440 -0.131902
C9    C     C_R   0.491100 0.047527 0.497524 0.036750
C10   C     C_R   0.492586 0.950080 0.498262 0.031048
C11   C     C_R   0.557937 0.568903 0.111746 -0.138902
C12   C     C_R   0.500065 0.669674 0.500807 0.539774
C13   C     C_R   0.489285 0.419082 0.889474 -0.126823
C14   C     C_R   0.556353 0.567567 0.212309 0.029769
C15   C     C_R   0.483407 0.422314 0.788480 0.019231
C16   C     C_R   0.262410 0.502460 0.499049 0.536379
C17   C     C_R   0.737835 0.498881 0.500837 0.535659
C18   C     C_R   0.445462 0.430851 0.206852 0.296752
C19   C     C_R   0.519768 0.576690 0.795921 0.278410
C20   C     C_R   0.453737 0.427677 0.105744 -0.095672
C21   C     C_R   0.517939 0.575947 0.896741 -0.122552
C22   C     C_R   0.507917 0.497451 0.055640 0.033166
C23   C     C_R   0.871965 0.498735 0.502157 -0.005674
C24   C     C_R   0.506391 0.497021 0.946358 0.018900
C25   C     C_R   0.246937 0.651870 0.231598 0.148588
C26   C     C_R   0.779910 0.349794 0.777577 0.147480
C27   C     C_R   0.192203 0.627890 0.318032 -0.074516
C28   C     C_R   0.820766 0.375992 0.687499 -0.109628
C29   C     C_R   0.115707 0.552740 0.322289 -0.029858
C30   C     C_R   0.887842 0.455108 0.678364 -0.012153
C31   C     C_R   0.092528 0.501608 0.239047 -0.160804
C32   C     C_R   0.914396 0.508009 0.759936 -0.168361
C33   C     C_R   0.144707 0.523181 0.150901 0.154866
C34   C     C_R   0.128634 0.505176 0.497259 -0.006409
C35   C     C_R   0.873705 0.483891 0.850898 0.127316
C36   C     C_R   0.219623 0.601438 0.146301 0.309903
C37   C     C_R   0.807190 0.402608 0.860053 0.350030
C38   C     C_R   0.932480 0.521501 0.417800 -0.153086
C39   C     C_R   0.068208 0.483098 0.581392 -0.152963
C40   C     C_3   0.205509 0.695943 0.022051 -0.015350
C41   C     C_3   0.258367 0.718805 0.924511 -0.263864
C42   C     C_3   0.182641 0.787973 0.874317 -0.493389
C43   C     C_3   0.851306 0.347294 0.008430 0.010964
C44   C     C_3   0.794770 0.281182 0.077276 -0.265675
C45   C     C_R   0.941284 0.479552 0.585362 -0.019048
C46   C     C_3   0.889682 0.248613 0.148725 -0.497428
C47   C     C_3   0.344685 0.281192 0.208162 -0.354670
C48   C     C_3   0.669887 0.683172 0.742361 -0.279437
C49   C     C_3   0.299355 0.807153 0.270227 -0.325630
C50   C     C_3   0.782640 0.192621 0.800543 -0.313388
C51   C     C_3   0.175205 0.469600 0.979061 -0.246227
C52   C     C_3   0.814515 0.574832 0.989604 -0.299130
C53   C     C_R   0.059839 0.526045 0.414160 -0.021590
C54   C     C_R   0.478602 0.096047 0.583652 -0.122502
C55   C     C_R   0.566555 0.903501 0.433916 -0.129532
C56   C     C_R   0.478306 0.187769 0.583450 -0.140395
Cu1   Cu    Cu3+1 0.500000 0.499990 0.596430 0.950529
Cu2   Cu    Cu3+1 0.500000 0.500010 0.403570 0.956000
H1    H     H_    0.511424 0.057548 0.343275 0.092963
H2    H     H_    0.801476 0.334075 0.624768 0.115625
H3    H     H_    0.034048 0.443034 0.243275 0.107930
H4    H     H_    0.968113 0.568590 0.752430 0.103797
H5    H     H_    0.880316 0.538041 0.354205 0.133066
H6    H     H_    0.120242 0.466342 0.645009 0.135955
H7    H     H_    0.470540 0.063474 0.651658 0.097798
H8    H     H_    0.624274 0.937725 0.383643 0.097532
H9    H     H_    0.465011 0.223062 0.650636 0.104340
H10   H     H_    0.625132 0.776846 0.384073 0.109385
H11   H     H_    0.521822 0.218300 0.344690 0.140798
H12   H     H_    0.361759 0.936489 0.613440 0.098402
H13   H     H_    0.371790 0.775783 0.618367 0.117319
H14   H     H_    0.212230 0.756161 0.069241 0.134014
H15   H     H_    0.107088 0.676513 0.012584 0.126629
H16   H     H_    0.353663 0.744885 0.934827 0.152051
H17   H     H_    0.260651 0.658317 0.877881 0.165770
H18   H     H_    0.087713 0.762279 0.860884 0.138056
H19   H     H_    0.224434 0.803635 0.804402 0.140195
H20   H     H_    0.180135 0.849659 0.918962 0.140905
H21   H     H_    0.888727 0.404394 0.051488 0.182526
H22   H     H_    0.927521 0.314942 0.969591 0.109596
H23   H     H_    0.601151 0.625522 0.079453 0.072675
H24   H     H_    0.719791 0.313177 0.117321 0.174966
H25   H     H_    0.755047 0.223619 0.035643 0.168186
H26   H     H_    0.927401 0.304750 0.193461 0.142708
H27   H     H_    0.965510 0.216181 0.110344 0.135691
H28   H     H_    0.845962 0.199828 0.196588 0.147358
H29   H     H_    0.304178 0.390243 0.294168 0.278860
H30   H     H_    0.273347 0.289840 0.151812 0.123380
H31   H     H_    0.307359 0.234752 0.261543 0.144499
H32   H     H_    0.427661 0.251732 0.176748 0.138353
H33   H     H_    0.493132 0.710358 0.782765 0.212202
H34   H     H_    0.481260 0.354949 0.921669 0.114741
H35   H     H_    0.712261 0.700465 0.813252 0.096441
H36   H     H_    0.678102 0.741751 0.696098 0.137436
H37   H     H_    0.719866 0.628145 0.708062 0.188300
H38   H     H_    0.388982 0.726920 0.171355 0.270548
H39   H     H_    0.217285 0.829884 0.230816 0.120544
H40   H     H_    0.374810 0.856812 0.262203 0.139734
H41   H     H_    0.279600 0.803334 0.347818 0.159443
H42   H     H_    0.648813 0.259619 0.729274 0.238916
H43   H     H_    0.721013 0.134144 0.810079 0.134114
H44   H     H_    0.840912 0.201476 0.865945 0.151707
H45   H     H_    0.599361 0.621679 0.253206 0.123468
H46   H     H_    0.841517 0.179893 0.737608 0.126933
H47   H     H_    0.097564 0.399599 0.090197 0.221132
H48   H     H_    0.138226 0.415985 0.930345 0.105550
H49   H     H_    0.273980 0.461435 0.986716 0.169536
H50   H     H_    0.156614 0.532641 0.944540 0.185526
H51   H     H_    0.973426 0.587221 0.915723 0.231275
H52   H     H_    0.856180 0.614223 0.050384 0.119790
H53   H     H_    0.757689 0.521841 0.020312 0.206357
H54   H     H_    0.757493 0.618892 0.946381 0.126895
H55   H     H_    0.467039 0.361139 0.748871 0.122644
H56   H     H_    0.410939 0.373231 0.065948 0.079778
H57   H     H_    0.527350 0.638574 0.935211 0.090852
H58   H     H_    0.213151 0.665315 0.383529 0.121924
N1    N     N_R   0.500000 0.500020 0.258690 -0.214875
N2    N     N_R   0.500000 0.499980 0.741310 -0.204013
N3    N     N_2   0.375285 0.365242 0.255454 -0.473367
N4    N     N_2   0.541902 0.659334 0.752849 -0.466371
N5    N     N_2   0.336605 0.722268 0.231992 -0.508737
N6    N     N_2   0.710098 0.269914 0.785381 -0.494044
N7    N     N_2   0.116911 0.463920 0.071176 -0.513502
N8    N     N_2   0.910005 0.538491 0.931740 -0.511495
O1    O     O_R   0.500010 0.371450 0.581430 -0.531062
O2    O     O_3   0.758368 0.376580 0.946279 -0.563510
O3    O     O_R   0.499990 0.628550 0.418570 -0.505098
O4    O     O_R   0.500010 0.371460 0.418560 -0.475701
O5    O     O_R   0.499990 0.628540 0.581440 -0.464097
O6    O     O_R   0.319640 0.500000 0.581430 -0.509767
O7    O     O_R   0.680360 0.500000 0.418570 -0.516222
O8    O     O_R   0.319640 0.500010 0.418560 -0.506211
O9    O     O_R   0.680360 0.499990 0.581440 -0.495327
O10   O     O_3   0.272363 0.625990 0.061103 -0.588528

loop_
_geom_bond_atom_site_label_1
_geom_bond_atom_site_label_2
_ccdc_geom_bond_type
C30   C32   A    
Cu2   O4    S    
C23   C45   A    
C48   H37   S    
C17   O7    A    
C51   N7    S    
C41   C42   S    
C31   H3    S    
C30   C45   S    
C50   N6    S    
C1    O4    A    
C21   H57   S    
C44   H25   S    
C42   H18   S    
C14   H45   S    
C48   N4    S    
C12   O3    A    
C11   H23   S    
C50   H46   S    
C39   H6    S    
C17   C23   S    
C48   H36   S    
H38   N5    S    
Cu1   O5    S    
C35   N8    S    
C35   C37   A    
C1    O1    A    
C38   H5    S    
C2    H10   S    
C2    C55   A    
Cu1   O1    S    
C11   C14   A    
C27   C29   A    
C52   H54   S    
C43   H21   S    
C33   C36   A    
C8    H12   S    
H47   N7    S    
C7    H1    S    
C5    H11   S    
C16   C34   S    
C41   H16   S    
C19   N2    A    
Cu2   O8    S    
C51   H50   S    
C15   H55   S    
C4    C12   S    
C16   O6    A    
C9    C10   S    
C18   C20   A    
C39   C45   A    
C46   H27   S    
C27   H58   S    
C47   N3    S    
C49   H40   S    
Cu2   O3    S    
C47   H31   S    
Cu1   O9    S    
C43   O2    S    
C54   H7    S    
C44   C46   S    
C28   H2    S    
C6    H13   S    
C54   C56   A    
C48   H35   S    
C34   C39   A    
C32   C35   A    
Cu1   O6    S    
C4    C6    A    
C12   O5    A    
C49   H41   S    
C5    C7    A    
C6    C8    A    
C52   H53   S    
C43   H22   S    
C40   O10   S    
Cu2   N1    S    
C13   C24   A    
C1    C3    S    
C2    C4    A    
C43   C44   S    
H29   N3    S    
C41   H17   S    
C3    C56   A    
C52   H52   S    
Cu2   O7    S    
C14   N1    A    
C49   N5    S    
C31   C33   A    
C26   C37   A    
C10   C55   A    
C18   N1    A    
C34   C53   A    
C46   H26   S    
C51   H49   S    
C40   C41   S    
C20   C22   A    
C19   N4    S    
C50   H44   S    
C13   C15   A    
C13   H34   S    
C17   O9    A    
C47   H32   S    
C22   C24   S    
C23   C38   A    
C55   H8    S    
C37   O2    S    
C7    C9    A    
C40   H14   S    
C19   C21   A    
C26   C28   A    
C3    C5    A    
C36   O10   S    
H51   N8    S    
C42   H20   S    
C25   C27   A    
C56   H9    S    
C11   C22   A    
C44   H24   S    
C15   N2    A    
C50   H43   S    
C47   H30   S    
C28   C30   A    
C32   H4    S    
C29   C31   A    
C20   H56   S    
C52   N8    S    
Cu1   Cu2   S    
C38   C53   A    
C29   C53   S    
C51   H48   S    
H42   N6    S    
C16   O8    A    
C25   C36   A    
C49   H39   S    
C42   H19   S    
C8    C10   A    
C21   C24   A    
C33   N7    S    
H33   N4    S    
C9    C54   A    
C26   N6    S    
C40   H15   S    
C25   N5    S    
C18   N3    S    
Cu1   N2    S    
C46   H28   S    
