data_mof_unit_47938.cif
_audit_creation_date              2012-12-10T20:52:41-0500
_audit_creation_method            fapswitch 2.2
_symmetry_space_group_name_H-M    P1
_symmetry_Int_Tables_number       1
_space_group_crystal_system       triclinic
_cell_length_a                    8.638802
_cell_length_b                    15.676357
_cell_length_c                    15.055629
_cell_angle_alpha                 90.467918
_cell_angle_beta                  98.679236
_cell_angle_gamma                 89.23968
_cell_volume                      2015.34279711

loop_
_atom_site_label
_atom_site_type_symbol
_atom_type_description
_atom_site_fract_x
_atom_site_fract_y
_atom_site_fract_z
_atom_type_partial_charge
C1    C     C_R   0.502694 0.338283 0.499959 0.847910
C2    C     C_R   0.498064 0.661717 0.500272 0.905871
C3    C     C_R   0.502248 0.499497 0.905263 -0.088703
C4    C     C_R   0.500391 0.500412 0.095033 -0.094789
C5    C     C_R   0.457150 0.573002 0.949551 -0.361054
C6    C     C_R   0.545273 0.426880 0.050767 -0.361165
C7    C     C_1   0.501100 0.499773 0.807274 0.130104
C8    C     C_1   0.499805 0.499994 0.192830 0.123396
C9    C     C_R   0.201451 0.495280 0.476812 0.892563
C10   C     C_R   0.798982 0.496038 0.522857 0.887137
C11   C     C_2   0.037911 0.486580 0.462715 0.117558
C12   C     C_2   0.962229 0.482558 0.534867 0.127540
C13   C     C_R   0.539473 0.960029 0.592521 -0.056873
C14   C     C_R   0.645353 0.040688 0.445249 -0.055620
C15   C     C_R   0.576518 0.912731 0.518303 -0.111363
C16   C     C_R   0.601444 0.087897 0.517560 -0.115197
C17   C     C_R   0.643963 0.951495 0.449369 0.445775
C18   C     C_R   0.567840 0.047705 0.595342 0.452159
C19   C     C_1   0.541069 0.824792 0.509690 0.010566
C20   C     C_1   0.567402 0.176426 0.508705 0.010360
C21   C     C_1   0.534705 0.250237 0.502919 -0.200818
C22   C     C_1   0.516714 0.750457 0.503660 -0.197155
C23   C     C_R   0.546704 0.425977 0.956859 0.517950
C24   C     C_R   0.460259 0.574794 0.044084 0.537595
H1    H     H_    0.579969 0.369795 0.089121 0.176641
H2    H     H_    0.419792 0.629484 0.910718 0.167513
N1    N     N_1   0.499960 0.500020 0.270540 -0.089155
N2    N     N_1   0.500040 0.499980 0.729460 -0.087602
O1    O     O_R   0.500000 0.378020 0.573650 -0.613870
O2    O     O_R   0.500000 0.621980 0.426350 -0.599803
O3    O     O_R   0.500070 0.378020 0.426320 -0.627682
O4    O     O_R   0.499930 0.621980 0.573680 -0.612546
O5    O     O_R   0.271720 0.500000 0.556430 -0.579772
O6    O     O_R   0.728280 0.500000 0.443570 -0.589636
O7    O     O_R   0.271790 0.500000 0.409110 -0.599562
O8    O     O_R   0.728210 0.500000 0.590890 -0.595221
Zn1   Zn    Zn3+2 0.499950 0.500000 0.598370 0.987909
Zn2   Zn    Zn3+2 0.500050 0.500000 0.401630 0.978345
O9    O     O_3   0.962728 0.493214 0.374593 -0.618698
C25   C     C_3   0.959685 0.411806 0.333098 0.106360
H3    H     H_    0.862800 0.374032 0.353493 0.139564
H4    H     H_    0.071843 0.375382 0.351225 0.111829
C26   C     C_3   0.931624 0.423205 0.231204 -0.281161
H5    H     H_    0.821990 0.460501 0.211301 0.222210
H6    H     H_    0.030102 0.459450 0.210754 0.232559
C27   C     C_3   0.919102 0.337454 0.182125 -0.995507
H7    H     H_    0.029226 0.299835 0.199543 0.266771
H8    H     H_    0.898480 0.348146 0.108433 0.284633
H9    H     H_    0.819801 0.300710 0.200538 0.257173
O10   O     O_3   0.037753 0.469496 0.621956 -0.616138
C28   C     C_3   0.034863 0.381453 0.640784 0.104506
H10   H     H_    0.110181 0.345275 0.599290 0.117850
H11   H     H_    0.913184 0.356380 0.626963 0.122394
C29   C     C_3   0.097506 0.367421 0.740001 -0.268614
H12   H     H_    0.221554 0.387694 0.754359 0.213137
H13   H     H_    0.027864 0.406747 0.781797 0.236639
C30   C     C_3   0.086687 0.273907 0.765083 -1.028685
H14   H     H_    0.963613 0.252505 0.749211 0.272809
H15   H     H_    0.125557 0.265846 0.838193 0.270325
H16   H     H_    0.162141 0.233614 0.727713 0.273147
O11   O     O_3   0.543493 0.095203 0.670310 -0.651719
C31   C     C_3   0.689493 0.123399 0.716463 0.089785
H17   H     H_    0.666878 0.181790 0.754957 0.176096
H18   H     H_    0.772829 0.142307 0.670476 0.126141
C32   C     C_3   0.765253 0.055451 0.782623 -0.394657
H19   H     H_    0.685276 0.041489 0.831809 0.232928
H20   H     H_    0.785538 0.995787 0.745538 0.212804
C33   C     C_3   0.922218 0.084475 0.833320 -0.965650
H21   H     H_    0.007060 0.093689 0.785768 0.278604
H22   H     H_    0.970278 0.034898 0.882505 0.270340
H23   H     H_    0.907708 0.144925 0.870293 0.270057
O12   O     O_3   0.686602 0.903552 0.378770 -0.644965
C34   C     C_3   0.823642 0.854378 0.408200 0.097563
H24   H     H_    0.809463 0.791319 0.373985 0.183296
H25   H     H_    0.844333 0.841168 0.481819 0.122542
C35   C     C_3   0.967861 0.897885 0.382294 -0.404111
H26   H     H_    0.946248 0.914216 0.309738 0.237148
H27   H     H_    0.989905 0.957779 0.421935 0.206593
C36   C     C_3   0.112926 0.840215 0.400456 -0.925866
H28   H     H_    0.134402 0.820537 0.471980 0.258385
H29   H     H_    0.216801 0.875097 0.385276 0.273804
H30   H     H_    0.097569 0.782258 0.357267 0.271163
C37   C     C_3   0.461875 0.919967 0.666092 -0.339135
C38   C     C_3   0.287553 0.944843 0.655268 -0.316356
C39   C     C_3   0.207526 0.905138 0.728332 -0.908465
H31   H     H_    0.216042 0.834441 0.725189 0.266692
H32   H     H_    0.262804 0.927692 0.795706 0.268149
H33   H     H_    0.081833 0.924191 0.718335 0.253801
H34   H     H_    0.273780 0.015307 0.658976 0.249954
H35   H     H_    0.228011 0.923073 0.588552 0.219479
H36   H     H_    0.473294 0.849378 0.665783 0.197470
H37   H     H_    0.520924 0.941112 0.733006 0.206449
C40   C     C_3   0.684194 0.084295 0.361804 -0.345659
C41   C     C_3   0.539350 0.088896 0.289204 -0.291498
C42   C     C_3   0.573640 0.136552 0.206519 -0.928906
H38   H     H_    0.605337 0.203581 0.224487 0.258160
H39   H     H_    0.671067 0.104813 0.178041 0.266819
H40   H     H_    0.467726 0.136958 0.154555 0.257441
H41   H     H_    0.500683 0.023311 0.268785 0.243624
H42   H     H_    0.442089 0.122371 0.316335 0.217157
H43   H     H_    0.728706 0.149619 0.378256 0.185600
H44   H     H_    0.780096 0.049287 0.335241 0.210043
O13   O     O_3   0.599611 0.354005 0.916490 -0.649732
C43   C     C_3   0.478825 0.293109 0.900423 0.057423
H45   H     H_    0.448665 0.284462 0.826519 0.178118
H46   H     H_    0.368569 0.311642 0.926593 0.127717
C44   C     C_3   0.538240 0.208120 0.942432 -0.333723
H47   H     H_    0.649821 0.189704 0.918872 0.235071
H48   H     H_    0.561556 0.215431 0.016695 0.220100
C45   C     C_3   0.419201 0.137450 0.917703 -0.969614
H49   H     H_    0.307469 0.153710 0.942327 0.267523
H50   H     H_    0.465956 0.076765 0.949234 0.261984
H51   H     H_    0.396348 0.128066 0.843661 0.289843
O14   O     O_3   0.413308 0.647423 0.086399 -0.641024
C46   C     C_3   0.525790 0.712422 0.086750 0.065558
H52   H     H_    0.467063 0.774109 0.098400 0.177008
H53   H     H_    0.569353 0.718562 0.021118 0.124635
C47   C     C_3   0.663262 0.699187 0.162997 -0.344267
H54   H     H_    0.618187 0.694612 0.228151 0.246337
H55   H     H_    0.726400 0.638791 0.151663 0.213189
C48   C     C_3   0.778584 0.772570 0.167903 -0.930415
H56   H     H_    0.879752 0.759387 0.220934 0.270507
H57   H     H_    0.822855 0.779374 0.102814 0.262305
H58   H     H_    0.721177 0.833258 0.184484 0.277952

loop_
_geom_bond_atom_site_label_1
_geom_bond_atom_site_label_2
_ccdc_geom_bond_type
C1    C21   S    
C40   C41   S    
C44   H48   S    
C34   H24   S    
C29   H12   S    
C3    C23   A    
C42   H38   S    
C35   C36   S    
C4    C8    S    
C43   H46   S    
O14   C46   S    
C42   H40   S    
C39   H31   S    
C15   C19   S    
C37   H37   S    
C27   H9    S    
C13   C18   A    
C41   H41   S    
O8    Zn1   S    
C35   H27   S    
C3    C7    S    
C4    C24   A    
C30   H15   S    
C6    H1    S    
N1    Zn2   S    
C46   H52   S    
C1    O3    A    
O2    Zn2   S    
C2    O4    A    
C47   H54   S    
C48   H58   S    
C31   H18   S    
C45   H50   S    
C45   H49   S    
C25   C26   S    
C23   O13   S    
C33   H21   S    
C32   H20   S    
C2    C22   S    
C44   H47   S    
C14   C40   S    
C32   C33   S    
C25   H4    S    
C9    O5    A    
C34   H25   S    
C14   C17   A    
C41   C42   S    
C38   H35   S    
C43   H45   S    
C29   H13   S    
C39   H32   S    
C27   H8    S    
C28   H10   S    
C19   C22   T    
C35   H26   S    
C4    C6    A    
C40   H43   S    
O9    C25   S    
C36   H29   S    
C30   H16   S    
C46   H53   S    
O5    Zn1   S    
C7    N2    T    
C5    H2    S    
C28   H11   S    
C47   C48   S    
C26   H5    S    
C31   H17   S    
C26   H6    S    
C37   C38   S    
C41   H42   S    
C16   C20   S    
C46   C47   S    
O7    Zn2   S    
C1    O1    A    
O10   C28   S    
C10   O6    A    
O4    Zn1   S    
C38   C39   S    
C11   O9    S    
C9    C11   S    
C45   H51   S    
C48   H56   S    
C10   C12   S    
C16   C18   A    
C25   H3    S    
C13   C15   A    
C44   C45   S    
C14   C16   A    
C38   H34   S    
C39   H33   S    
C15   C17   A    
C27   H7    S    
C31   C32   S    
O6    Zn2   S    
O12   C34   S    
C3    C5    A    
C40   H44   S    
C36   H30   S    
C12   O10   S    
C11   C12   D    
C42   H39   S    
C18   O11   S    
C37   H36   S    
C13   C37   S    
O3    Zn2   S    
C2    O2    A    
C28   C29   S    
C30   H14   S    
C5    C24   A    
N2    Zn1   S    
C33   H23   S    
C6    C23   A    
C34   C35   S    
O11   C31   S    
C26   C27   S    
C47   H55   S    
C48   H57   S    
C36   H28   S    
C20   C21   T    
C17   O12   S    
C33   H22   S    
C32   H19   S    
O1    Zn1   S    
O13   C43   S    
C9    O7    A    
C8    N1    T    
C24   O14   S    
C10   O8    A    
C43   C44   S    
C29   C30   S    
