data_mof_unit_37083.cif
_audit_creation_date              2012-10-26T20:40:17-0400
_audit_creation_method            fapswitch 2.2
_symmetry_space_group_name_H-M    P1
_symmetry_Int_Tables_number       1
_space_group_crystal_system       triclinic
_cell_length_a                    15.135338
_cell_length_b                    10.772984
_cell_length_c                    9.601807
_cell_angle_alpha                 89.984329
_cell_angle_beta                  89.940582
_cell_angle_gamma                 92.764704
_cell_volume                      1563.77785709

loop_
_atom_site_label
_atom_site_type_symbol
_atom_type_description
_atom_site_fract_x
_atom_site_fract_y
_atom_site_fract_z
_atom_type_partial_charge
C1    C     C_R   0.497389 0.262586 0.499959 0.525718
C2    C     C_R   0.185199 0.480670 0.378028 -0.163120
C3    C     C_R   0.232254 0.503884 0.501503 -0.009632
C4    C     C_R   0.328874 0.501004 0.500324 0.543532
C5    C     C_R   0.186794 0.529640 0.625355 0.416256
C6    C     C_R   0.351093 0.119246 0.631231 -0.036318
C7    C     C_R   0.282934 0.049680 0.696728 0.421146
C8    C     C_R   0.283711 0.920557 0.698657 -0.070004
C9    C     C_R   0.352445 0.860316 0.634760 -0.157202
C10   C     C_R   0.422795 0.929019 0.569153 0.003169
C11   C     C_R   0.422347 0.060241 0.568149 -0.039857
C12   C     C_R   0.908283 0.526915 0.625257 -0.039543
C13   C     C_R   0.491740 0.128377 0.499491 0.012888
C14   C     C_R   0.557201 0.068008 0.427277 -0.122557
C15   C     C_R   0.557293 0.939897 0.427283 -0.139886
C16   C     C_R   0.497818 0.737109 0.499995 0.506004
C17   C     C_R   0.492119 0.870487 0.499960 0.029095
C18   C     C_R   0.617239 0.666097 0.143875 -0.021064
C19   C     C_R   0.673954 0.748211 0.071666 -0.109693
C20   C     C_R   0.673430 0.749010 0.928159 -0.072266
C21   C     C_R   0.616376 0.667427 0.855999 -0.006110
C22   C     C_R   0.557324 0.582112 0.925167 0.111465
C23   C     C_R   0.954767 0.456026 0.251935 0.479699
C24   C     C_R   0.557524 0.581771 0.074703 0.152391
C25   C     C_R   0.445019 0.422573 0.074157 0.056282
C26   C     C_R   0.444948 0.422531 0.926351 0.525413
C27   C     C_R   0.671435 0.499951 0.499906 0.567009
C28   C     C_R   0.815850 0.523841 0.624214 0.350874
C29   C     C_R   0.768780 0.500550 0.499842 -0.031594
C30   C     C_R   0.814980 0.478128 0.375654 0.347820
C31   C     C_R   0.907587 0.479300 0.375099 0.028465
C32   C     C_R   0.954284 0.503995 0.500513 -0.175657
C33   C     C_R   0.046730 0.457096 0.253489 -0.044381
C34   C     C_R   0.093243 0.481136 0.377050 -0.041313
C35   C     C_R   0.047284 0.505113 0.501313 -0.073941
C36   C     C_R   0.094286 0.529814 0.626238 -0.006422
C37   C     C_R   0.047692 0.553853 0.749260 0.442280
C38   C     C_R   0.955780 0.552411 0.748797 0.477538
Cu1   Cu    Cu3+1 0.499990 0.499990 0.640660 1.081027
Cu2   Cu    Cu3+1 0.500010 0.500010 0.359340 0.981705
F1    F     F_    0.771791 0.543597 0.744777 -0.553986
F2    F     F_    0.215131 0.107829 0.756766 -0.571531
F3    F     F_    0.769785 0.453130 0.255800 -0.530848
F4    F     F_    0.387977 0.343146 0.858233 -0.584317
F5    F     F_    0.912616 0.431478 0.129559 -0.479145
F6    F     F_    0.232544 0.555708 0.744457 -0.548273
F7    F     F_    0.090485 0.578408 0.871203 -0.523198
F8    F     F_    0.913837 0.576720 0.870197 -0.466612
H1    H     H_    0.220088 0.460949 0.282434 0.163633
H2    H     H_    0.622404 0.674457 0.746185 0.190818
H3    H     H_    0.081662 0.438667 0.157631 0.197202
H4    H     H_    0.609515 0.120584 0.372956 0.153080
H5    H     H_    0.346358 0.219001 0.627995 0.193050
H6    H     H_    0.230239 0.866608 0.748166 0.190936
H7    H     H_    0.348801 0.759930 0.635334 0.180549
H8    H     H_    0.609634 0.894623 0.372844 0.109012
H9    H     H_    0.399912 0.359155 0.129614 0.146944
H10   H     H_    0.623308 0.672945 0.253639 0.173491
H11   H     H_    0.718779 0.811576 0.127797 0.137129
H12   H     H_    0.718006 0.812795 0.871950 0.155269
N1    N     N_R   0.500860 0.501210 0.147910 -0.285283
N2    N     N_R   0.500890 0.501290 0.852040 -0.241213
O1    O     O_R   0.499990 0.319640 0.618810 -0.460875
O2    O     O_R   0.500000 0.319660 0.381240 -0.503492
O3    O     O_R   0.370250 0.499960 0.618800 -0.398207
O4    O     O_R   0.370260 0.499980 0.381230 -0.527764
O5    O     O_R   0.500000 0.680340 0.618760 -0.551204
O6    O     O_R   0.500010 0.680360 0.381190 -0.530327
O7    O     O_R   0.629740 0.500020 0.618770 -0.469751
O8    O     O_R   0.629750 0.500040 0.381200 -0.464300

loop_
_geom_bond_atom_site_label_1
_geom_bond_atom_site_label_2
_ccdc_geom_bond_type
C23   C31   A    
C22   N2    A    
C1    O2    A    
C24   N1    A    
C23   F5    S    
C2    H1    S    
C13   C14   A    
C37   F7    S    
Cu1   O1    S    
C9    C10   A    
Cu2   O8    S    
C38   F8    S    
C31   C32   A    
C27   O7    A    
C30   C31   A    
C15   H8    S    
C2    C34   A    
C33   C34   A    
C26   N2    A    
C26   F4    S    
C7    C8    A    
C16   O5    A    
Cu2   O4    S    
C21   C22   A    
C12   C32   A    
C4    O4    A    
Cu1   O3    S    
C29   C30   A    
C27   O8    A    
C25   H9    S    
C12   C28   A    
C16   O6    A    
C1    O1    A    
C22   C24   A    
C36   C37   A    
C37   C38   A    
C2    C3    A    
C6    C7    A    
C21   H2    S    
Cu1   O7    S    
C9    H7    S    
C34   C35   A    
C18   C24   A    
C30   F3    S    
C5    C36   A    
C12   C38   A    
C27   C29   S    
C10   C11   A    
Cu2   N1    S    
C10   C17   A    
C3    C4    S    
Cu1   Cu2   S    
C32   C35   A    
C3    C5    A    
C28   F1    S    
C11   C13   A    
C1    C13   S    
C20   C21   A    
C18   C19   A    
Cu2   O6    S    
C7    F2    S    
C8    H6    S    
C6    C11   A    
C15   C17   A    
Cu1   N2    S    
C4    O3    A    
C28   C29   A    
C25   N1    A    
C6    H5    S    
C19   H11   S    
C25   C26   A    
C14   C15   A    
C5    F6    S    
Cu1   O5    S    
C18   H10   S    
C14   H4    S    
C33   H3    S    
C19   C20   A    
C16   C17   S    
C20   H12   S    
C8    C9    A    
C23   C33   A    
C35   C36   A    
Cu2   O2    S    
