data_mof_unit_46438.cif
_audit_creation_date              2013-03-05T16:06:16-0500
_audit_creation_method            fapswitch 2.2
_symmetry_space_group_name_H-M    P1
_symmetry_Int_Tables_number       1
_space_group_crystal_system       triclinic
_cell_length_a                    10.857194
_cell_length_b                    9.605986
_cell_length_c                    27.74241
_cell_angle_alpha                 89.999971
_cell_angle_beta                  93.656665
_cell_angle_gamma                 89.99953
_cell_volume                      2887.47790463

loop_
_atom_site_label
_atom_site_type_symbol
_atom_site_description
_atom_site_fract_x
_atom_site_fract_y
_atom_site_fract_z
_atom_type_partial_charge
O1    O     O_R   0.319640 0.618740 0.500000 -0.562915
O2    O     O_R   0.680360 0.381260 0.500000 -0.569089
O3    O     O_R   0.680360 0.618740 0.500000 -0.562830
O4    O     O_R   0.319640 0.381260 0.500000 -0.568976
C1    C     C_R   0.262423 0.500009 0.500863 0.807709
C2    C     C_R   0.737577 0.500008 0.499137 0.807679
O5    O     O_R   0.500020 0.618770 0.430260 -0.571420
O6    O     O_R   0.499980 0.381230 0.569740 -0.504146
O7    O     O_R   0.499980 0.618770 0.569740 -0.571472
O8    O     O_R   0.500020 0.381230 0.430260 -0.504211
C3    C     C_R   0.505927 0.499693 0.407562 0.877119
C4    C     C_R   0.494080 0.499689 0.592437 0.877179
Cu1   Cu    Cu3+1 0.500000 0.640660 0.500000 1.063337
Cu2   Cu    Cu3+1 0.500000 0.359340 0.500000 1.110812
C5    C     C_R   0.416377 0.506557 0.176682 0.671850
C6    C     C_R   0.583555 0.506296 0.823312 0.671727
O9    O     O_2   0.314762 0.534276 0.200596 -0.476523
O10   O     O_2   0.685202 0.533856 0.799398 -0.476461
N1    N     N_R   0.527819 0.487955 0.201836 -0.437797
N2    N     N_R   0.472098 0.487812 0.798158 -0.437864
C7    C     C_R   0.632146 0.457450 0.178703 0.648146
C8    C     C_R   0.367742 0.457448 0.821292 0.648102
C9    C     C_R   0.549487 0.372698 0.280282 -0.191308
C10   C     C_R   0.450190 0.372660 0.719689 -0.191231
C11   C     C_R   0.544815 0.373605 0.330315 0.658830
C12   C     C_R   0.454923 0.373608 0.669658 0.658748
C13   C     C_R   0.513339 0.622878 0.328214 -0.296528
C14   C     C_R   0.486950 0.622796 0.671810 -0.296637
C15   C     C_R   0.519796 0.623686 0.277831 0.381948
C16   C     C_R   0.480470 0.623547 0.722188 0.382024
C17   C     C_R   0.534174 0.495822 0.253647 0.123318
C18   C     C_R   0.465750 0.495720 0.746347 0.123340
C19   C     C_R   0.513534 0.465399 0.101656 -0.051520
C20   C     C_R   0.486357 0.465321 0.898340 -0.051526
C21   C     C_R   0.407199 0.496173 0.126115 -0.125001
C22   C     C_R   0.592719 0.495953 0.873880 -0.124995
C23   C     C_R   0.295110 0.519404 0.099557 -0.152916
C24   C     C_R   0.704826 0.519091 0.900436 -0.152854
C25   C     C_R   0.627024 0.445899 0.128136 -0.064284
C26   C     C_R   0.372852 0.445926 0.871861 -0.064278
C27   C     C_R   0.520262 0.498235 0.354718 -0.245547
C28   C     C_R   0.479743 0.498207 0.645279 -0.245427
H1    H     H_    0.505555 0.720475 0.346782 0.261440
H2    H     H_    0.494988 0.720398 0.653271 0.261432
H3    H     H_    0.213556 0.550516 0.117381 0.229800
H4    H     H_    0.786407 0.550100 0.882610 0.229817
C29   C     C_R   0.383790 0.439158 0.973904 -0.004308
C30   C     C_R   0.616077 0.439056 0.026095 -0.004305
C31   C     C_R   0.609705 0.463949 0.975498 -0.054839
C32   C     C_R   0.390182 0.464087 0.024499 -0.054817
C33   C     C_R   0.493363 0.455360 0.949310 -0.020832
C34   C     C_R   0.506517 0.455398 0.050687 -0.020831
C35   C     C_R   0.273270 0.401124 0.946643 0.355114
C36   C     C_R   0.726567 0.400926 0.053358 0.355143
C37   C     C_R   0.268228 0.410376 0.896155 -0.178008
C38   C     C_R   0.731618 0.410214 0.103845 -0.178005
O11   O     O_2   0.259383 0.439376 0.795434 -0.482683
O12   O     O_2   0.740486 0.439255 0.204563 -0.482694
C39   C     C_R   0.286700 0.506219 0.049459 0.676306
C40   C     C_R   0.713221 0.505952 0.950535 0.676336
H5    H     H_    0.435538 0.275133 0.738072 0.213442
H6    H     H_    0.563920 0.275156 0.261879 0.213484
H7    H     H_    0.183010 0.384124 0.875745 0.226247
H8    H     H_    0.816814 0.383887 0.124256 0.226253
C41   C     C_R   0.063835 0.374018 0.501387 -0.099845
C42   C     C_R   0.936183 0.626080 0.498475 -0.102011
C43   C     C_R   0.936175 0.374013 0.498671 -0.099985
C44   C     C_R   0.063806 0.626083 0.501476 -0.102089
H9    H     H_    0.111284 0.275374 0.503574 0.214943
H10   H     H_    0.888912 0.724847 0.496023 0.212209
H11   H     H_    0.888734 0.275362 0.496532 0.214951
H12   H     H_    0.111066 0.724856 0.503893 0.212261
C45   C     C_R   0.871479 0.500043 0.498328 -0.057079
C46   C     C_R   0.128521 0.500048 0.501673 -0.057108
C47   C     C_R   0.421644 0.074253 0.468729 0.316212
C48   C     C_R   0.576983 0.926077 0.531794 0.290809
C49   C     C_R   0.578354 0.074252 0.531271 0.316136
C50   C     C_R   0.423020 0.926076 0.468207 0.290792
N3    N     N_R   0.500000 0.852070 0.500000 -0.322630
N4    N     N_R   0.500000 0.147930 0.500000 -0.318742
N5    N     N_R   0.334757 0.145477 0.436622 0.179646
O13   O     O_R   0.362727 0.168093 0.392474 -0.221341
O14   O     O_R   0.218711 0.140398 0.445326 -0.339843
N6    N     N_R   0.656492 0.855439 0.566769 0.181058
O15   O     O_R   0.632781 0.865015 0.611943 -0.285809
O16   O     O_R   0.769742 0.831605 0.556791 -0.328840
N7    N     N_R   0.665182 0.145478 0.563401 0.179632
O17   O     O_R   0.781259 0.140306 0.554743 -0.339795
O18   O     O_R   0.637104 0.168199 0.607532 -0.221491
N8    N     N_R   0.343508 0.855433 0.433229 0.181110
O19   O     O_R   0.230210 0.831805 0.443169 -0.328838
O20   O     O_R   0.367343 0.864794 0.388066 -0.285831
N9    N     N_R   0.512163 0.753972 0.252044 0.161508
O21   O     O_R   0.462326 0.862332 0.271169 -0.254698
O22   O     O_R   0.563391 0.768731 0.211209 -0.312464
N10   N     N_R   0.488462 0.753732 0.748011 0.161333
O23   O     O_R   0.539378 0.861696 0.729051 -0.254403
O24   O     O_R   0.436631 0.768848 0.788704 -0.312424
F1    F     F_    0.431707 0.252943 0.645384 -0.587262
F2    F     F_    0.567849 0.252864 0.354562 -0.587086
N11   N     N_R   0.172021 0.335093 0.968710 0.192162
O25   O     O_R   0.060132 0.346798 0.949321 -0.214748
O26   O     O_R   0.193328 0.247334 0.004009 -0.280021
N12   N     N_R   0.827767 0.334777 0.031297 0.192137
O27   O     O_R   0.939664 0.346389 0.050684 -0.214778
O28   O     O_R   0.806394 0.247014 0.996003 -0.280103
F3    F     F_    0.180040 0.547836 0.025591 -0.572656
F4    F     F_    0.819909 0.547489 0.974400 -0.572583

loop_
_geom_bond_atom_site_label_1
_geom_bond_atom_site_label_2
_geom_bond_distance
_ccdc_geom_bond_type
C42   C44   1.382815 A    
N7    O17   1.298869 A    
Cu1   N3    2.030802 S    
N9    O21   1.301679 A    
C13   C15   1.403969 A    
C48   N3    1.374023 A    
O3    C2    1.299687 A    
N1    C17   1.436612 S    
C48   N6    1.428377 S    
C8    O11   1.349507 S    
N12   O28   1.301646 A    
N5    O13   1.298808 A    
C50   N8    1.428461 S    
C19   C34   1.414460 A    
C30   C36   1.424618 A    
C20   C33   1.414441 A    
C19   C25   1.406252 A    
C31   C40   1.415920 A    
O1    C1    1.299689 A    
C32   C39   1.415921 A    
C36   N12   1.439210 S    
C21   C23   1.399738 A    
N6    O16   1.297811 A    
C44   C46   1.399634 A    
C14   C28   1.404576 A    
C1    C46   1.455409 S    
O7    Cu1   1.946163 S    
C4    C28   1.484121 S    
C5    N1    1.369356 A    
C9    H6    1.083214 S    
C35   N11   1.439220 S    
C41   C43   1.383260 A    
C37   H7    1.083247 S    
C32   C34   1.418848 A    
C38   H8    1.083239 S    
C43   C45   1.399384 A    
Cu2   N4    2.030802 S    
O6    C4    1.304065 A    
C16   C18   1.412859 A    
C47   N4    1.372260 A    
C20   C22   1.407336 A    
O3    Cu1   1.969490 S    
C44   H12   1.078724 S    
C12   F1    1.356064 S    
C29   C35   1.424619 A    
N11   O26   1.301647 A    
Cu1   Cu2   2.702356 S    
O2    C2    1.299837 A    
C5    C21   1.403597 A    
N12   O27   1.301671 A    
N5    O14   1.298814 A    
C29   C32   1.421239 A    
C35   C37   1.401057 A    
C36   C38   1.401049 A    
N11   O25   1.301666 A    
C48   C49   1.423533 A    
O8    Cu2   1.946162 S    
C11   C27   1.409145 A    
C50   N3    1.373989 A    
C47   N5    1.429764 S    
C29   C33   1.417245 A    
C31   C33   1.418851 A    
C42   C45   1.399635 A    
C14   H2    1.075582 S    
C39   F3    1.357014 S    
C41   C46   1.399382 A    
N10   O24   1.301268 A    
C9    C17   1.398862 A    
O5    C3    1.309261 A    
C10   C18   1.398899 A    
C13   C27   1.404579 A    
C11   F2    1.356032 S    
N8    O20   1.298543 A    
C25   C38   1.399583 A    
C7    C25   1.404801 A    
C30   C34   1.417241 A    
C6    N2    1.369359 A    
C26   C37   1.399593 A    
C8    C26   1.404835 A    
N10   O23   1.301899 A    
N6    O15   1.298624 A    
C23   C39   1.392789 A    
C10   H5    1.083246 S    
C24   C40   1.392770 A    
C6    O10   1.349646 S    
C30   C31   1.421228 A    
N2    C8    1.368740 A    
O8    C3    1.304112 A    
N7    O18   1.298864 A    
C20   C26   1.406255 A    
O1    Cu1   1.969493 S    
C23   H3    1.083361 S    
C12   C28   1.409191 A    
C2    C45   1.455405 S    
N2    C18   1.436617 S    
C49   N4    1.372259 A    
C5    O9    1.349650 S    
O6    Cu2   1.946163 S    
N1    C7    1.368736 A    
C10   C12   1.392252 A    
O4    C1    1.299837 A    
C40   F4    1.357017 S    
C22   C24   1.399739 A    
C7    O12   1.349511 S    
C15   C17   1.412967 A    
C6    C22   1.403588 A    
C15   N9    1.441329 S    
N8    O19   1.297686 A    
C42   H10   1.078754 S    
C41   H9    1.078413 S    
C14   C16   1.403873 A    
C19   C21   1.407340 A    
C3    C27   1.484161 S    
C43   H11   1.078408 S    
C9    C11   1.392211 A    
O4    Cu2   1.969490 S    
O2    Cu2   1.969493 S    
C47   C50   1.423547 A    
C24   H4    1.083368 S    
O7    C4    1.309282 A    
C16   N10   1.441071 S    
C13   H1    1.075633 S    
O5    Cu1   1.946163 S    
C49   N7    1.429748 S    
N9    O22   1.301239 A    
