data_mof_unit_13105.cif
_audit_creation_date              2012-10-26T19:24:20-0400
_audit_creation_method            fapswitch 2.2
_symmetry_space_group_name_H-M    P1
_symmetry_Int_Tables_number       1
_space_group_crystal_system       triclinic
_cell_length_a                    27.776493
_cell_length_b                    10.845764
_cell_length_c                    9.664285
_cell_angle_alpha                 86.015799
_cell_angle_beta                  88.15738
_cell_angle_gamma                 92.317158
_cell_volume                      2900.23938007

loop_
_atom_site_label
_atom_site_type_symbol
_atom_type_description
_atom_site_fract_x
_atom_site_fract_y
_atom_site_fract_z
_atom_type_partial_charge
Br1   Br    Br    0.350175 0.333818 0.750483 -0.507612
Br2   Br    Br    0.635007 0.775175 0.557338 -0.320361
Br3   Br    Br    0.750200 0.756246 0.652687 -0.270429
Br4   Br    Br    0.032440 0.926902 0.487351 -0.524559
Br5   Br    Br    0.551136 0.810037 0.816076 -0.368559
Br6   Br    Br    0.366672 0.682181 0.254398 -0.428312
C1    C     C_R   0.499047 0.261587 0.506199 0.585439
C2    C     C_R   0.970910 0.438157 0.581764 0.020895
C3    C     C_R   0.977021 0.647930 0.466807 0.034741
C4    C     C_R   0.407556 0.501732 0.501587 0.562626
C5    C     C_R   0.948715 0.543779 0.523287 0.036914
C6    C     C_R   0.941545 0.342620 0.651731 -0.118599
C7    C     C_R   0.891538 0.348743 0.657154 -0.073469
C8    C     C_R   0.869257 0.447326 0.587442 0.036896
C9    C     C_R   0.897856 0.543797 0.517745 -0.024166
C10   C     C_R   0.875700 0.639165 0.440520 0.034885
C11   C     C_R   0.825348 0.634082 0.430976 0.477084
C12   C     C_R   0.275617 0.457322 0.614773 -0.025933
C13   C     C_R   0.818897 0.451378 0.584286 0.469019
C14   C     C_R   0.722979 0.447107 0.419449 0.278615
C15   C     C_R   0.672717 0.439262 0.420241 -0.079345
C16   C     C_R   0.499367 0.738003 0.494029 0.573935
C17   C     C_R   0.668740 0.624949 0.543403 0.126588
C18   C     C_R   0.719024 0.628327 0.554721 0.188347
C19   C     C_R   0.746399 0.538346 0.493775 0.183387
C20   C     C_R   0.021554 0.431218 0.565986 0.019356
C21   C     C_R   0.049791 0.540095 0.523612 0.012767
C22   C     C_R   0.027470 0.652678 0.486850 0.027520
C23   C     C_R   0.253037 0.524209 0.507978 0.159589
C24   C     C_R   0.044885 0.318684 0.588306 -0.116955
C25   C     C_R   0.106903 0.759022 0.475580 -0.061935
C26   C     C_R   0.954260 0.738783 0.383814 -0.090620
C27   C     C_R   0.904406 0.734604 0.370949 -0.081753
C28   C     C_R   0.592312 0.506690 0.497072 0.610046
C29   C     C_R   0.056769 0.763973 0.473942 0.138335
C30   C     C_R   0.439888 0.085699 0.715064 0.254360
C31   C     C_R   0.394605 0.026285 0.746130 -0.028266
C32   C     C_R   0.383445 0.912304 0.694571 -0.108910
C33   C     C_R   0.417613 0.857500 0.613175 -0.051396
C34   C     C_R   0.100707 0.536335 0.519017 -0.035916
C35   C     C_R   0.460281 0.924663 0.566263 -0.020410
C36   C     C_R   0.467167 0.048431 0.599900 -0.050995
C37   C     C_R   0.501921 0.125851 0.520665 -0.049707
C38   C     C_R   0.535223 0.073345 0.432607 0.254240
C39   C     C_R   0.527578 0.951389 0.397827 0.244376
C40   C     C_R   0.173497 0.420426 0.528789 0.409999
C41   C     C_R   0.494412 0.872759 0.480005 -0.009646
C42   C     C_R   0.581035 0.608691 0.118151 -0.025298
C43   C     C_R   0.622187 0.635968 0.030880 0.216786
C44   C     C_R   0.616652 0.642705 0.888693 -0.078552
C45   C     C_R   0.123074 0.422857 0.540360 0.031038
C46   C     C_R   0.570132 0.641539 0.840877 0.185840
C47   C     C_R   0.536196 0.562942 0.916888 0.158497
C48   C     C_R   0.538345 0.556401 0.064953 0.121412
C49   C     C_R   0.462973 0.448384 0.081280 0.095721
C50   C     C_R   0.463135 0.448575 0.933891 0.096626
C51   C     C_R   0.179757 0.640489 0.493857 0.410085
C52   C     C_R   0.281476 0.585170 0.399789 -0.028958
C53   C     C_R   0.331708 0.581401 0.398944 0.098496
C54   C     C_R   0.325443 0.446290 0.611470 0.110055
C55   C     C_R   0.094731 0.314369 0.572778 -0.083890
C56   C     C_R   0.129265 0.645933 0.493710 -0.003058
C57   C     C_R   0.354475 0.509707 0.504238 0.015289
C58   C     C_R   0.645261 0.522420 0.489749 -0.024726
Cu1   Cu    Cu3+1 0.500000 0.499990 0.640660 1.094979
Cu2   Cu    Cu3+1 0.500000 0.500010 0.359340 1.105930
H1    H     H_    0.264507 0.636889 0.316195 0.190885
H2    H     H_    0.582382 0.639968 0.219032 0.227169
H3    H     H_    0.646414 0.680318 0.822670 0.210759
H4    H     H_    0.432701 0.408008 0.885278 0.195158
H5    H     H_    0.111020 0.225639 0.588775 0.192524
H6    H     H_    0.655113 0.369477 0.363780 0.232315
H7    H     H_    0.870368 0.273911 0.712736 0.191800
H8    H     H_    0.956578 0.263893 0.706698 0.134957
H9    H     H_    0.025116 0.231651 0.612204 0.156580
H10   H     H_    0.665779 0.107270 0.358907 0.396533
H11   H     H_    0.545793 0.129529 0.802593 0.373492
H12   H     H_    0.128358 0.845045 0.465494 0.205599
H13   H     H_    0.578977 0.015083 0.046710 0.397458
H14   H     H_    0.707715 0.759203 0.270105 0.409380
H15   H     H_    0.739665 0.227955 0.154060 0.392434
H16   H     H_    0.974868 0.809874 0.321341 0.180274
H17   H     H_    0.888495 0.806468 0.306101 0.188567
H18   H     H_    0.371524 0.056481 0.828512 0.194993
H19   H     H_    0.254100 0.410579 0.699621 0.190240
H20   H     H_    0.350050 0.862063 0.726908 0.154781
H21   H     H_    0.409457 0.765412 0.581431 0.139772
H22   H     H_    0.432630 0.404880 0.141395 0.159130
N1    N     N_R   0.201092 0.528557 0.509088 -0.391637
N2    N     N_R   0.797982 0.542018 0.503975 -0.369156
N3    N     N_R   0.500460 0.501210 0.147910 -0.235158
N4    N     N_R   0.500480 0.501290 0.852040 -0.239754
O1    O     O_R   0.500000 0.319640 0.618810 -0.442887
O2    O     O_R   0.569730 0.499970 0.618800 -0.481009
O3    O     O_R   0.569740 0.499990 0.381230 -0.511139
O4    O     O_2   0.194696 0.310459 0.536254 -0.470699
O5    O     O_2   0.587303 0.244276 0.270943 -0.227497
O6    O     O_2   0.604879 0.220684 0.518914 -0.325708
O7    O     O_3   0.635428 0.055966 0.360623 -0.392062
O8    O     O_2   0.438871 0.188140 0.959112 -0.277952
O9    O     O_2   0.478180 0.994670 0.944749 -0.177037
O10   O     O_3   0.524364 0.191719 0.838507 -0.454787
O11   O     O_2   0.597118 0.852307 0.251445 -0.212869
O12   O     O_2   0.791004 0.364963 0.659803 -0.413679
O13   O     O_2   0.515104 0.828486 0.165961 -0.233700
O14   O     O_3   0.559537 0.041298 0.126370 -0.391737
O15   O     O_2   0.710059 0.563997 0.088706 -0.193979
O16   O     O_2   0.702866 0.778865 0.999856 -0.197076
O17   O     O_3   0.675922 0.718528 0.255185 -0.485493
O18   O     O_2   0.800945 0.403102 0.260202 -0.235455
O19   O     O_2   0.767051 0.232743 0.418541 -0.221874
O20   O     O_3   0.720894 0.292373 0.196184 -0.476049
O21   O     O_2   0.207180 0.746509 0.480921 -0.477175
O22   O     O_2   0.803889 0.719966 0.349174 -0.432259
O23   O     O_R   0.500000 0.319660 0.381240 -0.460647
O24   O     O_R   0.430260 0.500010 0.618770 -0.502556
O25   O     O_R   0.430270 0.500030 0.381200 -0.488395
O26   O     O_R   0.500000 0.680340 0.618760 -0.477193
O27   O     O_R   0.500000 0.680360 0.381190 -0.458025
S1    S     S_3+6 0.591604 0.153200 0.393973 0.088683
S2    S     S_3+6 0.470428 0.116853 0.867626 0.071834
S3    S     S_3+6 0.550108 0.912846 0.233089 0.117772
S4    S     S_3+6 0.679498 0.674884 0.092709 0.086761
S5    S     S_3+6 0.755116 0.341946 0.323410 0.086422

loop_
_geom_bond_atom_site_label_1
_geom_bond_atom_site_label_2
_ccdc_geom_bond_type
Cu1   N4    S    
C49   C50   A    
C6    H8    S    
C2    C20   A    
C35   C36   A    
C30   C36   A    
C4    C57   S    
C45   C55   A    
O15   S4    D    
C23   N1    S    
H11   O10   S    
C51   C56   A    
C33   C35   A    
C40   N1    A    
C47   C48   A    
C46   C47   A    
H10   O7    S    
C42   C48   A    
C6    C7    A    
C19   N2    S    
C51   N1    A    
C32   H20   S    
C54   C57   A    
C30   C31   A    
C44   H3    S    
O20   S5    S    
C32   C33   A    
C14   C19   A    
C38   S1    S    
C9    C10   A    
C43   S4    S    
C34   C56   A    
O8    S2    D    
C1    O23   A    
C49   H22   S    
C15   C58   A    
C49   N3    A    
C3    C26   A    
O18   S5    D    
O7    S1    S    
C5    C9    A    
C22   C29   A    
C10   C11   A    
Cu2   O25   S    
H14   O17   S    
C44   C46   A    
Cu1   O26   S    
C31   H18   S    
C33   H21   S    
O10   S2    S    
C55   H5    S    
Cu1   O1    S    
C16   C41   S    
Br4   C29   S    
C7    C8    A    
C25   C56   A    
Br3   C18   S    
C28   O3    A    
C8    C13   A    
C11   O22   S    
C39   C41   A    
C16   O27   A    
C1    O1    A    
C12   H19   S    
Cu2   O23   S    
C15   H6    S    
C18   C19   A    
Br1   C54   S    
O17   S4    S    
C51   O21   S    
C52   C53   A    
C40   C45   A    
O9    S2    D    
H13   O14   S    
C37   C38   A    
C31   C32   A    
C10   C27   A    
C3    C5    A    
C13   O12   S    
H15   O20   S    
C21   C34   A    
C2    C6    A    
O14   S3    S    
C47   N4    A    
C28   C58   S    
C35   C41   A    
Br5   C46   S    
C12   C23   A    
C14   C15   A    
C27   H17   S    
C12   C54   A    
Cu1   O2    S    
C7    H7    S    
Cu1   Cu2   S    
C50   H4    S    
Cu2   O27   S    
C20   C21   A    
Cu1   O24   S    
C25   C29   A    
C36   C37   A    
O16   S4    D    
C21   C22   A    
C4    O24   A    
C38   C39   A    
C25   H12   S    
C1    C37   S    
C16   O26   A    
C17   C58   A    
O19   S5    D    
Br6   C53   S    
C11   N2    A    
C28   O2    A    
C42   H2    S    
O6    S1    D    
Cu2   N3    S    
C39   S3    S    
C34   C45   A    
C26   H16   S    
C53   C57   A    
C26   C27   A    
O5    S1    D    
C30   S2    S    
C48   N3    A    
C13   N2    A    
C24   H9    S    
C2    C5    A    
C42   C43   A    
O13   S3    D    
C14   S5    S    
C17   C18   A    
C52   H1    S    
C50   N4    A    
C40   O4    S    
C23   C52   A    
C43   C44   A    
C24   C55   A    
Br2   C17   S    
C4    O25   A    
C8    C9    A    
O11   S3    D    
C3    C22   A    
Cu2   O3    S    
C20   C24   A    
