data_mof_unit_33193.cif
_audit_creation_date              2012-12-11T15:13:39-0500
_audit_creation_method            fapswitch 2.2
_symmetry_space_group_name_H-M    P1
_symmetry_Int_Tables_number       1
_space_group_crystal_system       triclinic
_cell_length_a                    6.946038
_cell_length_b                    13.490058
_cell_length_c                    20.128246
_cell_angle_alpha                 104.041765
_cell_angle_beta                  89.837714
_cell_angle_gamma                 90.643877
_cell_volume                      1829.59322163

loop_
_atom_site_label
_atom_site_type_symbol
_atom_type_description
_atom_site_fract_x
_atom_site_fract_y
_atom_site_fract_z
_atom_type_partial_charge
O1    O     O_R   0.506780 0.600060 0.449950 -0.544760
O2    O     O_R   0.179840 0.597110 0.589410 -0.552103
O3    O     O_R   0.004570 0.399940 0.550050 -0.538342
C1    C     C_R   0.348187 0.619020 0.616926 0.651501
O4    O     O_R   0.177380 0.612160 0.452890 -0.543801
O5    O     O_R   0.002100 0.415100 0.412560 -0.517493
C2    C     C_R   0.346935 0.638991 0.436369 0.703193
O6    O     O_R   0.509250 0.584900 0.587440 -0.548261
O7    O     O_3   0.337570 0.435330 0.486930 -0.347644
V1    V     V_3+5 0.064650 0.512000 0.502430 1.479518
O8    O     O_R   0.672090 0.402890 0.410590 -0.517821
C3    C     C_R   0.840563 0.381678 0.383084 0.844215
O9    O     O_R   0.674540 0.387840 0.547110 -0.549322
C4    C     C_R   0.842509 0.360749 0.563493 0.729515
V2    V     V_3+5 0.564040 0.488000 0.497570 1.505074
O10   O     O_3   0.840990 0.564670 0.513070 -0.392871
C5    C     C_R   0.835434 0.104601 0.607493 -0.199189
H1    H     H_    0.834286 0.979123 0.690404 0.116773
H2    H     H_    0.826915 0.024125 0.581794 0.109740
C6    C     C_R   0.847812 0.281709 0.602062 -0.042256
C7    C     C_R   0.873664 0.319044 0.931905 -0.164865
C8    C     C_R   0.874525 0.395597 0.896591 -0.125482
C9    C     C_R   0.867707 0.370997 0.825280 -0.163660
C10   C     C_R   0.859582 0.267823 0.787064 0.090045
C11   C     C_R   0.856951 0.189645 0.823758 0.066411
C12   C     C_R   0.854021 0.239625 0.713841 0.077132
C13   C     C_R   0.843926 0.134467 0.679278 0.114762
C14   C     C_R   0.841537 0.059484 0.716450 -0.202755
C15   C     C_R   0.848319 0.086400 0.787448 -0.204849
C16   C     C_R   0.857543 0.312093 0.673546 -0.279262
C17   C     C_R   0.835475 0.177687 0.568492 0.173786
C18   C     C_R   0.864413 0.216443 0.896297 -0.071179
H3    H     H_    0.865721 0.393121 0.695917 0.101196
H4    H     H_    0.880616 0.339846 0.987356 0.104082
H5    H     H_    0.869035 0.434786 0.801892 0.102940
H6    H     H_    0.881295 0.474907 0.924726 0.117917
H7    H     H_    0.846347 0.025158 0.813666 0.116589
C19   C     C_3   0.679339 0.218902 0.229697 0.645459
C20   C     C_3   0.781170 0.200320 0.293221 0.463333
C21   C     C_3   0.849125 0.312530 0.312542 -0.376431
C22   C     C_3   0.745757 0.332230 0.248852 -0.302843
C23   C     C_3   0.932661 0.301891 0.205770 -0.357794
C24   C     C_3   0.033258 0.282523 0.269936 0.653485
C25   C     C_3   0.965180 0.170398 0.250765 0.510161
C26   C     C_3   0.863511 0.188876 0.187061 -0.390039
H8    H     H_    0.653318 0.398602 0.248208 0.188076
H9    H     H_    0.997041 0.343684 0.169805 0.175703
C27   C     C_3   0.454870 0.794556 0.706903 -0.142213
C28   C     C_3   0.274758 0.839762 0.748657 -0.141657
H10   H     H_    0.206713 0.913640 0.748102 0.111542
H11   H     H_    0.536380 0.830492 0.671202 0.097614
C29   C     C_3   0.358716 0.811543 0.812225 0.000845
C30   C     C_3   0.539243 0.767185 0.771270 -0.116299
C31   C     C_3   0.438260 0.661168 0.751121 -0.141846
C32   C     C_3   0.258126 0.706340 0.792838 -0.146302
C33   C     C_3   0.173763 0.733744 0.728484 -0.119304
C34   C     C_3   0.354280 0.689303 0.687538 0.001706
H12   H     H_    0.690514 0.781209 0.789086 0.105112
H13   H     H_    0.506301 0.587304 0.751707 0.100261
H14   H     H_    0.176630 0.670448 0.828564 0.098020
H15   H     H_    0.022472 0.719900 0.710663 0.105533
C35   C     C_R   0.401417 0.891863 0.391479 -0.115730
H16   H     H_    0.397767 0.842423 0.485058 0.099518
H17   H     H_    0.423830 0.017056 0.308782 0.229530
H18   H     H_    0.423188 0.971301 0.417997 0.136841
C36   C     C_R   0.358660 0.716251 0.396778 -0.036341
C37   C     C_R   0.326707 0.681168 0.067344 -0.168673
C38   C     C_R   0.311346 0.604708 0.102539 -0.114075
C39   C     C_R   0.322765 0.628518 0.173778 -0.149237
C40   C     C_R   0.350309 0.730749 0.211998 0.079266
C41   C     C_R   0.367070 0.808728 0.175432 0.023596
C42   C     C_R   0.361321 0.758273 0.285119 0.065473
C43   C     C_R   0.389060 0.862684 0.319730 0.088121
C44   C     C_R   0.404599 0.937368 0.282667 -0.052159
C45   C     C_R   0.394464 0.911041 0.211742 -0.113740
C46   C     C_R   0.345822 0.685978 0.325381 -0.203299
C47   C     C_R   0.386848 0.818918 0.429755 -0.185158
C48   C     C_R   0.354708 0.782808 0.103019 -0.070822
H19   H     H_    0.324893 0.605503 0.303151 0.112587
H20   H     H_    0.316425 0.661068 0.011959 0.095826
H21   H     H_    0.309116 0.564962 0.197142 0.118543
H22   H     H_    0.289780 0.526136 0.074374 0.121169
H23   H     H_    0.407629 0.972062 0.185577 0.189158
O11   O     O_R   0.203580 0.914920 0.912610 -0.546679
O12   O     O_R   0.535710 0.887810 0.047120 -0.543744
O13   O     O_R   0.710730 0.084950 0.087430 -0.522632
C49   C     C_R   0.366235 0.860837 0.063612 0.692423
O14   O     O_R   0.533010 0.902850 0.910600 -0.550438
O15   O     O_R   0.708010 0.100090 0.949930 -0.542179
C50   C     C_R   0.364723 0.881308 0.882977 0.659153
O16   O     O_R   0.206300 0.899780 0.050100 -0.533073
O17   O     O_3   0.375170 0.064580 0.013100 -0.355894
V3    V     V_3+5 0.648200 0.988020 0.997570 1.462213
O18   O     O_R   0.038030 0.112330 0.952840 -0.546848
C51   C     C_R   0.870049 0.138660 0.935950 0.669263
O19   O     O_R   0.040730 0.097300 0.089360 -0.516659
C52   C     C_R   0.872226 0.118709 0.116822 0.828894
V4    V     V_3+5 0.148780 0.012220 0.002360 1.497580
O20   O     O_3   0.871930 0.935430 0.986900 -0.385430
N1    N     N_3   0.824222 0.147065 0.495029 -0.618791
H24   H     H_    0.690169 0.169736 0.480796 0.260252
H25   H     H_    0.827221 0.067429 0.478057 0.245340
F1    F     F_    0.495346 0.185097 0.209114 -0.606938
F2    F     F_    0.217536 0.315135 0.290999 -0.615054
F3    F     F_    0.078310 0.087380 0.252176 -0.637702
F4    F     F_    0.703750 0.147950 0.338220 -0.664042

loop_
_geom_bond_atom_site_label_1
_geom_bond_atom_site_label_2
_ccdc_geom_bond_type
C48   C49   S    
C20   F4    S    
C32   C33   S    
O15   C51   A    
C49   O16   A    
C43   C44   A    
C35   C47   A    
C29   C50   S    
C46   H19   S    
C42   C46   A    
O17   V4    S    
C27   C34   S    
C6    C16   A    
C30   C31   S    
C25   C26   S    
C12   C13   A    
C7    C8    A    
C14   C15   A    
C10   C12   A    
O5    C3    A    
C19   C20   S    
O18   V4    S    
V2    O10   S    
V4    O20   S    
C33   C34   S    
C22   C23   S    
O13   C52   A    
C24   F2    S    
O17   V3    S    
C19   C26   S    
O14   V3    S    
O8    V2    S    
C21   C24   S    
C38   C39   A    
O19   V4    S    
C1    C34   S    
C22   H8    S    
C35   C43   A    
C40   C41   A    
O1    V2    S    
O7    V1    S    
V3    O20   S    
C16   H3    S    
C29   C32   S    
C1    O6    A    
C11   C18   A    
C32   H14   S    
O18   C51   A    
C37   C48   A    
O11   C50   A    
C31   H13   S    
O12   C49   A    
C11   C15   A    
C27   C30   S    
C7    C18   A    
C27   H11   S    
C44   C45   A    
C37   C38   A    
C5    C13   A    
C4    C6    S    
H1    C14   S    
C10   C11   A    
C19   C22   S    
C20   C21   S    
O4    C2    A    
C7    H4    S    
C25   F3    S    
C23   C26   S    
C3    C21   S    
O2    C1    A    
C24   C25   S    
C19   F1    S    
O13   V3    S    
O12   V3    S    
C9    C10   A    
C28   C29   S    
C36   C46   A    
O19   C52   A    
N1    H25   S    
C33   H15   S    
C17   N1    S    
O3    C4    A    
C27   C28   S    
O14   C50   A    
C12   C16   A    
O6    V2    S    
C9    H5    S    
O9    V2    S    
C5    C17   A    
C23   C24   S    
O2    V1    S    
C29   C30   S    
H16   C47   S    
C36   C47   A    
C31   C32   S    
C21   C22   S    
C35   H18   S    
O1    C2    A    
C37   H20   S    
C42   C43   A    
O5    V1    S    
C30   H12   S    
C20   C25   S    
C28   C33   S    
C8    H6    S    
C38   H22   S    
O7    V2    S    
O11   V4    S    
O4    V1    S    
O3    V1    S    
C26   C52   S    
C2    C36   S    
C41   C45   A    
C45   H23   S    
V1    O10   S    
N1    H24   S    
C5    H2    S    
C23   H9    S    
O16   V4    S    
O15   V3    S    
C39   C40   A    
C39   H21   S    
C18   C51   S    
C28   H10   S    
C15   H7    S    
C13   C14   A    
H17   C44   S    
C8    C9    A    
C40   C42   A    
O9    C4    A    
C6    C17   A    
C41   C48   A    
O8    C3    A    
C31   C34   S    
