data_mof_unit_10427.cif
_audit_creation_date              2012-12-10T17:42:35-0500
_audit_creation_method            fapswitch 2.2
_symmetry_space_group_name_H-M    P1
_symmetry_Int_Tables_number       1
_space_group_crystal_system       triclinic
_cell_length_a                    9.955566
_cell_length_b                    10.703275
_cell_length_c                    13.25705
_cell_angle_alpha                 94.213138
_cell_angle_beta                  71.701018
_cell_angle_gamma                 87.764874
_cell_volume                      1334.69708353

loop_
_atom_site_label
_atom_site_type_symbol
_atom_type_description
_atom_site_fract_x
_atom_site_fract_y
_atom_site_fract_z
_atom_type_partial_charge
Br1   Br    Br    0.613733 0.743803 0.696344 -0.509071
Br2   Br    Br    0.207402 0.526385 0.171690 -0.501139
Br3   Br    Br    0.792693 0.839662 0.350061 -0.422934
C1    C     C_R   0.499072 0.739617 0.493019 0.977587
C2    C     C_R   0.389433 0.439462 0.808334 -0.124923
C3    C     C_R   0.225500 0.905970 0.557251 -0.149151
C4    C     C_R   0.425919 0.480646 0.699629 0.914373
C5    C     C_R   0.106536 0.979214 0.622473 -0.118753
C6    C     C_R   0.122501 0.096697 0.667354 -0.125783
C7    C     C_R   0.255353 0.145482 0.638297 -0.133546
C8    C     C_R   0.374328 0.075197 0.565449 0.108867
C9    C     C_R   0.363921 0.948726 0.536665 0.069228
C10   C     C_R   0.492530 0.873493 0.485738 -0.193436
C11   C     C_R   0.620735 0.929857 0.441012 0.278521
C12   C     C_R   0.448759 0.442148 0.973807 0.014200
C13   C     C_R   0.623122 0.057938 0.454417 -0.222090
C14   C     C_R   0.501337 0.129803 0.515328 -0.165174
C15   C     C_R   0.795883 0.655912 0.673656 0.212462
C16   C     C_R   0.500138 0.261339 0.505940 0.856995
C17   C     C_R   0.845748 0.708928 0.756096 -0.074677
C18   C     C_R   0.989017 0.713781 0.737977 -0.257420
C19   C     C_R   0.082730 0.650740 0.649377 -0.238591
C20   C     C_R   0.040065 0.575176 0.576390 0.113117
C21   C     C_R   0.892966 0.576598 0.580979 0.115687
C22   C     C_R   0.962248 0.427569 0.426808 -0.065757
C23   C     C_R   0.492786 0.427644 0.861042 0.069278
C24   C     C_R   0.104454 0.426625 0.427660 -0.029892
C25   C     C_R   0.577439 0.497748 0.297234 0.897830
C26   C     C_R   0.793998 0.520320 0.012376 -0.035967
C27   C     C_R   0.622392 0.490900 0.182212 -0.115691
C28   C     C_R   0.249258 0.418738 0.863598 -0.246752
C29   C     C_R   0.206001 0.418792 0.973866 -0.085314
C30   C     C_R   0.299838 0.448074 0.029708 0.252050
C31   C     C_2   0.749807 0.764446 0.862465 0.488105
C32   C     C_2   0.930600 0.568999 0.952798 0.389790
C33   C     C_R   0.555760 0.456403 0.023202 0.107456
C34   C     C_R   0.697991 0.473125 0.961437 0.059175
C35   C     C_R   0.739695 0.435956 0.852382 -0.285954
C36   C     C_R   0.638803 0.404950 0.804686 -0.138427
C37   C     C_R   0.528005 0.448563 0.131394 -0.181672
C38   C     C_R   0.753077 0.530856 0.123694 -0.132996
H1    H     H_    0.823565 0.567889 0.164751 0.227959
H2    H     H_    0.849696 0.426544 0.803374 0.131689
H3    H     H_    0.185018 0.366130 0.368298 0.158509
H4    H     H_    0.434792 0.405211 0.176652 0.186198
H5    H     H_    0.172028 0.409777 0.822086 0.145710
H6    H     H_    0.095172 0.410890 0.016890 0.168390
H7    H     H_    0.677258 0.365399 0.722621 0.174961
H8    H     H_    0.642213 0.735860 0.893456 0.111198
H9    H     H_    0.979031 0.542825 0.868870 0.049967
H10   H     H_    0.204451 0.821498 0.517469 0.191122
H11   H     H_    0.001746 0.944986 0.637647 0.176938
H12   H     H_    0.031103 0.152505 0.720295 0.143762
H13   H     H_    0.263981 0.239184 0.671144 0.135526
H14   H     H_    0.719199 0.101892 0.413658 0.189669
H15   H     H_    0.936588 0.368295 0.366640 0.149904
H16   H     H_    0.030117 0.763947 0.794850 0.239565
H17   H     H_    0.190594 0.662494 0.640977 0.244819
N1    N     N_R   0.856860 0.501200 0.500990 -0.110019
N2    N     N_R   0.142450 0.501280 0.501020 -0.119463
O1    O     O_R   0.385310 0.683220 0.500000 -0.662482
O2    O     O_2   0.990034 0.642072 0.997072 -0.492264
O3    O     O_R   0.614640 0.683250 0.500010 -0.522148
O4    O     O_R   0.328400 0.499950 0.653610 -0.648301
O5    O     O_R   0.557730 0.499970 0.653620 -0.600303
O6    O     O_R   0.385360 0.316750 0.499990 -0.623364
O7    O     O_R   0.614690 0.316780 0.500000 -0.638554
O8    O     O_R   0.442270 0.500030 0.346380 -0.595530
O9    O     O_R   0.671600 0.500050 0.346390 -0.606854
O10   O     O_2   0.790581 0.841136 0.917403 -0.527814
Zn1   Zn    Zn3+2 0.346880 0.499980 0.499990 0.950689
Zn2   Zn    Zn3+2 0.653120 0.500020 0.500010 1.000914

loop_
_geom_bond_atom_site_label_1
_geom_bond_atom_site_label_2
_ccdc_geom_bond_type
C19   H17   S    
O9    Zn2   S    
C8    C9    A    
C27   C38   A    
C16   O7    A    
C34   C35   A    
C3    H10   S    
C4    O5    A    
O5    Zn2   S    
C6    C7    A    
C5    H11   S    
C25   O9    A    
N2    Zn1   S    
C22   H15   S    
N1    Zn2   S    
C20   C21   A    
C36   H7    S    
C17   C31   S    
C29   C30   A    
O1    Zn1   S    
C32   H9    S    
C25   C27   S    
C13   H14   S    
C27   C37   A    
C35   H2    S    
C26   C38   A    
C10   C11   A    
O3    Zn2   S    
C18   H16   S    
C9    C10   A    
C1    O3    A    
Br1   C15   S    
C35   C36   A    
Br3   C11   S    
O6    Zn1   S    
O8    Zn1   S    
C15   C21   A    
C24   H3    S    
Br2   C30   S    
C33   C34   A    
C25   O8    A    
C32   O2    D    
C15   C17   A    
C24   N2    A    
C21   N1    A    
C3    C9    A    
C20   N2    A    
C7    H13   S    
C29   H6    S    
C11   C13   A    
C23   C36   A    
C2    C28   A    
C6    H12   S    
C7    C8    A    
C2    C23   A    
C12   C33   A    
C33   C37   A    
C17   C18   A    
C28   H5    S    
C16   O6    A    
O7    Zn2   S    
C38   H1    S    
O4    Zn1   S    
C26   C34   A    
C1    C10   S    
C2    C4    S    
C26   C32   S    
C19   C20   A    
C8    C14   A    
C31   H8    S    
C3    C5    A    
C4    O4    A    
C22   N1    A    
C37   H4    S    
C14   C16   S    
C18   C19   A    
C31   O10   D    
C1    O1    A    
C12   C30   A    
C28   C29   A    
C13   C14   A    
C5    C6    A    
C12   C23   A    
C22   C24   A    
