data_mof_unit_54722.cif
_audit_creation_date              2012-12-11T16:25:35-0500
_audit_creation_method            fapswitch 2.2
_symmetry_space_group_name_H-M    P1
_symmetry_Int_Tables_number       1
_space_group_crystal_system       triclinic
_cell_length_a                    20.511349
_cell_length_b                    7.286777
_cell_length_c                    13.280274
_cell_angle_alpha                 90.000565
_cell_angle_beta                  103.490307
_cell_angle_gamma                 89.999879
_cell_volume                      1930.12700332

loop_
_atom_site_label
_atom_site_type_symbol
_atom_type_description
_atom_site_fract_x
_atom_site_fract_y
_atom_site_fract_z
_atom_type_partial_charge
O1    O     O_R   0.449520 0.506760 0.599710 -0.534746
O2    O     O_R   0.550480 0.006760 0.400290 -0.534746
O3    O     O_R   0.587930 0.180200 0.595790 -0.528460
O4    O     O_R   0.412070 0.680200 0.404210 -0.528460
C1    C     C_R   0.613383 0.345431 0.621052 0.688042
C2    C     C_R   0.386617 0.845430 0.378949 0.688046
O5    O     O_R   0.452350 0.177380 0.611700 -0.525094
O6    O     O_R   0.547650 0.677380 0.388300 -0.525094
O7    O     O_R   0.413930 0.001760 0.416320 -0.541167
O8    O     O_R   0.586070 0.501760 0.583680 -0.541166
C3    C     C_R   0.435019 0.343504 0.636611 0.706279
C4    C     C_R   0.564981 0.843503 0.363389 0.706282
O9    O     O_3   0.487550 0.337460 0.435880 -0.365042
O10   O     O_3   0.512450 0.837460 0.564120 -0.365042
V1    V     V_3+5 0.502310 0.064670 0.511900 1.494758
V2    V     V_3+5 0.497690 0.564670 0.488100 1.494761
C5    C     C_R   0.613443 0.757615 0.110833 -0.202232
C6    C     C_R   0.386557 0.257616 0.889168 -0.202228
H1    H     H_    0.691871 0.780635 0.977140 0.144260
H2    H     H_    0.308128 0.280618 0.022859 0.144259
H3    H     H_    0.590351 0.706052 0.034419 0.162294
H4    H     H_    0.409650 0.206057 0.965583 0.162292
C7    C     C_R   0.603854 0.839276 0.283114 -0.056497
C8    C     C_R   0.396147 0.339280 0.716887 -0.056503
C9    C     C_R   0.924926 0.898829 0.315646 -0.141243
C10   C     C_R   0.075074 0.398854 0.684356 -0.141232
C11   C     C_R   0.889495 0.909598 0.392712 -0.126740
C12   C     C_R   0.110505 0.409645 0.607290 -0.126729
C13   C     C_R   0.819830 0.900118 0.367822 -0.150277
C14   C     C_R   0.180170 0.400154 0.632180 -0.150277
C15   C     C_R   0.783793 0.879005 0.264010 0.065296
C16   C     C_R   0.216207 0.379011 0.735991 0.065283
C17   C     C_R   0.820720 0.862775 0.185272 0.038977
C18   C     C_R   0.179279 0.362766 0.814728 0.038974
C19   C     C_R   0.712364 0.865655 0.236426 0.056064
C20   C     C_R   0.287636 0.365656 0.763576 0.056065
C21   C     C_R   0.680409 0.815346 0.133709 0.102209
C22   C     C_R   0.319591 0.315342 0.866291 0.102216
C23   C     C_R   0.716661 0.811485 0.056711 -0.147229
C24   C     C_R   0.283339 0.311472 0.943288 -0.147230
C25   C     C_R   0.785545 0.841310 0.081591 -0.205028
C26   C     C_R   0.214454 0.341292 0.918408 -0.205030
C27   C     C_R   0.671091 0.897214 0.306961 -0.256472
C28   C     C_R   0.328910 0.397220 0.693042 -0.256472
C29   C     C_R   0.579138 0.743710 0.189764 0.111455
C30   C     C_R   0.420862 0.243712 0.810236 0.111462
C31   C     C_R   0.891964 0.870295 0.212358 -0.071877
C32   C     C_R   0.108036 0.370293 0.787642 -0.071875
H5    H     H_    0.690838 0.956533 0.382439 0.122179
H6    H     H_    0.309164 0.456543 0.617566 0.122179
H7    H     H_    0.978619 0.914264 0.336395 0.139703
H8    H     H_    0.021381 0.414300 0.663608 0.139697
H9    H     H_    0.795494 0.905554 0.431527 0.133161
H10   H     H_    0.204506 0.405615 0.568475 0.133162
H11   H     H_    0.916368 0.925969 0.472569 0.157385
H12   H     H_    0.083633 0.426048 0.527434 0.157381
H13   H     H_    0.811456 0.838906 0.019351 0.121058
H14   H     H_    0.188542 0.338880 0.980647 0.121058
C33   C     C_R   0.232873 0.852318 0.022961 0.073347
C34   C     C_R   0.767128 0.352329 0.977038 0.073349
C35   C     C_R   0.289442 0.820130 0.981294 0.217461
C36   C     C_R   0.710559 0.320141 0.018706 0.217471
C37   C     C_R   0.353659 0.823325 0.047073 0.158639
C38   C     C_R   0.646343 0.323331 0.952928 0.158627
C39   C     C_R   0.361455 0.839517 0.153889 -0.160703
C40   C     C_R   0.638546 0.339520 0.846112 -0.160701
C41   C     C_R   0.306222 0.845534 0.199647 -0.004301
C42   C     C_R   0.693778 0.345539 0.800353 -0.004303
C43   C     C_R   0.239721 0.851097 0.134423 0.009609
C44   C     C_R   0.760280 0.351103 0.865576 0.009606
C45   C     C_R   0.317459 0.857231 0.309503 -0.122722
C46   C     C_R   0.682542 0.357231 0.690497 -0.122721
C47   C     C_R   0.262286 0.880040 0.354701 0.052574
C48   C     C_R   0.737713 0.380027 0.645297 0.052575
C49   C     C_R   0.195901 0.855372 0.294383 0.010873
C50   C     C_R   0.804099 0.355361 0.705615 0.010867
C51   C     C_R   0.183772 0.853623 0.183384 -0.121350
C52   C     C_R   0.816228 0.353622 0.816615 -0.121353
C53   C     C_R   0.272398 0.924375 0.460860 -0.204904
C54   C     C_R   0.727601 0.424347 0.539137 -0.204902
C55   C     C_R   0.218801 0.941975 0.507061 -0.145051
C56   C     C_R   0.781196 0.441938 0.492934 -0.145059
C57   C     C_R   0.154541 0.892590 0.453164 0.198873
C58   C     C_R   0.845457 0.392561 0.546831 0.198871
C59   C     C_R   0.144248 0.832121 0.349312 0.087028
C60   C     C_R   0.855752 0.332104 0.650685 0.087031
H15   H     H_    0.411874 0.848007 0.201616 0.135551
H16   H     H_    0.588126 0.348004 0.798386 0.135551
H17   H     H_    0.321629 0.951661 0.509161 0.140374
H18   H     H_    0.678369 0.451629 0.490836 0.140372
H19   H     H_    0.228343 0.984889 0.587333 0.134373
H20   H     H_    0.771653 0.484840 0.412660 0.134373
O11   O     O_R   0.913760 0.203480 0.916370 -0.521083
O12   O     O_R   0.086240 0.703480 0.083630 -0.521083
O13   O     O_R   0.047590 0.535230 0.888250 -0.544251
O14   O     O_R   0.952410 0.035230 0.111750 -0.544250
C61   C     C_R   0.066807 0.369987 0.865487 0.701690
C62   C     C_R   0.933193 0.869989 0.134513 0.701689
O15   O     O_R   0.912020 0.532880 0.904260 -0.543473
O16   O     O_R   0.087980 0.032880 0.095740 -0.543472
O17   O     O_R   0.949590 0.708460 0.099750 -0.528125
O18   O     O_R   0.050410 0.208460 0.900250 -0.528125
C63   C     C_R   0.886613 0.363905 0.880131 0.734595
C64   C     C_R   0.113387 0.863906 0.119868 0.734594
O19   O     O_3   0.012370 0.375360 0.064120 -0.362362
O20   O     O_3   0.987630 0.875360 0.935880 -0.362363
V3    V     V_3+5 0.997700 0.648160 0.988110 1.468767
V4    V     V_3+5 0.002300 0.148160 0.011890 1.468771
I1    I     I_    0.502909 0.536623 0.175064 -0.495340
I2    I     I_    0.497090 0.036619 0.824931 -0.495333
C65   C     C_3   0.168814 0.907183 0.946436 -0.710870
H21   H     H_    0.174773 0.946181 0.868638 0.202427
H22   H     H_    0.131444 0.795679 0.935051 0.225369
H23   H     H_    0.150925 0.035741 0.972815 0.214439
C66   C     C_3   0.831186 0.407201 0.053563 -0.710866
H24   H     H_    0.825226 0.446211 0.131360 0.202428
H25   H     H_    0.868557 0.295699 0.064952 0.225367
H26   H     H_    0.849073 0.535757 0.027181 0.214440
C67   C     C_3   0.281876 0.793385 0.865393 -0.766722
H27   H     H_    0.235348 0.717436 0.830688 0.219663
H28   H     H_    0.281109 0.928505 0.826576 0.212091
H29   H     H_    0.322813 0.709732 0.847650 0.227509
C68   C     C_3   0.718126 0.293395 0.134606 -0.766739
H30   H     H_    0.764658 0.217467 0.169315 0.219663
H31   H     H_    0.718883 0.428511 0.173423 0.212093
H32   H     H_    0.677194 0.209723 0.152346 0.227508
C69   C     C_3   0.414667 0.819978 0.002940 -0.732814
H33   H     H_    0.405266 0.902842 0.932216 0.234455
H34   H     H_    0.459103 0.879982 0.056900 0.229874
H35   H     H_    0.424762 0.678017 0.980571 0.245290
C70   C     C_3   0.585336 0.319979 0.997060 -0.732820
H36   H     H_    0.594737 0.402830 0.067791 0.234455
H37   H     H_    0.540902 0.379993 0.943104 0.229877
H38   H     H_    0.575242 0.178014 0.019424 0.245292
I3    I     I_    0.071433 0.619970 0.304760 -0.460907
I4    I     I_    0.928573 0.119972 0.695240 -0.460904
C71   C     C_3   0.098304 0.903106 0.508605 -0.749944
H39   H     H_    0.116724 0.945140 0.590788 0.214558
H40   H     H_    0.061559 0.008007 0.470837 0.208758
H41   H     H_    0.073083 0.768785 0.508646 0.225718
C72   C     C_3   0.901693 0.403072 0.491387 -0.749932
H42   H     H_    0.883273 0.445111 0.409206 0.214552
H43   H     H_    0.938440 0.507966 0.529157 0.208750
H44   H     H_    0.926910 0.268746 0.491341 0.225729

loop_
_geom_bond_atom_site_label_1
_geom_bond_atom_site_label_2
_ccdc_geom_bond_type
O17   V3    S    
C40   C42   A    
C37   C39   A    
C7    C29   A    
C11   C13   A    
C43   C51   A    
C65   H21   S    
O1    C3    A    
C54   H18   S    
C70   H38   S    
O2    C4    A    
C26   H14   S    
C2    O7    A    
C9    H7    S    
C12   H12   S    
C7    C27   A    
C68   H30   S    
C23   C25   A    
O5    C3    A    
C32   C61   S    
C71   H40   S    
C4    C7    S    
C31   C62   S    
C48   C50   A    
C16   C20   A    
C19   C21   A    
C58   C60   A    
C1    C46   S    
C72   H43   S    
O11   V4    S    
C40   H16   S    
H2    C24   S    
C29   I1    S    
C68   H31   S    
C44   C52   A    
O20   V3    S    
C66   H24   S    
C3    C8    S    
O16   C64   A    
C56   H20   S    
C34   C36   A    
C35   C37   A    
C36   C38   A    
C55   C57   A    
C49   C59   A    
C18   C26   A    
C39   C41   A    
O14   C62   A    
C33   C65   S    
C15   C17   A    
O18   V4    S    
C19   C27   A    
C9    C31   A    
C61   O18   A    
C10   C32   A    
O3    C1    A    
C24   C26   A    
O14   V4    S    
O12   C64   A    
O6    V2    S    
C22   C24   A    
C48   C54   A    
C13   C15   A    
C47   C49   A    
O11   C63   A    
C6    C30   A    
C36   C68   S    
C71   H41   S    
C39   H15   S    
C67   H28   S    
C2    C45   S    
O19   V4    S    
O12   V3    S    
C33   C35   A    
O16   V4    S    
C35   C67   S    
C46   C48   A    
O15   C63   A    
C72   H44   S    
C53   C55   A    
C27   H5    S    
C68   H32   S    
C66   H25   S    
C5    H3    S    
C5    C29   A    
C42   C46   A    
C41   C43   A    
C16   C18   A    
O4    V2    S    
C69   H34   S    
C10   H8    S    
C14   H10   S    
C38   C70   S    
C34   C44   A    
O6    C4    A    
C66   H26   S    
C47   C53   A    
C65   H22   S    
O1    V2    S    
C5    C21   A    
O2    V1    S    
C49   C51   A    
O13   V3    S    
C33   C43   A    
C60   I4    S    
C57   C59   A    
C59   I3    S    
C56   C58   A    
C30   I2    S    
C17   C31   A    
C15   C19   A    
C20   C28   A    
O4    C2    A    
C18   C32   A    
C69   H33   S    
C50   C60   A    
C57   C71   S    
O3    V1    S    
C45   C47   A    
C51   C64   S    
C67   H29   S    
C28   H6    S    
C52   C63   S    
C6    H4    S    
C50   C52   A    
C70   H37   S    
C67   H27   S    
O13   C61   A    
C9    C11   A    
C62   O17   A    
O15   V3    S    
C71   H39   S    
C11   H11   S    
C10   C12   A    
C17   C25   A    
C20   C22   A    
O7    V1    S    
C69   H35   S    
C8    C30   A    
C1    O8    A    
C21   C23   A    
O8    V2    S    
C72   H42   S    
C14   C16   A    
C13   H9    S    
C58   C72   S    
C8    C28   A    
O5    V1    S    
C54   C56   A    
C12   C14   A    
C65   H23   S    
C41   C45   A    
C6    C22   A    
C53   H17   S    
C25   H13   S    
C55   H19   S    
H1    C23   S    
O9    V2    S    
C42   C44   A    
O10   V1    S    
C34   C66   S    
C37   C69   S    
C70   H36   S    
C38   C40   A    
