data_mof_unit_33093.cif
_audit_creation_date              2012-12-11T16:32:30-0500
_audit_creation_method            fapswitch 2.2
_symmetry_space_group_name_H-M    P1
_symmetry_Int_Tables_number       1
_space_group_crystal_system       triclinic
_cell_length_a                    6.957073
_cell_length_b                    14.31214
_cell_length_c                    16.077587
_cell_angle_alpha                 90.072167
_cell_angle_beta                  89.98577
_cell_angle_gamma                 90.119923
_cell_volume                      1600.85020387

loop_
_atom_site_label
_atom_site_type_symbol
_atom_type_description
_atom_site_fract_x
_atom_site_fract_y
_atom_site_fract_z
_atom_type_partial_charge
O1    O     O_R   0.361630 0.167340 0.164570 -0.527577
O2    O     O_R   0.638370 0.832660 0.835430 -0.527576
O3    O     O_R   0.690860 0.157560 0.338690 -0.540996
O4    O     O_R   0.309140 0.842440 0.661310 -0.540998
O5    O     O_R   0.861260 0.336420 0.339380 -0.544948
O6    O     O_R   0.138740 0.663580 0.660620 -0.544948
C1    C     C_R   0.521734 0.134067 0.367002 0.779920
C2    C     C_R   0.478266 0.865932 0.632998 0.779919
O7    O     O_R   0.691330 0.156310 0.165190 -0.537682
O8    O     O_R   0.308670 0.843690 0.834810 -0.537683
O9    O     O_R   0.861730 0.335160 0.164640 -0.537539
O10   O     O_R   0.138270 0.664840 0.835360 -0.537539
C3    C     C_R   0.522049 0.131972 0.138172 0.804440
C4    C     C_R   0.477951 0.868027 0.861828 0.804438
O11   O     O_R   0.361150 0.168600 0.339320 -0.518471
O12   O     O_R   0.638850 0.831400 0.660680 -0.518470
O13   O     O_3   0.527950 0.310560 0.252000 -0.380774
O14   O     O_3   0.472050 0.689440 0.748000 -0.380774
V1    V     V_3+5 0.802770 0.240990 0.251980 1.471404
V2    V     V_3+5 0.197230 0.759010 0.748020 1.471403
O15   O     O_R   0.191450 0.346190 0.165260 -0.538166
O16   O     O_R   0.808550 0.653810 0.834740 -0.538166
C5    C     C_R   0.022898 0.366188 0.135282 0.777126
C6    C     C_R   0.977102 0.633812 0.864718 0.777126
O17   O     O_R   0.190980 0.347440 0.338770 -0.545927
O18   O     O_R   0.809020 0.652560 0.661230 -0.545927
C7    C     C_R   0.022069 0.369649 0.367586 0.669090
C8    C     C_R   0.977931 0.630351 0.632414 0.669091
V3    V     V_3+5 0.302780 0.262760 0.251980 1.481464
V4    V     V_3+5 0.697220 0.737240 0.748020 1.481465
O19   O     O_3   0.027730 0.193200 0.251960 -0.357065
O20   O     O_3   0.972270 0.806800 0.748040 -0.357065
C9    C     C_3   0.822024 0.473945 0.477643 -0.116872
C10   C     C_3   0.177976 0.526055 0.522357 -0.116872
C11   C     C_3   0.910983 0.460099 0.565102 -0.123917
C12   C     C_3   0.089017 0.539901 0.434898 -0.123917
H1    H     H_    0.837034 0.427608 0.619033 0.141488
H2    H     H_    0.162966 0.572391 0.380967 0.141488
H3    H     H_    0.674741 0.452387 0.459045 0.121782
H4    H     H_    0.325259 0.547613 0.540955 0.121782
C13   C     C_3   0.989254 0.560697 0.562132 -0.025611
C14   C     C_3   0.010746 0.439303 0.437868 -0.025611
C15   C     C_3   0.900407 0.575326 0.475440 -0.121665
C16   C     C_3   0.099593 0.424673 0.524559 -0.121665
H5    H     H_    0.817817 0.637748 0.455636 0.136901
H6    H     H_    0.182183 0.362252 0.544364 0.136901
C17   C     C_R   0.940570 0.692970 0.041445 0.179245
C18   C     C_R   0.059430 0.307030 0.958555 0.179245
C19   C     C_R   0.914289 0.718024 0.124970 -0.163495
C20   C     C_R   0.085711 0.281976 0.875030 -0.163496
C21   C     C_R   0.920665 0.651105 0.187499 0.240186
C22   C     C_R   0.079335 0.348895 0.812501 0.240187
C23   C     C_R   0.954321 0.558361 0.167249 -0.114368
C24   C     C_R   0.045678 0.441638 0.832751 -0.114368
C25   C     C_R   0.978164 0.529164 0.083702 -0.030240
C26   C     C_R   0.021835 0.470836 0.916298 -0.030239
C27   C     C_R   0.968396 0.596939 0.018806 0.104778
C28   C     C_R   0.031604 0.403061 0.981194 0.104778
C29   C     C_R   0.011790 0.433446 0.065354 -0.144838
C30   C     C_R   0.988209 0.566554 0.934646 -0.144838
H7    H     H_    0.891145 0.790622 0.141361 0.113917
H8    H     H_    0.108855 0.209378 0.858639 0.113917
H9    H     H_    0.960372 0.509491 0.218472 0.104783
H10   H     H_    0.039627 0.490508 0.781528 0.104783
C31   C     C_3   0.331403 0.005144 0.462638 0.179672
C32   C     C_3   0.668597 0.994856 0.537362 0.179673
C33   C     C_3   0.453082 0.916466 0.471797 0.286345
C34   C     C_3   0.546918 0.083534 0.528203 0.286346
C35   C     C_3   0.489113 0.938871 0.564227 -0.173709
C36   C     C_3   0.510887 0.061129 0.435772 -0.173710
C37   C     C_3   0.364110 0.029175 0.555667 -0.210756
C38   C     C_3   0.635889 0.970824 0.444333 -0.210756
H11   H     H_    0.256782 0.055482 0.600948 0.133648
H12   H     H_    0.743218 0.944518 0.399052 0.133649
C39   C     C_R   0.562830 0.192781 0.971594 -0.262833
C40   C     C_R   0.437170 0.807219 0.028406 -0.262834
C41   C     C_R   0.586276 0.229158 0.892511 0.402553
C42   C     C_R   0.413724 0.770842 0.107488 0.402554
C43   C     C_R   0.584365 0.168796 0.823708 0.039034
C44   C     C_R   0.415636 0.831204 0.176292 0.039034
C45   C     C_R   0.548412 0.071672 0.834971 0.246138
C46   C     C_R   0.451590 0.928327 0.165029 0.246140
C47   C     C_R   0.523953 0.034205 0.916771 0.031508
C48   C     C_R   0.476048 0.965795 0.083229 0.031508
C49   C     C_R   0.533696 0.096361 0.985928 -0.111505
C50   C     C_R   0.466304 0.903639 0.014072 -0.111505
C51   C     C_R   0.488738 0.937025 0.931431 -0.103368
C52   C     C_R   0.511263 0.062975 0.068569 -0.103368
H13   H     H_    0.567392 0.242680 0.022180 0.154908
H14   H     H_    0.432607 0.757320 0.977820 0.154909
N1    N     N_3   0.375060 0.793456 0.256907 -0.694425
H15   H     H_    0.261941 0.831144 0.283387 0.251066
H16   H     H_    0.497594 0.800415 0.293766 0.259689
N2    N     N_3   0.624941 0.206543 0.743093 -0.694423
H17   H     H_    0.738059 0.168855 0.716612 0.251068
H18   H     H_    0.502406 0.199585 0.706234 0.259688
O21   O     O_3   0.611226 0.324743 0.885780 -0.640307
H19   H     H_    0.616559 0.343257 0.826573 0.325111
O22   O     O_3   0.388773 0.675257 0.114220 -0.640307
H20   H     H_    0.383441 0.656743 0.173427 0.325111
O23   O     O_3   0.540658 0.012280 0.767368 -0.668909
H21   H     H_    0.522689 0.047732 0.715516 0.282354
O24   O     O_3   0.459345 0.987720 0.232632 -0.668908
H22   H     H_    0.477304 0.952267 0.284485 0.282355
N3    N     N_3   0.106117 0.323523 0.727270 -0.691678
H23   H     H_    0.242705 0.294424 0.721344 0.234598
H24   H     H_    0.005624 0.272033 0.711994 0.237978
N4    N     N_3   0.893883 0.676477 0.272730 -0.691678
H25   H     H_    0.757295 0.705577 0.278656 0.234598
H26   H     H_    0.994378 0.727966 0.288006 0.237978
N5    N     N_3   0.943186 0.766656 0.981196 -0.668612
H27   H     H_    0.050727 0.814276 0.997487 0.231792
H28   H     H_    0.812570 0.801982 0.984363 0.231302
N6    N     N_3   0.056814 0.233344 0.018804 -0.668612
H29   H     H_    0.949273 0.185724 0.002513 0.231792
H30   H     H_    0.187430 0.198018 0.015637 0.231302
O25   O     O_3   0.400916 0.828071 0.442415 -0.664407
H31   H     H_    0.280372 0.811680 0.471914 0.280468
O26   O     O_3   0.599084 0.171929 0.557585 -0.664407
H32   H     H_    0.719628 0.188320 0.528086 0.280468
N7    N     N_3   0.146271 0.007553 0.420585 -0.649076
H33   H     H_    0.067498 0.950409 0.442213 0.233921
H34   H     H_    0.170778 0.995192 0.357442 0.241121
N8    N     N_3   0.853728 0.992446 0.579415 -0.649076
H35   H     H_    0.932502 0.049591 0.557787 0.233921
H36   H     H_    0.829222 0.004808 0.642558 0.241124

loop_
_geom_bond_atom_site_label_1
_geom_bond_atom_site_label_2
_ccdc_geom_bond_type
C32   C34   S    
O23   H21   S    
C25   C29   A    
O13   V3    S    
C12   C14   S    
N5    H27   S    
O4    C2    A    
V1    O19   S    
C1    C36   S    
O21   H19   S    
C17   C19   A    
C45   O23   S    
C5    C29   S    
N3    H24   S    
O9    V1    S    
C2    C35   S    
C9    H3    S    
C10   H4    S    
C9    C14   S    
O16   C6    A    
C18   N6    S    
C11   H1    S    
C48   C50   A    
C4    C51   S    
O3    C1    A    
C34   O26   S    
C42   C44   A    
C32   C35   S    
N1    H16   S    
O12   V4    S    
C31   C36   S    
C8    C13   S    
N4    H25   S    
C33   C38   S    
C35   C37   S    
O7    C3    A    
C9    C11   S    
O5    C7    A    
C39   C49   A    
C32   C38   S    
O7    V1    S    
C16   H6    S    
C21   N4    S    
C19   C21   A    
C20   C22   A    
C46   O24   S    
O3    V1    S    
O14   V4    S    
C31   N7    S    
C10   C12   S    
C18   C20   A    
C2    O12   A    
C13   C15   S    
C10   C13   S    
C14   C16   S    
C11   C13   S    
C45   C47   A    
C22   C24   A    
O11   V3    S    
C23   C25   A    
O17   V3    S    
C24   C26   A    
C19   H7    S    
C9    C15   S    
C10   C16   S    
C43   N2    S    
C44   C46   A    
O8    C4    A    
N6    H29   S    
O8    V2    S    
N1    H15   S    
C43   C45   A    
C50   C51   A    
C27   C30   A    
C1    O11   A    
C31   C33   S    
C28   C29   A    
C31   C37   S    
O15   V3    S    
C26   C30   A    
C33   C35   S    
C17   C27   A    
C39   C41   A    
O22   H20   S    
C6    C30   S    
O10   V2    S    
O1    V3    S    
C41   C43   A    
N5    H28   S    
N2    H18   S    
C11   C16   S    
C33   O25   S    
N7    H33   S    
C38   H12   S    
C47   C49   A    
C22   N3    S    
O18   V4    S    
C46   C48   A    
C25   C27   A    
C20   H8    S    
C32   N8    S    
O1    C3    A    
C12   H2    S    
C40   C50   A    
O24   H22   S    
N8    H36   S    
V2    O20   S    
C49   C52   A    
O16   V4    S    
C48   C52   A    
C40   C42   A    
C47   C51   A    
N6    H30   S    
O26   H32   S    
N4    H26   S    
C18   C28   A    
O5    V1    S    
O17   C7    A    
O6    V2    S    
N3    H23   S    
O10   C6    A    
O18   C8    A    
O2    V4    S    
C44   N1    S    
O15   C5    A    
V3    O19   S    
O25   H31   S    
V4    O20   S    
C23   H9    S    
C7    C14   S    
C24   H10   S    
C34   C37   S    
C17   N5    S    
C3    C52   S    
O9    C5    A    
O13   V1    S    
C26   C28   A    
O14   V2    S    
N2    H17   S    
O2    C4    A    
N7    H34   S    
C39   H13   S    
O4    V2    S    
O6    C8    A    
C34   C36   S    
C37   H11   S    
C42   O22   S    
C12   C15   S    
C36   C38   S    
C41   O21   S    
C21   C23   A    
C15   H5    S    
C40   H14   S    
N8    H35   S    
