data_mof_unit_42805.cif
_audit_creation_date              2012-12-10T16:57:03-0500
_audit_creation_method            fapswitch 2.2
_symmetry_space_group_name_H-M    P1
_symmetry_Int_Tables_number       1
_space_group_crystal_system       triclinic
_cell_length_a                    7.770737
_cell_length_b                    8.615367
_cell_length_c                    17.008522
_cell_angle_alpha                 92.456073
_cell_angle_beta                  81.450178
_cell_angle_gamma                 93.272865
_cell_volume                      1123.51022019

loop_
_atom_site_label
_atom_site_type_symbol
_atom_type_description
_atom_site_fract_x
_atom_site_fract_y
_atom_site_fract_z
_atom_type_partial_charge
C1    C     C_R   0.544992 0.794331 0.499413 0.868661
C2    C     C_R   0.368377 0.509611 0.231432 -0.214546
C3    C     C_R   0.646176 0.514549 0.848112 0.028205
C4    C     C_R   0.353823 0.485447 0.151888 0.028205
C5    C     C_R   0.507005 0.577303 0.899339 0.107483
C6    C     C_R   0.492994 0.422694 0.100661 0.107483
C7    C     C_R   0.361353 0.626272 0.870219 -0.190697
C8    C     C_R   0.638646 0.373725 0.129781 -0.190697
C9    C     C_R   0.346930 0.604001 0.790019 -0.015415
C10   C     C_R   0.653069 0.395997 0.209982 -0.015415
C11   C     C_2   0.497585 0.569391 0.984385 -0.199637
C12   C     C_R   0.455007 0.205669 0.500587 0.868660
C13   C     C_2   0.502414 0.430605 0.015615 -0.199637
C14   C     C_1   0.806288 0.342221 0.236899 0.207365
C15   C     C_1   0.193712 0.657777 0.763102 0.207365
C16   C     C_1   0.197097 0.528868 0.123688 0.168892
C17   C     C_1   0.802902 0.471128 0.876312 0.168891
C18   C     C_2   0.563463 0.957574 0.510077 0.184027
C19   C     C_2   0.436536 0.042426 0.489923 0.184028
C20   C     C_R   0.480254 0.508096 0.653556 0.856059
C21   C     C_R   0.519746 0.491903 0.346444 0.856059
C22   C     C_R   0.481585 0.531372 0.738848 -0.102525
C23   C     C_R   0.518415 0.468627 0.261152 -0.102525
C24   C     C_R   0.631622 0.490387 0.768568 -0.214546
H1    H     H_    0.738181 0.437956 0.729931 0.190708
H2    H     H_    0.056134 0.721337 0.585449 0.352733
H3    H     H_    0.261818 0.562043 0.270069 0.190708
H4    H     H_    0.527191 0.326040 0.978462 0.162937
H5    H     H_    0.472809 0.673956 0.021538 0.162936
H6    H     H_    0.255431 0.675214 0.910872 0.159460
H7    H     H_    0.744568 0.324782 0.089128 0.159460
H8    H     H_    0.767778 0.941248 0.564096 0.367646
H9    H     H_    0.232221 0.058753 0.435905 0.367646
H10   H     H_    0.943866 0.278662 0.414551 0.352733
N1    N     N_2   0.953500 0.457650 0.478520 0.187893
N2    N     N_2   0.046500 0.542350 0.521480 0.187893
N3    N     N_1   0.929604 0.298698 0.257790 -0.195252
N4    N     N_1   0.070395 0.701301 0.742210 -0.195252
N5    N     N_1   0.071999 0.563764 0.100979 -0.198993
N6    N     N_1   0.928000 0.436232 0.899021 -0.198993
O1    O     O_R   0.388470 0.738640 0.505270 -0.583885
O2    O     O_3   0.302592 0.976114 0.451678 -0.759434
O3    O     O_3   0.036285 0.341119 0.437496 -0.655348
O4    O     O_3   0.963715 0.658881 0.562504 -0.655347
O5    O     O_R   0.611530 0.261360 0.494730 -0.583885
O6    O     O_R   0.679650 0.711510 0.491500 -0.589686
O7    O     O_R   0.320350 0.288490 0.508500 -0.589686
O8    O     O_R   0.337210 0.515200 0.623500 -0.632316
O9    O     O_R   0.662790 0.484800 0.376500 -0.632316
O10   O     O_R   0.628380 0.488060 0.609730 -0.581783
O11   O     O_R   0.371620 0.511940 0.390270 -0.581783
O12   O     O_3   0.697408 0.023886 0.548323 -0.759436
Zn1   Zn    Zn3+2 0.305580 0.518120 0.509190 1.077448
Zn2   Zn    Zn3+2 0.694420 0.481880 0.490810 1.077448

loop_
_geom_bond_atom_site_label_1
_geom_bond_atom_site_label_2
_ccdc_geom_bond_type
C4    C16   S    
C2    C4    A    
C15   N4    T    
C5    C11   S    
C2    H3    S    
C10   C23   A    
N1    O3    S    
N1    N2    D    
C19   O2    S    
O7    Zn1   S    
O6    Zn2   S    
C21   O9    A    
C9    C15   S    
C3    C5    A    
C18   O12   S    
C13   H4    S    
C7    H6    S    
C20   O8    A    
N1    Zn2   S    
C11   C13   D    
O1    Zn1   S    
C1    C18   S    
O10   Zn2   S    
C12   O7    A    
C6    C8    A    
H9    O2    S    
C12   C19   S    
C4    C6    A    
C20   C22   S    
O5    Zn2   S    
C3    C17   S    
C21   C23   S    
O8    Zn1   S    
C1    O6    A    
C22   C24   A    
C9    C22   A    
N2    O4    S    
C16   N5    T    
H2    O4    S    
O9    Zn2   S    
C7    C9    A    
C21   O11   A    
C24   H1    S    
C11   H5    S    
C6    C13   S    
C8    C10   A    
C18   C19   D    
C10   C14   S    
C1    O1    A    
C2    C23   A    
C5    C7    A    
H8    O12   S    
C20   O10   A    
N2    Zn1   S    
O11   Zn1   S    
C8    H7    S    
H10   O3    S    
C3    C24   A    
C12   O5    A    
C14   N3    T    
C17   N6    T    
