data_mof_unit_45726.cif
_audit_creation_date              2012-12-10T18:21:25-0500
_audit_creation_method            fapswitch 2.2
_symmetry_space_group_name_H-M    P1
_symmetry_Int_Tables_number       1
_space_group_crystal_system       triclinic
_cell_length_a                    14.976019
_cell_length_b                    14.006688
_cell_length_c                    10.641672
_cell_angle_alpha                 89.953248
_cell_angle_beta                  89.865652
_cell_angle_gamma                 90.215191
_cell_volume                      2232.22157486

loop_
_atom_site_label
_atom_site_type_symbol
_atom_type_description
_atom_site_fract_x
_atom_site_fract_y
_atom_site_fract_z
_atom_type_partial_charge
C1    C     C_R   0.326782 0.499818 0.500493 0.889860
C2    C     C_R   0.050837 0.639355 0.648183 -0.224283
C3    C     C_R   0.095312 0.570263 0.577890 0.123207
C4    C     C_R   0.500220 0.500223 0.257674 0.817398
C5    C     C_R   0.047096 0.499002 0.513415 0.069700
C6    C     C_R   0.092282 0.426833 0.446042 0.127444
C7    C     C_R   0.044599 0.356050 0.382233 -0.208090
C8    C     C_R   0.952003 0.356879 0.384291 -0.203112
C9    C     C_R   0.187606 0.570688 0.571737 -0.241072
C10   C     C_R   0.231469 0.499376 0.504649 -0.064415
C11   C     C_R   0.184669 0.426944 0.443458 -0.259305
C12   C     C_3   0.501532 0.604939 0.928249 -0.365429
C13   C     C_R   0.552602 0.798359 0.416158 -0.021918
C14   C     C_R   0.552587 0.202160 0.416131 -0.059569
C15   C     C_R   0.447682 0.797841 0.584108 -0.051560
C16   C     C_R   0.447635 0.201618 0.584042 -0.060553
C17   C     C_R   0.446491 0.898507 0.586221 0.018527
C18   C     C_R   0.446455 0.100935 0.586170 0.014909
C19   C     C_R   0.673294 0.500260 0.504854 0.868785
C20   C     C_R   0.500200 0.949371 0.500188 0.085733
C21   C     C_R   0.500183 0.050612 0.500165 0.087797
C22   C     C_R   0.553900 0.899042 0.414153 0.014384
C23   C     C_R   0.814828 0.429268 0.451088 -0.248013
C24   C     C_R   0.553878 0.101483 0.414122 0.015509
C25   C     C_R   0.393124 0.949282 0.671814 -0.198656
C26   C     C_R   0.393102 0.049617 0.671784 -0.202599
C27   C     C_R   0.607290 0.050700 0.328582 -0.204919
C28   C     C_R   0.607298 0.950359 0.328595 -0.182323
C29   C     C_R   0.500298 0.500166 0.742417 0.832139
C30   C     C_3   0.415129 0.447855 0.071810 -0.168550
C31   C     C_3   0.584610 0.446555 0.071399 -0.165720
C32   C     C_3   0.415165 0.449365 0.926803 -0.401269
C33   C     C_3   0.584738 0.448167 0.926325 -0.400567
C34   C     C_R   0.769097 0.500709 0.515115 -0.145679
C35   C     C_3   0.501568 0.605315 0.070834 -0.329659
C36   C     C_3   0.500388 0.500819 0.121215 0.067219
C37   C     C_3   0.500450 0.500600 0.878516 0.108824
C38   C     C_2   0.328580 0.485519 0.126519 0.391447
C39   C     C_2   0.671817 0.482865 0.125908 0.386171
C40   C     C_2   0.762666 0.642429 0.659539 0.435719
C41   C     C_R   0.814396 0.571820 0.584679 -0.072753
C42   C     C_R   0.908349 0.571572 0.584806 0.083271
C43   C     C_R   0.953928 0.499835 0.516141 0.035578
C44   C     C_R   0.906751 0.428277 0.450562 0.126953
C45   C     C_R   0.958289 0.639381 0.653171 -0.159366
H1    H     H_    0.225479 0.625325 0.620758 0.149788
H2    H     H_    0.351359 0.087053 0.738689 0.142208
H3    H     H_    0.649030 0.088559 0.261675 0.140856
H4    H     H_    0.649035 0.912918 0.261687 0.152813
H5    H     H_    0.413015 0.374559 0.891439 0.155202
H6    H     H_    0.585494 0.373373 0.890904 0.163955
H7    H     H_    0.355038 0.485710 0.888559 0.195104
H8    H     H_    0.645565 0.483692 0.887805 0.185841
H9    H     H_    0.442761 0.645833 0.105413 0.213401
H10   H     H_    0.561296 0.644739 0.105070 0.206777
H11   H     H_    0.441821 0.644362 0.894085 0.187266
H12   H     H_    0.220205 0.371851 0.392302 0.144970
H13   H     H_    0.562019 0.643405 0.893560 0.193444
H14   H     H_    0.778424 0.375203 0.398844 0.146367
H15   H     H_    0.927169 0.692985 0.711273 0.199050
H16   H     H_    0.296792 0.447228 0.203210 0.052718
H17   H     H_    0.702231 0.444576 0.203401 0.051325
H18   H     H_    0.087686 0.693180 0.699940 0.156670
H19   H     H_    0.419081 0.371678 0.101537 0.105716
H20   H     H_    0.579072 0.370427 0.101055 0.099369
H21   H     H_    0.708533 0.618114 0.719727 0.057993
H22   H     H_    0.078869 0.300507 0.330443 0.147971
H23   H     H_    0.915730 0.301867 0.333920 0.145698
H24   H     H_    0.593404 0.758261 0.350884 0.142051
H25   H     H_    0.593412 0.242665 0.350870 0.123115
H26   H     H_    0.406858 0.757346 0.649370 0.127163
H27   H     H_    0.406794 0.241698 0.649283 0.132179
H28   H     H_    0.351392 0.911422 0.738732 0.144051
N1    N     N_R   0.500070 0.750030 0.500050 -0.105250
N2    N     N_R   0.500070 0.249970 0.500050 -0.102477
O1    O     O_R   0.367860 0.580280 0.500020 -0.614626
O2    O     O_2   0.707313 0.555848 0.087063 -0.572798
O3    O     O_2   0.776502 0.727993 0.648840 -0.565450
O4    O     O_R   0.367860 0.419720 0.500020 -0.627800
O5    O     O_R   0.500000 0.580270 0.314790 -0.617676
O6    O     O_R   0.500000 0.419730 0.314790 -0.648012
O7    O     O_R   0.632160 0.580270 0.499960 -0.607264
O8    O     O_R   0.632160 0.419730 0.499960 -0.621944
O9    O     O_R   0.500030 0.580270 0.685200 -0.638380
O10   O     O_R   0.500030 0.419730 0.685200 -0.626277
O11   O     O_2   0.295060 0.559450 0.088571 -0.572111
Zn1   Zn    Zn3+2 0.500020 0.607200 0.499990 0.963753
Zn2   Zn    Zn3+2 0.500020 0.392800 0.499990 0.932057

loop_
_geom_bond_atom_site_label_1
_geom_bond_atom_site_label_2
_ccdc_geom_bond_type
C27   H3    S    
C4    C36   S    
C45   H15   S    
C30   H19   S    
C18   C21   A    
C41   C42   A    
C35   C36   S    
C16   H27   S    
O9    Zn1   S    
C7    C8    A    
C23   H14   S    
C38   O11   D    
C39   O2    D    
C4    O5    A    
O5    Zn1   S    
C5    C6    A    
O7    Zn1   S    
C16   N2    A    
C17   C20   A    
C30   C38   S    
C31   H20   S    
C14   C24   A    
C12   C37   S    
C32   H7    S    
C4    O6    A    
C18   C26   A    
C24   C27   A    
N1    Zn1   S    
C19   O7    A    
C9    C10   A    
C29   O10   A    
C38   H16   S    
C12   H13   S    
O8    Zn2   S    
C5    C43   A    
C9    H1    S    
C22   C28   A    
C35   H9    S    
C14   H25   S    
C34   C41   A    
C19   O8    A    
O4    Zn2   S    
C2    C45   A    
C33   H8    S    
C35   H10   S    
C29   O9    A    
C6    C11   A    
C25   C26   A    
C33   C37   S    
C23   C44   A    
C42   C45   A    
C43   C44   A    
C3    C9    A    
C28   H4    S    
C23   C34   A    
C31   C33   S    
C32   C37   S    
C20   C21   A    
C12   C35   S    
O1    Zn1   S    
C32   H5    S    
C12   H11   S    
C26   H2    S    
C40   C41   S    
C20   C22   A    
C8    H23   S    
C1    O4    A    
C40   O3    D    
C42   C43   A    
C2    H18   S    
O10   Zn2   S    
C15   C17   A    
C39   H17   S    
C1    O1    A    
C1    C10   S    
C8    C44   A    
C3    C5    A    
C19   C34   S    
C6    C7    A    
C33   H6    S    
C15   H26   S    
C30   C36   S    
C17   C25   A    
C14   N2    A    
C2    C3    A    
C30   C32   S    
C13   H24   S    
C31   C39   S    
C13   C22   A    
C25   H28   S    
O6    Zn2   S    
C10   C11   A    
C7    H22   S    
N2    Zn2   S    
C15   N1    A    
C13   N1    A    
C16   C18   A    
C21   C24   A    
C29   C37   S    
C27   C28   A    
C31   C36   S    
C40   H21   S    
C11   H12   S    
