data_mof_unit_40639.cif
_audit_creation_date              2012-12-11T15:58:47-0500
_audit_creation_method            fapswitch 2.2
_symmetry_space_group_name_H-M    P1
_symmetry_Int_Tables_number       1
_space_group_crystal_system       triclinic
_cell_length_a                    8.299244
_cell_length_b                    18.781646
_cell_length_c                    19.055491
_cell_angle_alpha                 99.021662
_cell_angle_beta                  94.612806
_cell_angle_gamma                 92.231951
_cell_volume                      2919.98637636

loop_
_atom_site_label
_atom_site_type_symbol
_atom_type_description
_atom_site_fract_x
_atom_site_fract_y
_atom_site_fract_z
_atom_type_partial_charge
Ba1   Ba    Ba6+2 0.152460 0.535140 0.468980 1.723088
Ba2   Ba    Ba6+2 0.657710 0.464850 0.530960 1.708699
C1    C     C_3   0.379968 0.721498 0.218287 -0.268325
C2    C     C_R   0.094669 0.904619 0.567434 0.038425
C3    C     C_R   0.252089 0.927838 0.596751 -0.077318
C4    C     C_3   0.901427 0.729955 0.269020 0.770392
C5    C     C_R   0.314370 0.997154 0.592455 -0.044431
C6    C     C_R   0.219719 0.045061 0.559647 0.053623
C7    C     C_R   0.061818 0.022485 0.529623 0.026419
C8    C     C_R   0.279827 0.115545 0.558037 -0.068669
C9    C     C_R   0.182684 0.165639 0.528930 -0.017982
C10   C     C_R   0.025639 0.142615 0.496323 0.088110
C11   C     C_R   0.966301 0.070554 0.496594 0.030272
C12   C     C_3   0.406564 0.702509 0.293115 0.686132
C13   C     C_R   0.233947 0.239278 0.535703 -0.000993
C14   C     C_R   0.128276 0.288633 0.511277 -0.278015
C15   C     C_R   0.978570 0.266471 0.473306 0.048124
C16   C     C_3   0.946061 0.784612 0.220800 0.270190
C17   C     C_R   0.926229 0.191816 0.465156 0.034103
C18   C     C_R   0.842395 0.928473 0.502663 0.044696
C19   C     C_R   0.782604 0.856702 0.503907 0.035158
C20   C     C_R   0.881722 0.807833 0.535598 -0.078738
C21   C     C_R   0.033124 0.834541 0.570881 -0.027913
C22   C     C_R   0.776634 0.164689 0.428449 -0.008801
C23   C     C_3   0.512903 0.684868 0.649475 0.305263
C24   C     C_R   0.716322 0.093895 0.430283 -0.003661
C25   C     C_R   0.809713 0.047074 0.465622 0.011361
C26   C     C_R   0.747027 0.976395 0.469121 -0.040783
C27   C     C_R   0.561904 0.069648 0.398119 -0.125912
C28   C     C_3   0.755084 0.368429 0.308947 0.682937
C29   C     C_R   0.495469 0.000776 0.403613 0.375746
C30   C     C_R   0.588968 0.953704 0.438919 0.031221
C31   C     C_R   0.624469 0.833944 0.472691 -0.124917
C32   C     C_R   0.528087 0.883673 0.442844 -0.077657
C33   C     C_R   0.570244 0.760997 0.468532 -0.008637
C34   C     C_3   0.526688 0.765926 0.674710 -0.364790
C35   C     C_R   0.677423 0.711131 0.491545 0.139766
C36   C     C_R   0.828776 0.733503 0.528233 0.025276
C37   C     C_R   0.604774 0.537285 0.302833 -0.193434
C38   C     C_R   0.458642 0.498538 0.278086 0.043109
C39   C     C_R   0.403288 0.492417 0.205647 -0.141785
C40   C     C_3   0.684174 0.333525 0.234625 -0.237837
C41   C     C_R   0.495008 0.523351 0.157707 -0.002976
C42   C     C_R   0.646023 0.559166 0.183299 -0.128247
C43   C     C_R   0.701704 0.565532 0.255523 0.056052
C44   C     C_R   0.451751 0.573404 0.043002 -0.132642
C45   C     C_3   0.942827 0.272237 0.737985 0.249237
C46   C     C_R   0.398742 0.566238 0.969776 0.399108
C47   C     C_R   0.334847 0.498594 0.932592 0.042664
C48   C     C_R   0.319528 0.440523 0.970518 -0.152745
C49   C     C_R   0.369542 0.448665 0.043417 -0.078501
C50   C     C_R   0.437630 0.515004 0.080421 0.025439
C51   C     C_R   0.139471 0.450053 0.825325 -0.136012
C52   C     C_3   0.018440 0.619032 0.687728 0.281297
C53   C     C_R   0.095796 0.440198 0.751516 0.002158
C54   C     C_R   0.342127 0.506238 0.734221 0.002543
C55   C     C_R   0.388237 0.515022 0.807482 -0.080760
C56   C     C_3   0.894632 0.214662 0.785493 -0.230380
C57   C     C_R   0.286995 0.487517 0.854149 0.025793
C58   C     C_R   0.199205 0.466968 0.706460 -0.241581
C59   C     C_3   0.043100 0.637799 0.768577 -0.345442
C60   C     C_3   0.249167 0.309522 0.334170 0.206229
C61   C     C_3   0.171585 0.247317 0.275915 -0.120416
C62   C     C_2   0.352162 0.285233 0.392890 0.464468
C63   C     C_2   0.064777 0.193263 0.303953 0.469523
C64   C     C_2   0.294401 0.210936 0.229675 0.588231
C65   C     C_2   0.974395 0.237949 0.664262 0.468861
C66   C     C_2   0.737139 0.173158 0.755068 0.454048
C67   C     C_3   0.421632 0.318058 0.713113 0.748571
C68   C     C_2   0.018117 0.157702 0.791356 0.481909
C69   C     C_2   0.881260 0.254262 0.860693 0.464665
C70   C     C_2   0.936841 0.749124 0.143766 0.399265
C71   C     C_3   0.447867 0.306889 0.790537 0.315472
C72   C     C_R   0.999602 0.951755 0.533028 0.029151
H1    H     H_    0.368268 0.644692 0.289564 0.042007
H2    H     H_    0.149823 0.339901 0.358059 0.000567
H3    H     H_    0.467484 0.693879 0.183862 0.055521
H4    H     H_    0.090233 0.273473 0.239540 -0.007712
H5    H     H_    0.398725 0.780528 0.219718 0.147140
H6    H     H_    0.633704 0.667178 0.635209 -0.006410
H7    H     H_    0.422782 0.674027 0.602245 0.027866
H8    H     H_    0.617766 0.779114 0.721425 0.141026
H9    H     H_    0.565047 0.794017 0.631223 0.023147
H10   H     H_    0.407670 0.785268 0.690000 0.121991
H11   H     H_    0.256883 0.702961 0.194576 0.111356
H12   H     H_    0.606545 0.285063 0.238465 0.081804
H13   H     H_    0.856050 0.827468 0.226457 0.047836
H14   H     H_    0.057489 0.300671 0.764033 0.051231
H15   H     H_    0.290986 0.324406 0.699841 -0.462719
H16   H     H_    0.491561 0.368622 0.709166 -0.026197
H17   H     H_    0.407646 0.354291 0.825456 -0.068871
H18   H     H_    0.578002 0.302167 0.805183 0.033879
H19   H     H_    0.327816 0.892140 0.622567 0.061863
H20   H     H_    0.436345 0.013562 0.615521 0.080084
H21   H     H_    0.166987 0.345183 0.518750 0.049855
H22   H     H_    0.401009 0.131328 0.582132 0.104021
H23   H     H_    0.610700 0.372149 0.209256 0.047544
H24   H     H_    0.107619 0.800685 0.599358 0.091202
H25   H     H_    0.703898 0.198664 0.399549 0.125548
H26   H     H_    0.492068 0.104198 0.368551 0.184231
H27   H     H_    0.406245 0.867602 0.420208 0.168762
H28   H     H_    0.778526 0.708911 0.247345 -0.146783
H29   H     H_    0.501176 0.544560 0.827995 0.123478
H30   H     H_    0.502221 0.625050 0.071007 0.072882
H31   H     H_    0.290235 0.462270 0.186488 0.102918
H32   H     H_    0.271665 0.388093 0.943277 0.138403
H33   H     H_    0.358652 0.402363 0.070504 0.084282
H34   H     H_    0.782957 0.316546 0.200378 0.106596
H35   H     H_    0.056716 0.430795 0.860153 0.109411
H36   H     H_    0.722979 0.579462 0.146785 0.057633
H37   H     H_    0.162878 0.461648 0.649969 0.056311
H38   H     H_    0.649424 0.540060 0.358081 0.106775
H39   H     H_    0.653886 0.386965 0.340782 -0.040394
H40   H     H_    0.388460 0.324172 0.440033 0.013350
H41   H     H_    0.935720 0.191617 0.291108 0.011640
H42   H     H_    0.341123 0.238086 0.188794 -0.028084
H43   H     H_    0.596272 0.765551 0.322248 0.291604
H44   H     H_    0.099168 0.226590 0.653019 0.027776
H45   H     H_    0.133116 0.601528 0.666687 0.002341
H46   H     H_    0.717843 0.152716 0.698356 0.088474
H47   H     H_    0.013077 0.124949 0.834182 0.031926
H48   H     H_    0.767733 0.253383 0.886170 0.056588
H49   H     H_    0.863057 0.731963 0.368787 0.300526
H50   H     H_    0.381673 0.241458 0.852177 0.325555
H51   H     H_    0.290916 0.018004 0.352854 0.350330
H52   H     H_    0.580737 0.624987 0.513372 0.290613
H53   H     H_    0.451484 0.667826 0.967795 0.319505
H54   H     H_    0.111245 0.860596 0.220508 0.318582
H55   H     H_    0.010432 0.703977 0.127379 0.016233
H56   H     H_    0.924077 0.574578 0.673503 0.073075
H57   H     H_    0.865476 0.460062 0.347620 0.305239
H58   H     H_    0.143091 0.679609 0.784265 0.149408
H59   H     H_    0.073364 0.589511 0.792448 0.077713
H60   H     H_    0.930470 0.658608 0.789911 0.132590
O1    O     O_2   0.118870 0.674530 0.547560 -0.473800
O2    O     O_2   0.772220 0.456880 0.745255 -0.495522
O3    O     O_3   0.818599 0.321146 0.733121 -0.606536
O4    O     O_3   0.870460 0.585330 0.542110 -0.455899
O5    O     O_3   0.436130 0.464210 0.414140 -0.496545
O6    O     O_2   0.629420 0.533310 0.672080 -0.456332
O7    O     O_3   0.462308 0.650181 0.704487 -0.623481
O8    O     O_2   0.574901 0.242629 0.538129 -0.418182
O9    O     O_3   0.476324 0.259593 0.667115 -0.579420
O10   O     O_3   0.354280 0.631750 0.418430 -0.442594
O11   O     O_2   0.228005 0.755266 0.470148 -0.474811
O12   O     O_3   0.350096 0.352982 0.301140 -0.689318
O13   O     O_3   0.970792 0.680735 0.660818 -0.645598
O14   O     O_3   0.315494 0.745447 0.340927 -0.532993
O15   O     O_2   0.180880 0.466650 0.327890 -0.412434
O16   O     O_3   0.939000 0.596010 0.380670 -0.457797
O17   O     O_2   0.018870 0.535988 0.253902 -0.446507
O18   O     O_2   0.401316 0.224792 0.387916 -0.582934
O19   O     O_2   0.120882 0.150128 0.339620 -0.553502
O20   O     O_2   0.342353 0.151913 0.237088 -0.537156
O21   O     O_3   0.570602 0.712699 0.315888 -0.818809
O22   O     O_2   0.861758 0.220685 0.618509 -0.579959
O23   O     O_3   0.008659 0.673540 0.265588 -0.623038
O24   O     O_2   0.634056 0.157920 0.793436 -0.558245
O25   O     O_2   0.119814 0.145343 0.748016 -0.542115
O26   O     O_2   0.999224 0.287961 0.894392 -0.605949
O27   O     O_3   0.906168 0.766673 0.339543 -0.681355
O28   O     O_3   0.360404 0.245265 0.800750 -0.635908
O29   O     O_3   0.340787 0.978231 0.373949 -0.705381
O30   O     O_3   0.638506 0.638687 0.473830 -0.703463
O31   O     O_3   0.404654 0.624907 0.934266 -0.734580
O32   O     O_3   0.101371 0.816338 0.242788 -0.680544
O33   O     O_2   0.844979 0.770501 0.099094 -0.570647
O34   O     O_2   0.691430 0.325420 0.452420 -0.469433
O35   O     O_3   0.860748 0.425976 0.301751 -0.716288
O36   O     O_3   0.939830 0.414660 0.457830 -0.499330
O37   O     O_3   0.456020 0.368240 0.581510 -0.491009
O38   O     O_3   0.841971 0.316888 0.339105 -0.678064
O39   O     O_3   0.374170 0.535780 0.585810 -0.492551
O40   O     O_3   0.871300 0.403980 0.619270 -0.455174
P1    P     P_3+3 0.947550 0.663200 0.567530 1.008247
P2    P     P_3+3 0.354660 0.445020 0.336980 0.981086
P3    P     P_3+3 0.913517 0.595572 0.287989 0.994238
P4    P     P_3+3 0.862750 0.336790 0.432410 0.964926
P5    P     P_3+3 0.893330 0.403803 0.712375 0.967717
P6    P     P_3+3 0.366103 0.725325 0.426630 1.061410
P7    P     P_3+3 0.450218 0.556676 0.675638 0.952918
P8    P     P_3+3 0.435230 0.275577 0.579266 1.033097

loop_
_geom_bond_atom_site_label_1
_geom_bond_atom_site_label_2
_ccdc_geom_bond_type
C15   P4    S    
C6    C7    A    
C42   H36   S    
C23   H7    S    
C61   C63   S    
Ba1   P2    S    
C12   O14   S    
C12   O21   S    
C1    H11   S    
C23   H6    S    
C63   H41   S    
O37   P8    S    
C48   H32   S    
C1    H5    S    
C51   C57   A    
C59   H59   S    
C5    C6    A    
C69   O26   D    
O2    P5    D    
Ba1   O39   S    
C24   C25   A    
C35   C36   A    
C64   H42   S    
O36   P4    S    
C37   H38   S    
Ba2   O5    S    
C33   C35   A    
C22   C24   A    
C68   O25   D    
Ba2   O39   S    
H49   O27   S    
O13   P1    S    
C41   C50   S    
O17   P3    D    
C19   C31   A    
C54   P7    S    
C34   H9    S    
O38   P4    S    
C13   C14   A    
C22   H25   S    
C13   P8    S    
C44   C50   A    
Ba1   O36   S    
C54   C55   A    
O11   P6    D    
Ba1   Ba2   S    
C7    C11   A    
C60   C62   S    
C69   H48   S    
C59   H58   S    
C15   C17   A    
C9    C13   A    
H57   O35   S    
C46   O31   S    
O10   P6    S    
C34   H8    S    
C14   C15   A    
C16   C70   S    
O12   P2    S    
H43   O21   S    
C63   O19   D    
Ba1   O15   S    
C40   H12   S    
C8    H22   S    
C2    C72   A    
C28   H39   S    
Ba1   O5    S    
C43   P3    S    
Ba2   O37   S    
C37   C43   A    
C53   C58   A    
C61   C64   S    
O39   P7    S    
O14   P6    S    
C19   C20   A    
H54   O32   S    
C39   C41   A    
C60   H2    S    
O5    P2    S    
H51   O29   S    
C28   C40   S    
C49   H33   S    
C52   H56   S    
C45   C65   S    
C59   H60   S    
C48   C49   A    
H50   O28   S    
C51   C53   A    
C16   O32   S    
C55   H29   S    
C4    C16   S    
C29   O29   S    
C32   H27   S    
C62   H40   S    
C49   C50   A    
Ba2   O4    S    
O9    P8    S    
C70   H55   S    
C71   H17   S    
C40   H23   S    
C37   C38   A    
C3    C5    A    
C2    C21   A    
C56   C68   S    
C18   C26   A    
C44   H30   S    
C54   C58   A    
C65   O22   D    
C30   C32   A    
C41   C42   A    
C28   O35   S    
C71   O28   S    
C29   C30   A    
O3    P5    S    
C4    O27   S    
C26   C30   A    
H53   O31   S    
C45   O3    S    
C60   C61   S    
C31   C32   A    
C18   C72   A    
Ba1   O16   S    
O23   P3    S    
C10   C11   A    
C67   C71   S    
H52   O30   S    
C28   O38   S    
C1    C12   S    
C39   H31   S    
Ba2   O36   S    
O16   P3    S    
C56   C66   S    
C38   C39   A    
O8    P8    D    
C62   O18   D    
C35   O30   S    
C70   O33   D    
C7    C72   A    
C67   H16   S    
C1    H3    S    
Ba2   O34   S    
O4    P1    S    
C4    O23   S    
C42   C43   A    
C64   O20   D    
C51   H35   S    
C33   P6    S    
C5    H20   S    
Ba1   P1    S    
C14   H21   S    
C27   H26   S    
C53   P5    S    
C23   O7    S    
O6    P7    D    
C71   H18   S    
C2    C3    A    
C3    H19   S    
C9    C10   A    
C52   C59   S    
C67   O9    S    
C38   P2    S    
C67   H15   S    
C16   H13   S    
C47   C57   S    
O15   P2    D    
Ba2   O6    S    
C45   H14   S    
C17   C22   A    
C66   O24   D    
C27   C29   A    
C58   H37   S    
Ba1   O1    S    
C66   H46   S    
C45   C56   S    
C68   H47   S    
C36   P1    S    
C34   H10   S    
C46   C47   A    
C10   C17   A    
C31   C33   A    
O7    P7    S    
C4    H28   S    
C56   C69   S    
C65   H44   S    
C55   C57   A    
C8    C9    A    
C23   C34   S    
C44   C46   A    
C21   H24   S    
C18   C19   A    
C24   C27   A    
C6    C8    A    
C47   C48   A    
C60   O12   S    
C25   C26   A    
Ba1   O10   S    
C20   C21   A    
C11   C25   A    
Ba2   P4    S    
C52   H45   S    
C40   H34   S    
O40   P5    S    
O34   P4    D    
Ba2   O40   S    
Ba1   O4    S    
C12   H1    S    
O1    P1    D    
C52   O13   S    
C61   H4    S    
C20   C36   A    
