data_mof_unit_35626.cif
_audit_creation_date              2012-12-11T15:41:20-0500
_audit_creation_method            fapswitch 2.2
_symmetry_space_group_name_H-M    P1
_symmetry_Int_Tables_number       1
_space_group_crystal_system       triclinic
_cell_length_a                    19.120592
_cell_length_b                    11.008306
_cell_length_c                    18.83618
_cell_angle_alpha                 89.986631
_cell_angle_beta                  89.622113
_cell_angle_gamma                 89.984549
_cell_volume                      3964.65303762

loop_
_atom_site_label
_atom_site_type_symbol
_atom_type_description
_atom_site_fract_x
_atom_site_fract_y
_atom_site_fract_z
_atom_type_partial_charge
C1    C     C_R   0.724473 0.960156 0.855637 0.587448
C2    C     C_R   0.299936 0.474023 0.037675 -0.025073
C3    C     C_R   0.759643 0.862635 0.353077 0.529311
C4    C     C_2   0.496973 0.168286 0.920914 -0.072332
C5    C     C_2   0.503034 0.168297 0.079082 -0.072187
C6    C     C_2   0.996973 0.668286 0.920914 -0.072333
C7    C     C_2   0.003034 0.668297 0.079082 -0.072182
C8    C     C_2   0.493656 0.069373 0.038650 -0.116392
C9    C     C_2   0.506391 0.069367 0.961373 -0.115894
C10   C     C_2   0.993656 0.569373 0.038650 -0.116392
C11   C     C_2   0.006391 0.569367 0.961373 -0.115895
C12   C     C_R   0.764616 0.434095 0.069181 -0.112165
C13   C     C_R   0.200010 0.973956 0.962311 -0.025575
C14   C     C_R   0.235411 0.434015 0.930792 -0.112653
C15   C     C_R   0.264616 0.934095 0.069181 -0.112163
C16   C     C_R   0.735411 0.934014 0.930792 -0.112652
C17   C     C_2   0.867769 0.483996 0.596737 0.577613
C18   C     C_2   0.088859 0.222221 0.437454 0.609029
C19   C     C_2   0.367739 0.984046 0.596755 0.577651
C20   C     C_2   0.588925 0.721996 0.437501 0.609264
C21   C     C_2   0.867793 0.290569 0.057229 0.668315
C22   C     C_2   0.132323 0.290376 0.942713 0.667635
C23   C     C_2   0.367794 0.790569 0.057229 0.668314
C24   C     C_R   0.799936 0.974023 0.037675 -0.025072
C25   C     C_2   0.632323 0.790375 0.942713 0.667635
C26   C     C_R   0.818414 0.399899 0.953439 0.200843
C27   C     C_R   0.181598 0.399722 0.046504 0.201874
C28   C     C_R   0.318414 0.899899 0.953439 0.200842
C29   C     C_R   0.681598 0.899722 0.046504 0.201875
C30   C     C_R   0.818338 0.380808 0.027101 0.031983
C31   C     C_R   0.181725 0.380622 0.972855 0.031747
C32   C     C_R   0.318338 0.880808 0.027101 0.031983
C33   C     C_R   0.275538 0.960188 0.144347 0.582398
C34   C     C_R   0.681725 0.880621 0.972855 0.031748
C35   C     C_3   0.633253 0.465354 0.051409 0.522413
C36   C     C_3   0.366733 0.465582 0.948601 0.522051
C37   C     C_3   0.133253 0.965354 0.051409 0.522409
C38   C     C_3   0.866733 0.965582 0.948601 0.522050
C39   C     C_3   0.625186 0.434206 0.972831 0.492678
C40   C     C_3   0.374794 0.434385 0.027181 0.493607
C41   C     C_3   0.125186 0.934206 0.972831 0.492681
C42   C     C_3   0.874794 0.934385 0.027181 0.493609
C43   C     C_R   0.753789 0.426104 0.919860 -0.062205
C44   C     C_R   0.224472 0.460156 0.855637 0.587453
C45   C     C_R   0.246185 0.426064 0.080109 -0.062101
C46   C     C_R   0.253789 0.926104 0.919860 -0.062205
C47   C     C_R   0.746185 0.926063 0.080109 -0.062104
C48   C     C_R   0.503144 0.171956 0.422801 0.020120
C49   C     C_R   0.515721 0.166027 0.569622 0.035616
C50   C     C_R   0.003116 0.671962 0.422813 0.020137
C51   C     C_R   0.015705 0.666020 0.569631 0.035655
C52   C     C_R   0.500938 0.278378 0.462922 0.084496
C53   C     C_R   0.506708 0.274525 0.534447 0.007999
C54   C     C_R   0.000852 0.778366 0.462944 0.084570
C55   C     C_R   0.775538 0.460188 0.144347 0.582378
C56   C     C_R   0.006637 0.774512 0.534468 0.008086
C57   C     C_R   0.529094 0.059750 0.529692 -0.145103
C58   C     C_R   0.522369 0.062653 0.455694 -0.179714
C59   C     C_R   0.029109 0.559766 0.529693 -0.145157
C60   C     C_R   0.022380 0.562677 0.455696 -0.179777
C61   C     C_R   0.529237 0.177422 0.850388 0.591445
C62   C     C_R   0.470753 0.177426 0.149602 0.591384
C63   C     C_R   0.029237 0.677422 0.850388 0.591440
C64   C     C_R   0.970753 0.677426 0.149602 0.591392
C65   C     C_3   0.445068 0.373686 0.468305 -0.209133
C66   C     C_R   0.708535 0.489206 0.035182 -0.000894
C67   C     C_3   0.453728 0.370128 0.547721 -0.255906
C68   C     C_3   0.944914 0.873543 0.468339 -0.209107
C69   C     C_3   0.953599 0.870009 0.547753 -0.255926
C70   C     C_R   0.750932 0.399758 0.419458 -0.003294
C71   C     C_R   0.242188 0.434770 0.571191 0.013745
C72   C     C_R   0.250930 0.899767 0.419461 -0.003305
C73   C     C_R   0.742198 0.934752 0.571196 0.013694
C74   C     C_R   0.805413 0.352361 0.460264 -0.017605
C75   C     C_R   0.190536 0.371320 0.535326 -0.052402
C76   C     C_R   0.305414 0.852397 0.460270 -0.017623
C77   C     C_R   0.291422 0.489259 0.964798 -0.001454
C78   C     C_R   0.690571 0.871232 0.535343 -0.052272
C79   C     C_R   0.796906 0.326781 0.530736 0.063088
C80   C     C_R   0.189601 0.362339 0.462966 -0.006484
C81   C     C_R   0.296907 0.826800 0.530740 0.063010
C82   C     C_R   0.689616 0.862262 0.462980 -0.006638
C83   C     C_R   0.675280 0.380679 0.523295 -0.100620
C84   C     C_R   0.289223 0.495643 0.455264 -0.109112
C85   C     C_R   0.175270 0.880636 0.523291 -0.100529
C86   C     C_R   0.789198 0.995659 0.455260 -0.109084
C87   C     C_R   0.683076 0.406153 0.450343 0.194385
C88   C     C_R   0.208535 0.989206 0.035182 -0.000892
C89   C     C_R   0.290886 0.503768 0.529685 0.197175
C90   C     C_R   0.183069 0.906134 0.450341 0.194490
C91   C     C_R   0.790870 0.003788 0.529680 0.197198
C92   C     C_3   0.877773 0.401098 0.471068 -0.254039
C93   C     C_3   0.163888 0.246058 0.547544 -0.255175
C94   C     C_3   0.377760 0.901182 0.471081 -0.254017
C95   C     C_3   0.663998 0.745933 0.547576 -0.255246
C96   C     C_3   0.868332 0.373149 0.549339 -0.041944
C97   C     C_3   0.161738 0.234257 0.467091 -0.022978
C98   C     C_3   0.368323 0.873209 0.549349 -0.041926
C99   C     C_R   0.791422 0.989259 0.964798 -0.001453
C100  C     C_3   0.661808 0.734143 0.467124 -0.023054
C101  C     C_R   0.733064 0.344785 0.564356 -0.019257
C102  C     C_R   0.243353 0.414390 0.422160 -0.037193
C103  C     C_R   0.233059 0.844768 0.564355 -0.019291
C104  C     C_R   0.743346 0.914367 0.422164 -0.037299
C105  C     C_R   0.738773 0.365868 0.852042 0.565474
C106  C     C_R   0.261226 0.365845 0.147943 0.552025
C107  C     C_R   0.238773 0.865868 0.852042 0.565478
C108  C     C_R   0.761226 0.865845 0.147943 0.552003
C109  C     C_R   0.727264 0.959029 0.645962 0.540534
C110  C     C_R   0.700010 0.473956 0.962311 -0.025576
C111  C     C_R   0.271538 0.953345 0.351615 0.524038
C112  C     C_R   0.227262 0.459032 0.645961 0.540557
C113  C     C_R   0.771539 0.453345 0.351616 0.524014
C114  C     C_R   0.533064 0.175676 0.643223 0.544435
C115  C     C_R   0.470723 0.176499 0.354343 0.540593
C116  C     C_R   0.033062 0.675675 0.643226 0.544399
C117  C     C_R   0.970720 0.676500 0.354345 0.540629
C118  C     C_R   0.726694 0.314787 0.639169 0.560157
C119  C     C_R   0.259644 0.362640 0.353076 0.529410
C120  C     C_R   0.226692 0.814778 0.639169 0.560145
Cr1   Cr    Cr6+3 0.769260 0.163750 0.750730 1.100469
Cr2   Cr    Cr6+3 0.385810 0.322400 0.252290 1.054268
Cr3   Cr    Cr6+3 0.114190 0.822400 0.747710 1.051465
Cr4   Cr    Cr6+3 0.885810 0.822400 0.252290 1.054237
Cr5   Cr    Cr6+3 0.230740 0.163750 0.249270 1.121209
Cr6   Cr    Cr6+3 0.269260 0.663750 0.750730 1.100493
Cr7   Cr    Cr6+3 0.730740 0.663750 0.249270 1.121332
Cr8   Cr    Cr6+3 0.612640 0.009910 0.748780 1.064375
Cr9   Cr    Cr6+3 0.387360 0.009910 0.251220 1.062385
Cr10  Cr    Cr6+3 0.112640 0.509910 0.748780 1.064347
Cr11  Cr    Cr6+3 0.887360 0.509910 0.251220 1.062489
Cr12  Cr    Cr6+3 0.614190 0.322400 0.747710 1.051448
H1    H     H_    0.475170 0.986213 0.062687 0.219076
H2    H     H_    0.407029 0.334914 0.576619 0.155016
H3    H     H_    0.961080 0.960857 0.443828 0.188726
H4    H     H_    0.906928 0.834716 0.576665 0.155036
H5    H     H_    0.624796 0.392678 0.548276 0.168660
H6    H     H_    0.329306 0.541535 0.424415 0.149652
H7    H     H_    0.124780 0.892596 0.548267 0.168728
H8    H     H_    0.829265 0.041580 0.424405 0.149634
H9    H     H_    0.881448 0.499403 0.457957 0.168314
H10   H     H_    0.112369 0.247328 0.575172 0.189445
H11   H     H_    0.381412 0.999493 0.457977 0.168308
H12   H     H_    0.524907 0.986207 0.937362 0.219108
H13   H     H_    0.612507 0.747129 0.575251 0.189761
H14   H     H_    0.917908 0.343528 0.444798 0.143642
H15   H     H_    0.203562 0.186064 0.572454 0.173104
H16   H     H_    0.417908 0.843651 0.444804 0.143607
H17   H     H_    0.703720 0.686006 0.572457 0.173078
H18   H     H_    0.903446 0.299629 0.568327 0.172737
H19   H     H_    0.199153 0.165771 0.446012 0.146977
H20   H     H_    0.403450 0.799704 0.568332 0.172832
H21   H     H_    0.699249 0.665710 0.446031 0.146953
H22   H     H_    0.522662 0.251035 0.055420 0.219915
H23   H     H_    0.975170 0.486213 0.062687 0.219076
H24   H     H_    0.477331 0.251022 0.944562 0.219784
H25   H     H_    0.022662 0.751035 0.055420 0.219914
H26   H     H_    0.977331 0.751022 0.944562 0.219785
H27   H     H_    0.542614 0.974975 0.555346 0.162801
H28   H     H_    0.526669 0.979311 0.425521 0.163537
H29   H     H_    0.042663 0.475004 0.555339 0.162635
H30   H     H_    0.026711 0.479353 0.425516 0.163878
H31   H     H_    0.633768 0.428423 0.361739 0.345949
H32   H     H_    0.358645 0.535920 0.603066 0.339406
H33   H     H_    0.133766 0.928431 0.361737 0.345882
H34   H     H_    0.024906 0.486207 0.937362 0.219109
H35   H     H_    0.858631 0.035986 0.603053 0.339400
H36   H     H_    0.898461 0.558131 0.689259 0.335995
H37   H     H_    0.988881 0.170012 0.453141 0.327346
H38   H     H_    0.398422 0.058186 0.689280 0.335998
H39   H     H_    0.488874 0.670313 0.453323 0.327389
H40   H     H_    0.877002 0.422748 0.870645 0.333778
H41   H     H_    0.122924 0.422536 0.129228 0.330325
H42   H     H_    0.377002 0.922748 0.870644 0.333782
H43   H     H_    0.622924 0.922536 0.129227 0.330304
H44   H     H_    0.965941 0.225492 0.061251 0.385253
H45   H     H_    0.893430 0.837779 0.451287 0.148763
H46   H     H_    0.034181 0.225390 0.938587 0.384455
H47   H     H_    0.465941 0.725492 0.061250 0.385254
H48   H     H_    0.534181 0.725390 0.938587 0.384455
H49   H     H_    0.050486 0.051308 0.081996 0.379395
H50   H     H_    0.949443 0.051764 0.918133 0.378514
H51   H     H_    0.550486 0.551308 0.081996 0.379399
H52   H     H_    0.449443 0.551764 0.918132 0.378514
H53   H     H_    0.652100 0.300797 0.089082 0.298023
H54   H     H_    0.348065 0.301027 0.910901 0.298707
H55   H     H_    0.152100 0.800797 0.089082 0.298027
H56   H     H_    0.977329 0.954078 0.569685 0.184807
H57   H     H_    0.848065 0.801028 0.910901 0.298706
H58   H     H_    0.656320 0.262968 0.971347 0.283351
H59   H     H_    0.343787 0.263106 0.028636 0.283801
H60   H     H_    0.156321 0.762968 0.971347 0.283352
H61   H     H_    0.843787 0.763106 0.028636 0.283800
H62   H     H_    0.582485 0.493245 0.886740 0.366190
H63   H     H_    0.417454 0.493342 0.113286 0.366839
H64   H     H_    0.082485 0.993245 0.886740 0.366190
H65   H     H_    0.917454 0.993343 0.113286 0.366836
H66   H     H_    0.393561 0.338041 0.451240 0.148838
H67   H     H_    0.477502 0.454155 0.569661 0.184801
H68   H     H_    0.461306 0.460969 0.443801 0.188760
O1    O     O_R   0.784290 0.290360 0.830540 -0.461749
O2    O     O_R   0.456020 0.282110 0.333230 -0.514988
O3    O     O_R   0.043980 0.782110 0.666770 -0.535934
O4    O     O_R   0.956020 0.782110 0.333230 -0.514981
O5    O     O_R   0.679070 0.374030 0.674430 -0.507050
O6    O     O_R   0.320930 0.374030 0.325570 -0.522427
O7    O     O_R   0.179070 0.874030 0.674430 -0.507017
O8    O     O_R   0.820930 0.874030 0.325570 -0.522422
O9    O     O_3   0.665360 0.165350 0.749070 -0.304156
O10   O     O_3   0.334640 0.165350 0.250930 -0.282521
O11   O     O_3   0.165360 0.665350 0.749070 -0.304169
O12   O     O_R   0.215710 0.290360 0.169460 -0.464101
O13   O     O_3   0.834640 0.665350 0.250930 -0.282551
O14   O     O_R   0.762610 0.041070 0.825230 -0.452570
O15   O     O_R   0.237390 0.041070 0.174770 -0.451599
O16   O     O_R   0.262610 0.541070 0.825230 -0.452569
O17   O     O_R   0.737390 0.541070 0.174770 -0.451583
O18   O     O_R   0.667390 0.924160 0.829970 -0.489107
O19   O     O_R   0.332610 0.924160 0.170030 -0.491417
O20   O     O_R   0.167390 0.424160 0.829970 -0.489102
O21   O     O_R   0.832610 0.424160 0.170030 -0.491424
O22   O     O_R   0.553980 0.081420 0.821780 -0.507807
O23   O     O_R   0.284290 0.790360 0.830540 -0.461746
O24   O     O_R   0.446020 0.081420 0.178220 -0.511675
O25   O     O_R   0.053980 0.581420 0.821780 -0.507811
O26   O     O_R   0.946020 0.581420 0.178220 -0.511655
O27   O     O_R   0.543210 0.283170 0.826740 -0.462873
O28   O     O_R   0.456790 0.283170 0.173260 -0.460900
O29   O     O_R   0.043210 0.783170 0.826740 -0.462875
O30   O     O_R   0.956790 0.783170 0.173260 -0.460912
O31   O     O_R   0.678350 0.375000 0.822720 -0.483894
O32   O     O_R   0.321650 0.375000 0.177280 -0.489316
O33   O     O_R   0.178350 0.875000 0.822720 -0.483893
O34   O     O_R   0.715710 0.790360 0.169460 -0.464104
O35   O     O_R   0.821650 0.875000 0.177280 -0.489321
O36   O     O_R   0.785060 0.289300 0.670580 -0.471464
O37   O     O_R   0.214940 0.289300 0.329420 -0.476673
O38   O     O_R   0.285060 0.789300 0.670580 -0.471453
O39   O     O_R   0.714940 0.789300 0.329420 -0.476626
O40   O     O_R   0.763330 0.040090 0.676940 -0.514485
O41   O     O_R   0.236670 0.040090 0.323060 -0.501263
O42   O     O_R   0.263330 0.540090 0.676940 -0.514474
O43   O     O_R   0.736670 0.540090 0.323060 -0.501126
O44   O     O_R   0.668160 0.923110 0.670000 -0.510295
O45   O     O_R   0.554690 0.080440 0.673480 -0.492696
O46   O     O_R   0.331840 0.923110 0.330000 -0.509674
O47   O     O_R   0.168160 0.423110 0.670000 -0.510298
O48   O     O_R   0.831840 0.423110 0.330000 -0.509681
O49   O     O_3   0.624625 0.440826 0.412992 -0.681638
O50   O     O_3   0.342746 0.574568 0.558662 -0.721166
O51   O     O_3   0.124616 0.940792 0.412989 -0.681475
O52   O     O_3   0.842721 0.074617 0.558648 -0.721226
O53   O     O_2   0.835546 0.575475 0.579758 -0.563901
O54   O     O_R   0.903575 0.480124 0.661092 -0.675011
O55   O     O_2   0.077639 0.250251 0.375769 -0.494702
O56   O     O_R   0.445310 0.080440 0.326520 -0.508770
O57   O     O_R   0.034750 0.175247 0.479539 -0.716940
O58   O     O_2   0.335506 0.075514 0.579781 -0.563799
O59   O     O_R   0.403542 0.980181 0.661111 -0.674997
O60   O     O_2   0.577784 0.749274 0.375691 -0.494196
O61   O     O_R   0.534719 0.675790 0.479748 -0.717469
O62   O     O_3   0.878567 0.374824 0.915216 -0.609577
O63   O     O_3   0.121446 0.374540 0.084695 -0.608980
O64   O     O_3   0.378567 0.874824 0.915216 -0.609575
O65   O     O_3   0.621446 0.874539 0.084695 -0.608985
O66   O     O_2   0.847587 0.220039 0.103172 -0.513136
O67   O     O_R   0.054690 0.580440 0.673480 -0.492712
O68   O     O_R   0.936349 0.283199 0.032276 -0.602945
O69   O     O_2   0.152584 0.219856 0.896798 -0.511749
O70   O     O_R   0.063743 0.283042 0.967595 -0.603184
O71   O     O_2   0.347587 0.720039 0.103172 -0.513131
O72   O     O_R   0.436350 0.783199 0.032276 -0.602946
O73   O     O_2   0.652584 0.719856 0.896798 -0.511753
O74   O     O_R   0.563743 0.783041 0.967594 -0.603184
O75   O     O_3   0.099767 0.073167 0.071988 -0.571258
O76   O     O_3   0.900117 0.073485 0.928041 -0.573509
O77   O     O_3   0.599767 0.573167 0.071988 -0.571248
O78   O     O_R   0.945310 0.580440 0.326520 -0.508695
O79   O     O_3   0.400117 0.573485 0.928040 -0.573508
O80   O     O_3   0.621056 0.370407 0.100430 -0.700663
O81   O     O_3   0.379050 0.370709 0.899581 -0.701206
O82   O     O_3   0.121056 0.870407 0.100430 -0.700668
O83   O     O_3   0.879050 0.870709 0.899581 -0.701208
O84   O     O_3   0.613675 0.310069 0.959485 -0.714573
O85   O     O_3   0.386389 0.310254 0.040526 -0.714292
O86   O     O_3   0.113676 0.810069 0.959485 -0.714573
O87   O     O_3   0.886389 0.810254 0.040526 -0.714293
O88   O     O_3   0.576704 0.508248 0.938291 -0.642906
O89   O     O_R   0.543980 0.282110 0.666770 -0.535935
O90   O     O_3   0.423210 0.508458 0.061740 -0.642356
O91   O     O_3   0.076703 0.008248 0.938291 -0.642906
O92   O     O_3   0.923210 0.008458 0.061741 -0.642359

loop_
_geom_bond_atom_site_label_1
_geom_bond_atom_site_label_2
_ccdc_geom_bond_type
C100  H21   S    
C112  O47   A    
C50   C117  S    
Cr2   O6    S    
C116  O67   A    
C15   C32   A    
C98   H20   S    
H47   O72   S    
H52   O79   S    
C61   O27   A    
C37   C41   S    
C19   O59   S    
C39   O88   S    
C29   O65   S    
C74   C92   S    
C76   C94   S    
C19   C98   S    
C113  O43   A    
C70   C74   A    
C43   C110  A    
C85   C103  A    
C25   C34   S    
C112  O42   A    
C57   H27   S    
C108  O35   A    
C59   C60   A    
C2    C45   A    
Cr4   O8    S    
Cr5   O12   S    
C42   O92   S    
C91   O52   S    
C41   O91   S    
C23   O72   S    
C89   O50   S    
C27   C31   A    
C28   C32   A    
Cr12  O27   S    
C6    C11   D    
C35   C66   S    
C12   C66   A    
C4    C61   S    
C6    C63   S    
H32   O50   S    
C36   O79   S    
C25   O74   S    
Cr8   O9    S    
C78   C82   A    
H65   O92   S    
C36   C40   S    
Cr10  O47   S    
H36   O54   S    
C17   C96   S    
C66   C110  A    
Cr10  O20   S    
C38   O83   S    
Cr10  O67   S    
C74   C79   A    
Cr8   O44   S    
Cr6   O38   S    
Cr8   O18   S    
C75   C93   S    
C44   O16   A    
Cr12  O9    S    
C5    C8    D    
C85   C90   A    
C7    H25   S    
C51   C116  S    
Cr3   O3    S    
C86   C91   A    
Cr1   O1    S    
C79   C96   S    
Cr1   O14   S    
Cr7   O34   S    
C111  O46   A    
C49   C53   A    
Cr11  O48   S    
H44   O68   S    
C2    C40   S    
C48   C52   A    
C1    O14   A    
C82   C104  A    
Cr12  O89   S    
C102  C119  S    
C80   C97   S    
Cr11  O13   S    
C84   C102  A    
C44   O20   A    
C14   C31   A    
C86   C104  A    
C33   O15   A    
C63   O25   A    
C28   C46   A    
C29   C47   A    
Cr8   O45   S    
C36   O81   S    
Cr6   O11   S    
C114  O45   A    
C54   C68   S    
C68   H45   S    
C92   C96   S    
C49   C57   A    
H39   O61   S    
C61   O22   A    
C18   O57   S    
C16   C34   A    
Cr3   O29   S    
Cr6   O42   S    
C60   H30   S    
Cr2   O10   S    
C1    O18   A    
C62   O24   A    
Cr12  O5    S    
C111  O41   A    
Cr10  O11   S    
C70   C87   A    
C6    H26   S    
H51   O77   S    
Cr4   O13   S    
C33   O19   A    
C70   C113  S    
C94   H16   S    
C108  O34   A    
C17   O54   S    
C35   O80   S    
C92   H14   S    
C67   H2    S    
Cr7   O43   S    
H60   O86   S    
Cr6   O23   S    
Cr7   O13   S    
C109  O44   A    
H35   O52   S    
C80   C102  A    
C117  O78   A    
H54   O81   S    
C72   C90   A    
C105  O1    A    
C39   O84   S    
Cr1   O36   S    
Cr2   O28   S    
C71   C112  S    
C92   H9    S    
Cr6   O16   S    
C21   O66   D    
C22   O69   D    
C26   C30   A    
H59   O85   S    
Cr12  O31   S    
C93   C97   S    
H49   O75   S    
C52   C53   A    
H50   O76   S    
C81   C103  A    
C87   O49   S    
C83   C101  A    
C68   H3    S    
C10   H23   S    
C90   O51   S    
C50   C60   A    
C64   O30   A    
Cr11  O26   S    
C57   C58   A    
C62   O28   A    
C107  O33   A    
C53   C67   S    
C12   C55   S    
C10   C11   S    
C93   H10   S    
C65   H66   S    
C56   C69   S    
C79   C101  A    
C4    C9    D    
C120  O38   A    
C15   C88   A    
C7    C10   D    
C83   C87   A    
Cr7   O39   S    
C24   C42   S    
C37   C88   S    
C103  C120  S    
C95   H13   S    
C13   C41   S    
C55   O17   A    
C23   O71   D    
C50   C54   A    
C67   H67   S    
C36   C77   S    
C81   C98   S    
C94   C98   S    
C5    H22   S    
C40   O85   S    
C14   C77   A    
C52   C65   S    
C25   O73   D    
C21   O68   S    
C115  O56   A    
C68   C69   S    
C65   C67   S    
C40   O90   S    
H38   O59   S    
C18   C97   S    
C117  O4    A    
C42   O87   S    
C63   O29   A    
C27   C45   A    
C49   C114  S    
C72   C111  S    
Cr9   O24   S    
C9    H12   S    
Cr9   O46   S    
C118  O5    A    
C95   C100  S    
C119  O37   A    
C29   C34   A    
C35   C39   S    
C59   H29   S    
C20   O61   S    
C65   H68   S    
C20   C100  S    
C78   C95   S    
H61   O87   S    
C27   O63   S    
H62   O88   S    
C97   H19   S    
Cr11  O21   S    
C1    C16   S    
C4    H24   S    
C69   H4    S    
C101  C118  S    
C41   O86   S    
C83   H5    S    
C116  O3    A    
Cr5   O37   S    
Cr7   O17   S    
C14   C44   S    
C109  O40   A    
C12   C30   A    
C120  O7    A    
C38   C99   S    
C48   C58   A    
C18   O55   D    
Cr1   O40   S    
Cr2   O32   S    
C21   C30   S    
C23   C32   S    
Cr2   O2    S    
Cr9   O19   S    
C2    C77   A    
C58   H28   S    
H57   O83   S    
H58   O84   S    
C73   C109  S    
C118  O36   A    
Cr9   O10   S    
H46   O70   S    
C3    O39   A    
C3    C104  S    
C24   C99   A    
H63   O90   S    
C72   C76   A    
H43   O65   S    
C19   O58   D    
C64   O26   A    
C17   O53   D    
Cr4   O4    S    
C3    O8    A    
C105  O31   A    
C38   C42   S    
C94   H11   S    
C13   C46   A    
C115  O2    A    
C51   C56   A    
C43   C105  S    
H48   O74   S    
Cr3   O33   S    
Cr4   O35   S    
C39   C110  S    
Cr10  O25   S    
C8    C9    S    
Cr11  O78   S    
Cr3   O11   S    
C11   H34   S    
C73   C78   A    
Cr9   O56   S    
Cr5   O41   S    
C95   H17   S    
Cr1   O9    S    
C75   C80   A    
C85   H7    S    
C86   H8    S    
C55   O21   A    
C22   O70   S    
C96   H18   S    
H37   O57   S    
H55   O82   S    
C26   C43   A    
C107  O23   A    
C54   C56   A    
C22   C31   S    
H31   O49   S    
C73   C91   A    
Cr8   O22   S    
C119  O6    A    
C28   O64   S    
C71   C89   A    
C106  O12   A    
C46   C107  S    
Cr3   O7    S    
C69   H56   S    
C20   O60   D    
C48   C115  S    
C47   C108  S    
C51   C59   A    
C84   C89   A    
H53   O80   S    
C45   C106  S    
H64   O91   S    
C114  O89   A    
C35   O77   S    
C8    H1    S    
H33   O51   S    
C24   C47   A    
C82   C100  S    
C76   C81   A    
Cr5   O10   S    
C16   C99   A    
C26   O62   S    
C113  O48   A    
C84   H6    S    
Cr5   O15   S    
C37   O75   S    
C71   C75   A    
C38   O76   S    
C13   C88   A    
C106  O32   A    
C5    C62   S    
C93   H15   S    
H40   O62   S    
C7    C64   S    
H41   O63   S    
H42   O64   S    
C37   O82   S    
C15   C33   S    
Cr4   O30   S    
