data_mof_unit_22968.cif
_audit_creation_date              2012-12-10T17:48:38-0500
_audit_creation_method            fapswitch 2.2
_symmetry_space_group_name_H-M    P1
_symmetry_Int_Tables_number       1
_space_group_crystal_system       triclinic
_cell_length_a                    15.705549
_cell_length_b                    10.617348
_cell_length_c                    9.970342
_cell_angle_alpha                 89.108137
_cell_angle_beta                  91.249782
_cell_angle_gamma                 92.063241
_cell_volume                      1660.9124199

loop_
_atom_site_label
_atom_site_type_symbol
_atom_type_description
_atom_site_fract_x
_atom_site_fract_y
_atom_site_fract_z
_atom_type_partial_charge
C1    C     C_R   0.501431 0.260771 0.500981 0.832745
C2    C     C_R   0.718601 0.074487 0.668476 -0.180467
C3    C     C_R   0.719499 0.943369 0.665783 0.457690
C4    C     C_R   0.338548 0.500680 0.498910 0.888882
C5    C     C_R   0.650243 0.874811 0.610322 -0.256974
C6    C     C_R   0.578619 0.937157 0.557120 0.028626
C7    C     C_R   0.577770 0.069065 0.559766 0.104584
C8    C     C_R   0.506426 0.128467 0.502695 -0.061042
C9    C     C_R   0.438943 0.061399 0.441463 -0.226410
C10   C     C_R   0.439896 0.932894 0.438544 -0.188514
C11   C     C_R   0.508117 0.871781 0.497712 -0.070458
C12   C     C_3   0.950436 0.390027 0.586689 -0.396265
C13   C     C_R   0.415633 0.294126 0.132609 0.216556
C14   C     C_R   0.414083 0.180055 0.062912 -0.217071
C15   C     C_R   0.407019 0.185677 0.924159 -0.212638
C16   C     C_R   0.502400 0.739210 0.499190 0.867840
C17   C     C_R   0.419654 0.301068 0.859053 -0.135860
C18   C     C_R   0.459961 0.402037 0.927147 0.132011
C19   C     C_R   0.459251 0.400660 0.071124 0.142123
C20   C     C_R   0.538489 0.594304 0.071162 -0.111521
C21   C     C_R   0.538471 0.594237 0.928496 -0.092372
C22   C     C_R   0.661482 0.500487 0.501231 0.875080
C23   C     C_3   0.917375 0.502733 0.502869 0.247452
C24   C     C_3   0.048660 0.390832 0.584263 -0.472014
C25   C     C_3   0.045339 0.490933 0.354024 -0.372193
C26   C     C_3   0.947211 0.492311 0.356556 -0.379005
C27   C     C_1   0.750470 0.501077 0.503979 -0.148989
C28   C     C_3   0.082704 0.503980 0.498442 0.248655
C29   C     C_3   0.333129 0.306768 0.207997 -0.356641
C30   C     C_3   0.279312 0.415006 0.153972 -0.806152
C31   C     C_3   0.954595 0.627098 0.562777 -0.371976
C32   C     C_3   0.053155 0.627960 0.561490 0.246722
C33   C     C_1   0.825892 0.501759 0.504510 -0.063661
C34   C     C_1   0.174216 0.502548 0.496681 -0.053475
C35   C     C_1   0.249596 0.501558 0.496711 -0.150455
C36   C     C_R   0.648616 0.137266 0.615695 -0.251217
Cl1   Cl    Cl    0.808146 0.864524 0.730131 -0.653478
Cl2   Cl    Cl    0.094416 0.766383 0.475631 -0.629723
H1    H     H_    0.923831 0.299691 0.545397 0.196364
H2    H     H_    0.570290 0.671357 0.124115 0.158535
H3    H     H_    0.069431 0.300627 0.542248 0.206352
H4    H     H_    0.393027 0.093043 0.112241 0.151947
H5    H     H_    0.384356 0.103755 0.868766 0.170726
H6    H     H_    0.395754 0.310088 0.758294 0.197390
H7    H     H_    0.570339 0.671282 0.875215 0.161461
H8    H     H_    0.070085 0.568760 0.288059 0.217550
H9    H     H_    0.065024 0.401003 0.310044 0.166992
H10   H     H_    0.919719 0.404549 0.310655 0.180882
H11   H     H_    0.924540 0.573362 0.295032 0.194031
H12   H     H_    0.074937 0.396975 0.688684 0.177188
H13   H     H_    0.077948 0.633417 0.666800 0.119457
H14   H     H_    0.933295 0.636406 0.667836 0.190250
H15   H     H_    0.314865 0.507078 0.157352 0.276046
H16   H     H_    0.221014 0.420934 0.214113 0.239377
H17   H     H_    0.259655 0.396894 0.048095 0.241115
H18   H     H_    0.290636 0.221078 0.196229 0.180489
H19   H     H_    0.344330 0.305943 0.316904 0.209765
H20   H     H_    0.929297 0.395739 0.692220 0.182370
H21   H     H_    0.929860 0.708825 0.504578 0.236472
H22   H     H_    0.384743 0.108403 0.397873 0.131300
H23   H     H_    0.651162 0.239052 0.617752 0.169754
H24   H     H_    0.772465 0.128122 0.710475 0.171045
H25   H     H_    0.653751 0.773330 0.607529 0.167150
H26   H     H_    0.386419 0.880636 0.393009 0.162757
N1    N     N_R   0.499210 0.498800 0.142780 -0.122143
N2    N     N_R   0.499180 0.498720 0.857170 -0.117042
O1    O     O_R   0.500000 0.316780 0.614690 -0.638969
O2    O     O_R   0.499990 0.316750 0.385360 -0.618591
O3    O     O_R   0.377150 0.500020 0.614720 -0.625235
O4    O     O_R   0.377140 0.499990 0.385380 -0.613853
O5    O     O_R   0.500010 0.683250 0.614640 -0.615662
O6    O     O_R   0.500000 0.683220 0.385310 -0.617434
O7    O     O_R   0.622860 0.500010 0.614620 -0.612520
O8    O     O_R   0.622850 0.499980 0.385280 -0.602077
Zn1   Zn    Zn3+2 0.500010 0.500020 0.653130 0.945609
Zn2   Zn    Zn3+2 0.499990 0.499980 0.346870 0.950759

loop_
_geom_bond_atom_site_label_1
_geom_bond_atom_site_label_2
_ccdc_geom_bond_type
C21   N2    A    
C1    C8    S    
C7    C36   A    
C16   O6    A    
C31   H14   S    
O6    Zn2   S    
C4    O4    A    
C7    C8    A    
C27   C33   T    
C25   C28   S    
C30   H16   S    
C12   C23   S    
N1    Zn2   S    
O8    Zn2   S    
C13   C29   S    
C18   C19   A    
C5    C6    A    
C20   H2    S    
C1    O2    A    
C5    H25   S    
C34   C35   T    
C23   C26   S    
C31   H21   S    
C8    C9    A    
C23   C33   S    
O3    Zn1   S    
C32   Cl2   S    
C9    C10   A    
C25   H9    S    
C26   H10   S    
C14   H4    S    
C12   H20   S    
C4    C35   S    
C28   C34   S    
C13   C14   A    
C24   H3    S    
O7    Zn1   S    
C16   O5    A    
C4    O3    A    
C21   H7    S    
C24   H12   S    
C30   H15   S    
C13   C19   A    
C20   N1    A    
C28   C32   S    
C26   H11   S    
C6    C11   A    
C25   C26   S    
C23   C31   S    
C32   H13   S    
C29   C30   S    
C11   C16   S    
C31   C32   S    
C17   C18   A    
C29   H19   S    
C22   C27   S    
O4    Zn2   S    
C18   N2    A    
C22   O8    A    
C36   H23   S    
C2    C36   A    
C15   C17   A    
C10   H26   S    
C24   C28   S    
C3    C5    A    
C6    C7    A    
C29   H18   S    
O2    Zn2   S    
C30   H17   S    
C12   C24   S    
C9    H22   S    
C12   H1    S    
C2    C3    A    
C17   H6    S    
C15   H5    S    
O5    Zn1   S    
N2    Zn1   S    
C1    O1    A    
C19   N1    A    
C10   C11   A    
O1    Zn1   S    
C20   C21   A    
C3    Cl1   S    
C14   C15   A    
C22   O7    A    
C25   H8    S    
C2    H24   S    
