data_mof_unit_39088.cif
_audit_creation_date              2012-12-11T17:37:44-0500
_audit_creation_method            fapswitch 2.2
_symmetry_space_group_name_H-M    P1
_symmetry_Int_Tables_number       1
_space_group_crystal_system       triclinic
_cell_length_a                    12.980759
_cell_length_b                    13.012958
_cell_length_c                    15.304952
_cell_angle_alpha                 116.123572
_cell_angle_beta                  64.298403
_cell_angle_gamma                 96.642936
_cell_volume                      2082.46758345

loop_
_atom_site_label
_atom_site_type_symbol
_atom_type_description
_atom_site_fract_x
_atom_site_fract_y
_atom_site_fract_z
_atom_type_partial_charge
C1    C     C_R   0.022580 0.834382 0.030424 -0.112039
C2    C     C_R   0.708924 0.430115 0.302899 0.073184
C3    C     C_R   0.637877 0.560264 0.020679 0.145545
C4    C     C_R   0.981684 0.826143 0.321734 0.178507
C5    C     C_R   0.322436 0.577971 0.010438 -0.080774
C6    C     C_R   0.903022 0.202143 0.791972 -0.142459
C7    C     C_R   0.215983 0.446795 0.685232 -0.224389
C8    C     C_R   0.097436 0.251091 0.044743 -0.130736
C9    C     C_R   0.998254 0.167425 0.948379 -0.085837
C10   C     C_R   0.319224 0.537120 0.778826 0.685792
C11   C     C_R   0.245249 0.477342 0.105403 -0.181790
C12   C     C_R   0.704790 0.401726 0.206805 -0.153803
C13   C     C_R   0.983550 0.303436 0.698546 -0.148658
C14   C     C_R   0.337675 0.537172 0.072771 0.135633
C15   C     C_R   0.923696 0.210684 0.699679 0.103931
C16   C     C_R   0.324839 0.470998 0.677058 -0.137084
C17   C     C_R   0.083942 0.145346 0.971349 0.034137
C18   C     C_R   0.303572 0.749596 0.340463 -0.101799
C19   C     C_R   0.191951 0.796849 0.381111 -0.144072
C20   C     C_R   0.173932 0.899770 0.378976 0.166287
C21   C     C_R   0.268750 0.952493 0.332067 -0.178629
C22   C     C_R   0.380264 0.903909 0.289819 -0.114439
C23   C     C_R   0.739322 0.578210 0.947582 -0.143477
C24   C     C_R   0.397634 0.803733 0.295853 -0.056670
C25   C     C_R   0.040366 0.059216 0.535646 -0.215319
C26   C     C_R   0.931333 0.116920 0.603494 -0.013105
C27   C     C_R   0.836410 0.082346 0.579804 -0.194714
C28   C     C_R   0.854391 0.983849 0.484939 0.685640
C29   C     C_R   0.964500 0.925171 0.418107 -0.170949
C30   C     C_R   0.058308 0.962606 0.442595 -0.039282
C31   C     C_R   0.623570 0.091993 0.687779 -0.064377
C32   C     C_R   0.515629 0.154175 0.756447 -0.147799
C33   C     C_R   0.504136 0.272621 0.789718 -0.085525
C34   C     C_R   0.957626 0.718536 0.315690 -0.104688
C35   C     C_R   0.600515 0.329114 0.754204 -0.118990
C36   C     C_R   0.708396 0.267207 0.685114 -0.149833
C37   C     C_R   0.721211 0.147998 0.651606 0.185964
C38   C     C_R   0.907511 0.270261 0.412432 0.267060
C39   C     C_R   0.804822 0.284810 0.407092 -0.235119
C40   C     C_R   0.737637 0.390875 0.472456 0.106497
C41   C     C_R   0.772131 0.481222 0.544863 -0.166542
C42   C     C_R   0.873899 0.467124 0.549921 -0.200299
C43   C     C_R   0.941639 0.362453 0.483661 -0.152109
C44   C     C_R   0.527655 0.417898 0.564640 -0.162565
C45   C     C_R   0.662343 0.481674 0.047770 -0.102667
C46   C     C_R   0.421933 0.453546 0.578891 0.109094
C47   C     C_R   0.410818 0.476427 0.501515 0.014175
C48   C     C_R   0.506494 0.455112 0.407144 -0.247664
C49   C     C_R   0.613922 0.423961 0.393667 0.067892
C50   C     C_R   0.625997 0.406967 0.473711 0.004391
C51   C     C_R   0.257075 0.487798 0.447081 -0.204004
C52   C     C_R   0.160812 0.545173 0.463772 -0.137186
C53   C     C_R   0.112350 0.649992 0.554251 -0.109666
C54   C     C_R   0.161161 0.698692 0.627293 -0.106501
C55   C     C_R   0.258376 0.642487 0.610156 -0.113506
C56   C     C_R   0.045968 0.818771 0.219964 -0.131489
C57   C     C_R   0.306154 0.535506 0.520756 0.136186
C58   C     C_2   0.434076 0.554160 0.098303 -0.194612
C59   C     C_2   0.524871 0.598890 0.046861 -0.218189
C60   C     C_2   0.892292 0.965199 0.025593 -0.216051
C61   C     C_2   0.878601 0.057948 0.116404 -0.135881
C62   C     C_R   0.802369 0.491038 0.304446 -0.103201
C63   C     C_R   0.926301 0.748858 0.930723 -0.143597
C64   C     C_R   0.948356 0.854758 0.994813 0.136411
H1    H     H_    0.064630 0.898470 0.074022 0.096486
H2    H     H_    0.852739 0.141154 0.819537 0.094710
H3    H     H_    0.189918 0.400359 0.620906 0.146747
H4    H     H_    0.158459 0.266265 0.078605 0.102344
H5    H     H_    0.967036 0.104794 0.892753 0.090060
H6    H     H_    0.223950 0.446881 0.166031 0.099269
H7    H     H_    0.008316 0.337510 0.640199 0.098270
H8    H     H_    0.484031 0.767758 0.265585 0.125816
H9    H     H_    0.317310 0.671784 0.344674 0.123855
H10   H     H_    0.119775 0.756283 0.418490 0.104747
H11   H     H_    0.648121 0.345295 0.176201 0.095576
H12   H     H_    0.256168 0.032976 0.331435 0.124245
H13   H     H_    0.453198 0.945432 0.254841 0.120262
H14   H     H_    0.111433 0.087973 0.557611 0.150242
H15   H     H_    0.631160 0.000525 0.663910 0.133699
H16   H     H_    0.440883 0.110552 0.784227 0.121013
H17   H     H_    0.420586 0.320554 0.842950 0.126571
H18   H     H_    0.591622 0.420880 0.780003 0.146069
H19   H     H_    0.781780 0.312325 0.657774 0.131284
H20   H     H_    0.019640 0.352270 0.489402 0.123091
H21   H     H_    0.746776 0.625785 0.903041 0.095092
H22   H     H_    0.776460 0.213763 0.353864 0.127891
H23   H     H_    0.719797 0.562661 0.597570 0.142128
H24   H     H_    0.899437 0.536942 0.606437 0.135605
H25   H     H_    0.534063 0.403520 0.626821 0.157715
H26   H     H_    0.498685 0.475635 0.348660 0.131807
H27   H     H_    0.293225 0.406241 0.376980 0.112152
H28   H     H_    0.123735 0.508336 0.406512 0.120221
H29   H     H_    0.037267 0.693813 0.567504 0.096890
H30   H     H_    0.124060 0.780331 0.696901 0.109660
H31   H     H_    0.917315 0.693754 0.380970 0.090869
H32   H     H_    0.296310 0.682181 0.666602 0.119464
H33   H     H_    0.437247 0.510930 0.143613 0.120462
H34   H     H_    0.520603 0.646048 0.005124 0.140906
H35   H     H_    0.852682 0.969244 0.977511 0.129712
H36   H     H_    0.912390 0.057503 0.169555 0.134766
H37   H     H_    0.605038 0.442970 0.098188 0.084550
H38   H     H_    0.089793 0.885800 0.199256 0.093955
H39   H     H_    0.835212 0.520150 0.364412 0.102911
H40   H     H_    0.881617 0.734230 0.881763 0.089514
H41   H     H_    0.366266 0.643585 0.987002 0.161369
N1    N     N_R   0.037320 0.720000 0.995830 -0.046408
N2    N     N_R   0.946240 0.290870 0.848020 -0.044307
N3    N     N_R   0.146160 0.501170 0.788610 -0.070850
N4    N     N_R   0.025750 0.332680 0.063570 -0.040256
N5    N     N_R   0.962680 0.280000 0.004170 -0.043576
N6    N     N_R   0.209230 0.553860 0.848010 -0.105943
N7    N     N_R   0.175100 0.482030 0.063570 -0.047978
N8    N     N_R   0.996810 0.351820 0.788610 -0.037118
N9    N     N_R   0.790770 0.446140 0.151990 -0.038363
N10   N     N_R   0.824900 0.517970 0.936430 -0.039367
N11   N     N_R   0.003190 0.648180 0.211390 -0.048319
N12   N     N_R   0.774330 0.457010 0.995830 -0.045110
N13   N     N_R   0.053760 0.709130 0.151980 -0.044983
N14   N     N_R   0.853840 0.498830 0.211390 -0.039127
N15   N     N_R   0.974250 0.667320 0.936430 -0.039169
N16   N     N_R   0.225670 0.542990 0.004170 -0.058244
Ni1   Ni    Ni4+2 0.130310 0.630310 0.000000 0.232079
Ni2   Ni    Ni4+2 0.869690 0.369690 0.000000 0.211937
Ni3   Ni    Ni4+2 0.985660 0.509480 0.863750 0.209118
Ni4   Ni    Ni4+2 0.014340 0.490520 0.136250 0.211625
F1    F     F_    0.405445 0.591109 0.803132 -0.756576
F2    F     F_    0.766874 0.946708 0.455629 -0.713351
N17   N     N_2   0.973519 0.161793 0.351012 -0.110954
H42   H     H_    0.930064 0.092739 0.323046 0.174262
C65   C     C_3   0.087028 0.159711 0.270593 -0.995581
H43   H     H_    0.134318 0.074148 0.231607 0.249321
H44   H     H_    0.137153 0.224740 0.307760 0.255919
H45   H     H_    0.080406 0.176501 0.208038 0.255078

loop_
_geom_bond_atom_site_label_1
_geom_bond_atom_site_label_2
_ccdc_geom_bond_type
C41   C42   A    
C3    C23   A    
C19   C20   A    
N2    Ni2   S    
C60   H35   S    
C2    C12   A    
N17   H42   S    
C11   H6    S    
C20   C30   S    
C53   C54   A    
C21   H12   S    
C62   N14   A    
C26   C27   A    
C18   C24   A    
C45   N12   A    
C28   C29   A    
C9    H5    S    
C38   C39   A    
C11   C14   A    
C47   C57   S    
C36   H19   S    
C34   N11   A    
C5    N16   A    
C9    N5    A    
C18   C19   A    
N13   Ni1   S    
N2    N8    A    
C44   C50   A    
C51   H27   S    
C6    C15   A    
C54   C55   A    
C47   C48   A    
N10   N12   A    
C1    H1    S    
C6    N2    A    
C51   C57   A    
C4    C29   S    
C28   F2    S    
C1    N1    A    
C48   H26   S    
C21   C22   A    
C4    C56   A    
N6    Ni1   S    
C43   H20   S    
C58   H33   S    
N3    Ni3   S    
C41   H23   S    
C35   H18   S    
C44   C46   A    
C12   N9    A    
C14   C58   S    
C4    C34   A    
C53   H29   S    
C51   C52   A    
C34   H31   S    
C16   C46   S    
C39   C40   A    
C55   H32   S    
C15   C26   S    
C5    H41   S    
C13   H7    S    
C25   C26   A    
C23   N10   A    
C25   H14   S    
C3    C45   A    
C31   C37   A    
C60   C61   D    
C35   C36   A    
C65   H44   S    
C29   C30   A    
C2    C49   S    
N5    Ni2   S    
C32   H16   S    
C31   C32   A    
N1    Ni1   S    
C5    C14   A    
C10   N6    A    
N16   Ni1   S    
C45   H37   S    
N9    Ni2   S    
N14   Ni4   S    
C9    C17   A    
C40   C41   A    
C8    H4    S    
C18   H9    S    
N11   Ni4   S    
C13   C15   A    
C22   C24   A    
C52   H28   S    
C61   H36   S    
C42   H24   S    
C42   C43   A    
C1    C64   A    
C52   C53   A    
C24   H8    S    
C62   H39   S    
N4    Ni4   S    
C25   C30   A    
C46   C47   A    
C48   C49   A    
N10   Ni3   S    
N7    N16   A    
N1    N15   A    
C11   N7    A    
C56   N13   A    
C19   H10   S    
C7    C16   A    
N9    N14   A    
C22   H13   S    
C63   H40   S    
N17   C65   S    
C38   N17   S    
C31   H15   S    
C8    C17   A    
N3    N6    A    
C60   C64   S    
C32   C33   A    
C55   C57   A    
C65   H43   S    
C58   C59   D    
C56   H38   S    
C38   C43   A    
C10   C16   A    
C8    N4    A    
C10   F1    S    
C63   N15   A    
N8    Ni3   S    
C27   C37   S    
C40   C50   S    
C33   C35   A    
N11   N13   A    
N12   Ni2   S    
C54   H30   S    
C7    H3    S    
C63   C64   A    
C65   H45   S    
C2    C62   A    
C6    H2    S    
C20   C21   A    
C36   C37   A    
C49   C50   A    
C23   H21   S    
C12   H11   S    
C27   C28   A    
C59   H34   S    
C7    N3    A    
C39   H22   S    
N7    Ni4   S    
N4    N5    A    
C33   H17   S    
C13   N8    A    
C44   H25   S    
N15   Ni3   S    
C3    C59   S    
