data_mof_unit_12899.cif
_audit_creation_date              2012-12-11T14:43:30-0500
_audit_creation_method            fapswitch 2.2
_symmetry_space_group_name_H-M    P1
_symmetry_Int_Tables_number       1
_space_group_crystal_system       triclinic
_cell_length_a                    20.87562
_cell_length_b                    7.09691
_cell_length_c                    16.373766
_cell_angle_alpha                 91.019508
_cell_angle_beta                  92.454789
_cell_angle_gamma                 91.37673
_cell_volume                      2422.45671161

loop_
_atom_site_label
_atom_site_type_symbol
_atom_type_description
_atom_site_fract_x
_atom_site_fract_y
_atom_site_fract_z
_atom_type_partial_charge
O1    O     O_R   0.564840 0.505290 0.579830 -0.549712
O2    O     O_R   0.435160 0.005290 0.420170 -0.504451
O3    O     O_R   0.556720 0.179930 0.409350 -0.539604
O4    O     O_R   0.443280 0.679930 0.590650 -0.544057
C1    C     C_R   0.570303 0.345040 0.380974 0.696699
C2    C     C_R   0.429486 0.844662 0.618969 0.695049
O5    O     O_R   0.572280 0.175810 0.578530 -0.504493
O6    O     O_R   0.427720 0.675810 0.421470 -0.547336
O7    O     O_R   0.450830 0.001920 0.590540 -0.537499
O8    O     O_R   0.549170 0.501920 0.409460 -0.541746
C3    C     C_R   0.590164 0.347859 0.604593 0.777013
C4    C     C_R   0.409181 0.841213 0.395839 0.777255
O9    O     O_3   0.460130 0.338030 0.503750 -0.362181
O10   O     O_3   0.539870 0.838030 0.496250 -0.370171
V1    V     V_3+5 0.507400 0.064560 0.499310 1.547185
V2    V     V_3+5 0.492600 0.564560 0.500690 1.479976
C5    C     C_R   0.143369 0.931379 0.169066 -0.222697
C6    C     C_R   0.859033 0.390505 0.829292 -0.214321
C7    C     C_R   0.353369 0.838214 0.335575 -0.249414
C8    C     C_R   0.644561 0.373276 0.666001 -0.250709
C9    C     C_R   0.290844 0.670952 0.226713 0.633091
C10   C     C_R   0.697665 0.570344 0.773223 0.646691
C11   C     C_R   0.344273 0.684593 0.280861 -0.333687
C12   C     C_R   0.645062 0.528803 0.720243 -0.314514
C13   C     C_R   0.307255 0.980080 0.335545 0.582437
C14   C     C_R   0.698103 0.256699 0.666103 0.592956
C15   C     C_R   0.251603 0.967702 0.281486 -0.122345
C16   C     C_R   0.752975 0.297883 0.719146 -0.117302
C17   C     C_R   0.244027 0.810019 0.226525 -0.077550
C18   C     C_R   0.751992 0.457663 0.773145 -0.082545
C19   C     C_R   0.190106 0.793110 0.171569 -0.221987
C20   C     C_R   0.804812 0.502243 0.827238 -0.238624
C21   C     C_R   0.149806 0.085347 0.224535 0.611893
C22   C     C_R   0.861321 0.236516 0.773988 0.599505
C23   C     C_R   0.202989 0.105704 0.280530 0.094313
C24   C     C_R   0.809047 0.187184 0.719797 0.080367
H1    H     H_    0.185281 0.674787 0.128783 0.208820
H2    H     H_    0.802976 0.620187 0.869992 0.204154
H3    H     H_    0.378975 0.573545 0.279907 0.186311
H4    H     H_    0.604373 0.620674 0.721193 0.177040
C25   C     C_R   0.379141 0.835951 0.836746 -0.144219
C26   C     C_R   0.619332 0.384088 0.163473 -0.144470
H5    H     H_    0.468197 0.817209 0.776933 0.117622
H6    H     H_    0.530093 0.367016 0.223334 0.116103
H7    H     H_    0.298905 0.842338 0.957770 0.144089
H8    H     H_    0.699123 0.414094 0.042589 0.145188
H9    H     H_    0.402234 0.821641 0.896797 0.125781
H10   H     H_    0.595579 0.393483 0.103563 0.125932
C27   C     C_R   0.388825 0.852299 0.690353 -0.041978
C28   C     C_R   0.610825 0.355543 0.309594 -0.041814
C29   C     C_R   0.078997 0.927731 0.732070 -0.140221
C30   C     C_R   0.922155 0.396511 0.267753 -0.144384
C31   C     C_R   0.113744 0.926329 0.661549 -0.122591
C32   C     C_R   0.887711 0.381323 0.338205 -0.120615
C33   C     C_R   0.180133 0.908518 0.666094 -0.149849
C34   C     C_R   0.820877 0.375186 0.333725 -0.149580
C35   C     C_R   0.213922 0.891046 0.742266 0.079543
C36   C     C_R   0.786314 0.384516 0.257692 0.078423
C37   C     C_R   0.177721 0.891463 0.814696 0.059338
C38   C     C_R   0.822149 0.401658 0.185374 0.061109
C39   C     C_R   0.282290 0.873332 0.748935 0.070990
C40   C     C_R   0.717529 0.377189 0.251040 0.071198
C41   C     C_R   0.312433 0.855260 0.827841 0.127446
C42   C     C_R   0.686554 0.388743 0.172299 0.128601
C43   C     C_R   0.275990 0.855970 0.897557 -0.173295
C44   C     C_R   0.722659 0.405488 0.102682 -0.174583
C45   C     C_R   0.209838 0.874018 0.891253 -0.181167
C46   C     C_R   0.789262 0.411517 0.108947 -0.183300
C47   C     C_R   0.322094 0.872293 0.680395 -0.203426
C48   C     C_R   0.678082 0.359367 0.319463 -0.203493
C49   C     C_R   0.416876 0.833731 0.768615 -0.167998
C50   C     C_R   0.581888 0.368599 0.231537 -0.169246
C51   C     C_R   0.109962 0.910337 0.808840 -0.091622
C52   C     C_R   0.890370 0.407281 0.191174 -0.088927
H11   H     H_    0.302947 0.885171 0.618637 0.108859
H12   H     H_    0.697842 0.349930 0.381093 0.109288
H13   H     H_    0.027457 0.942743 0.726745 0.166747
H14   H     H_    0.974108 0.399535 0.272952 0.155058
H15   H     H_    0.203521 0.908985 0.608746 0.117824
H16   H     H_    0.797780 0.362944 0.391006 0.118805
H17   H     H_    0.088959 0.939762 0.602565 0.129347
H18   H     H_    0.913103 0.373474 0.397061 0.129451
H19   H     H_    0.183954 0.873876 0.947175 0.106175
H20   H     H_    0.814868 0.424343 0.053097 0.106679
O11   O     O_R   0.950790 0.256670 0.090520 -0.527890
O12   O     O_R   0.049210 0.756670 0.909480 -0.540076
O13   O     O_R   0.927720 0.590370 0.921470 -0.544512
O14   O     O_R   0.072280 0.090370 0.078530 -0.505072
C53   C     C_R   0.910995 0.417877 0.893960 0.747712
C54   C     C_R   0.089782 0.925060 0.105539 0.746465
O15   O     O_R   0.943270 0.586180 0.090640 -0.544032
O16   O     O_R   0.056730 0.086180 0.909360 -0.529733
O17   O     O_R   0.064850 0.759970 0.079840 -0.543368
O18   O     O_R   0.935150 0.259970 0.920160 -0.505190
C55   C     C_R   0.930267 0.417490 0.118887 0.694582
C56   C     C_R   0.069924 0.917790 0.881138 0.705356
O19   O     O_3   0.039850 0.428050 0.996240 -0.372448
O20   O     O_3   0.960150 0.928050 0.003760 -0.373063
V3    V     V_3+5 0.992610 0.701540 0.000700 1.484847
V4    V     V_3+5 0.007390 0.201540 0.999300 1.569940
F1    F     F_    0.103192 0.216051 0.224634 -0.705943
F2    F     F_    0.915299 0.132936 0.773108 -0.714056
F3    F     F_    0.284672 0.519386 0.174864 -0.687604
F4    F     F_    0.695597 0.723314 0.824025 -0.687412
C57   C     C_3   0.206267 0.275361 0.338016 -0.557026
H21   H     H_    0.165123 0.369861 0.328852 0.217505
H22   H     H_    0.206031 0.228383 0.402316 0.210328
H23   H     H_    0.250189 0.361416 0.328036 0.247411
C58   C     C_3   0.814420 0.015140 0.664722 -0.571005
H24   H     H_    0.860766 0.943440 0.673709 0.215847
H25   H     H_    0.776205 0.909652 0.677724 0.244696
H26   H     H_    0.810675 0.056704 0.599673 0.218563
F5    F     F_    0.316477 0.124460 0.390564 -0.701729
F6    F     F_    0.696701 0.109923 0.611774 -0.699723

loop_
_geom_bond_atom_site_label_1
_geom_bond_atom_site_label_2
_ccdc_geom_bond_type
C36   C40   A    
C44   C46   A    
C41   C43   A    
C45   H19   S    
C15   C17   A    
O1    C3    A    
O2    C4    A    
C2    O7    A    
C29   H13   S    
O5    C3    A    
C57   H22   S    
C22   F2    S    
O12   V3    S    
H8    C44   S    
C30   C52   A    
C58   H25   S    
C21   C23   A    
C35   C37   A    
C36   C38   A    
O16   C56   A    
C10   F4    S    
C40   C48   A    
C31   H17   S    
C38   C52   A    
C53   O18   A    
C39   C41   A    
C28   C50   A    
C40   C42   A    
C37   C45   A    
C8    C12   A    
C43   C45   A    
H6    C50   S    
C20   H2    S    
C18   C20   A    
O17   V3    S    
C22   C24   A    
C25   C49   A    
O5    V1    S    
O6    V2    S    
C27   C47   A    
C5    C21   A    
C30   H14   S    
O19   V3    S    
C30   C32   A    
O13   V3    S    
C31   C33   A    
C57   H23   S    
C32   C34   A    
C3    C8    S    
C46   H20   S    
O4    C2    A    
C58   H26   S    
C15   C23   A    
C9    C17   A    
C19   H1    S    
C29   C31   A    
C42   C44   A    
O4    V2    S    
C7    C11   A    
C14   F6    S    
C23   C57   S    
C13   F5    S    
C33   H15   S    
O18   V4    S    
O6    C4    A    
C26   C50   A    
C25   H9    S    
O1    V2    S    
C26   H10   S    
O2    V1    S    
C6    C22   A    
C38   C46   A    
O14   V4    S    
O12   C56   A    
O14   C54   A    
O20   V4    S    
C33   C35   A    
H7    C43   S    
C5    C19   A    
C21   F1    S    
C1    C28   S    
C6    C20   A    
C25   C41   A    
C26   C42   A    
C32   H18   S    
O19   V4    S    
O3    V1    S    
O16   V4    S    
C54   O17   A    
C39   C47   A    
C37   C51   A    
H5    C49   S    
C10   C18   A    
C6    C53   S    
C52   C55   S    
C5    C54   S    
C29   C51   A    
O3    C1    A    
C35   C39   A    
C13   C15   A    
C57   H21   S    
C14   C16   A    
C34   H16   S    
C9    C11   A    
C28   C48   A    
C1    O8    A    
C17   C19   A    
O11   V4    S    
O8    V2    S    
C58   H24   S    
C48   H12   S    
O11   C55   A    
C8    C14   A    
C11   H3    S    
C4    C7    S    
C16   C18   A    
C12   H4    S    
C34   C36   A    
C47   H11   S    
C10   C12   A    
C2    C27   S    
O7    V1    S    
C7    C13   A    
O15   C55   A    
C9    F3    S    
C16   C24   A    
O20   V3    S    
C27   C49   A    
O9    V2    S    
C24   C58   S    
O13   C53   A    
O10   V1    S    
C51   C56   S    
O15   V3    S    
