data_mof_unit_58343.cif
_audit_creation_date              2012-12-11T15:12:50-0500
_audit_creation_method            fapswitch 2.2
_symmetry_space_group_name_H-M    P1
_symmetry_Int_Tables_number       1
_space_group_crystal_system       triclinic
_cell_length_a                    22.684844
_cell_length_b                    6.979084
_cell_length_c                    19.204925
_cell_angle_alpha                 89.774601
_cell_angle_beta                  98.884444
_cell_angle_gamma                 89.637809
_cell_volume                      3003.93511455

loop_
_atom_site_label
_atom_site_type_symbol
_atom_type_description
_atom_site_fract_x
_atom_site_fract_y
_atom_site_fract_z
_atom_type_partial_charge
O1    O     O_R   0.448420 0.506120 0.415750 -0.524853
O2    O     O_R   0.551580 0.006120 0.584250 -0.533739
O3    O     O_R   0.436490 0.174470 0.555610 -0.532391
O4    O     O_R   0.563510 0.674470 0.444390 -0.525066
C1    C     C_R   0.421689 0.343953 0.576383 0.731975
C2    C     C_R   0.578242 0.843970 0.423414 0.732308
O5    O     O_R   0.441310 0.176330 0.414520 -0.533705
O6    O     O_R   0.558690 0.676330 0.585480 -0.525406
O7    O     O_R   0.556430 0.007110 0.442150 -0.530860
O8    O     O_R   0.443570 0.507110 0.557850 -0.522419
C3    C     C_R   0.423172 0.347411 0.391529 0.754015
C4    C     C_R   0.576845 0.844910 0.608576 0.756311
O9    O     O_3   0.537770 0.339560 0.509230 -0.360647
O10   O     O_3   0.462230 0.839560 0.490770 -0.356776
V1    V     V_3+5 0.492990 0.064280 0.498290 1.580314
V2    V     V_3+5 0.507010 0.564280 0.501710 1.594758
C5    C     C_R   0.872301 0.859226 0.697926 -0.098522
C6    C     C_R   0.129812 0.388881 0.304049 -0.099936
C7    C     C_R   0.884508 0.936272 0.821679 -0.127373
C8    C     C_R   0.116066 0.431468 0.177495 -0.132448
C9    C     C_R   0.593925 0.871637 0.738872 0.104148
C10   C     C_R   0.404208 0.301467 0.262402 0.105988
C11   C     C_R   0.630601 0.870265 0.804612 0.208784
C12   C     C_R   0.365914 0.270400 0.198979 0.208361
C13   C     C_R   0.692216 0.870441 0.808477 -0.162348
C14   C     C_R   0.305033 0.301334 0.195003 -0.165036
C15   C     C_R   0.719722 0.881475 0.747965 0.047171
C16   C     C_R   0.280345 0.376847 0.251706 0.048405
C17   C     C_R   0.683386 0.842609 0.681540 -0.031567
C18   C     C_R   0.318197 0.400320 0.318060 -0.030589
C19   C     C_R   0.783212 0.904365 0.753232 0.044248
C20   C     C_R   0.217476 0.410070 0.245610 0.041299
C21   C     C_R   0.809834 0.866394 0.692352 -0.011226
C22   C     C_R   0.191945 0.405298 0.308437 -0.014793
C23   C     C_R   0.774264 0.823976 0.627581 0.170912
C24   C     C_R   0.228771 0.427104 0.374080 0.168163
C25   C     C_R   0.712961 0.791246 0.624359 0.066782
C26   C     C_R   0.290403 0.454995 0.376308 0.065199
C27   C     C_R   0.821955 0.964261 0.816119 0.059032
C28   C     C_R   0.178680 0.444688 0.180211 0.058863
C29   C     C_R   0.908760 0.882840 0.762079 0.115707
C30   C     C_R   0.092662 0.394089 0.239384 0.113482
C31   C     C_R   0.619204 0.850056 0.676567 -0.154295
C32   C     C_R   0.381135 0.358585 0.323424 -0.154888
C33   C     C_3   0.809918 0.760601 0.266965 0.101500
C34   C     C_3   0.190009 0.260219 0.732876 0.101240
C35   C     C_3   0.779702 0.115186 0.245371 0.011990
C36   C     C_3   0.219689 0.613870 0.753698 0.012448
C37   C     C_3   0.731459 0.088273 0.294297 -0.006066
C38   C     C_3   0.267716 0.586342 0.704505 -0.005252
C39   C     C_1   0.623610 0.850559 0.377380 -0.056702
C40   C     C_1   0.376011 0.350056 0.621869 -0.053984
C41   C     C_3   0.793072 0.921058 0.210062 0.069584
C42   C     C_3   0.206845 0.419573 0.789497 0.067861
C43   C     C_3   0.763575 0.752671 0.318999 -0.432468
C44   C     C_3   0.236012 0.251990 0.680379 -0.434811
C45   C     C_3   0.707961 0.879230 0.291719 0.059912
C46   C     C_3   0.291494 0.376870 0.707199 0.060543
C47   C     C_3   0.685674 0.816393 0.213758 0.100865
C48   C     C_3   0.314436 0.312763 0.785122 0.097439
C49   C     C_3   0.732967 0.861225 0.165417 -0.459518
C50   C     C_3   0.267312 0.357796 0.833819 -0.455525
C51   C     C_1   0.661385 0.858380 0.338676 0.086845
C52   C     C_1   0.337990 0.356571 0.660206 0.086968
C53   C     C_1   0.839318 0.937393 0.162505 0.041561
C54   C     C_1   0.160746 0.436291 0.837371 0.045013
C55   C     C_1   0.876631 0.943897 0.123169 -0.100229
C56   C     C_1   0.123445 0.442999 0.876795 -0.093630
O11   O     O_R   0.056480 0.288780 0.942210 -0.537317
O12   O     O_R   0.943520 0.788780 0.057790 -0.538241
O13   O     O_R   0.058700 0.616820 0.085490 -0.528630
O14   O     O_R   0.941300 0.116820 0.914510 -0.526406
C57   C     C_R   0.074310 0.446750 0.110400 0.767156
C58   C     C_R   0.925345 0.948339 0.889692 0.762431
O15   O     O_R   0.063520 0.618570 0.944410 -0.528146
O16   O     O_R   0.936480 0.118570 0.055590 -0.528955
O17   O     O_R   0.948420 0.787670 0.915740 -0.535460
O18   O     O_R   0.051580 0.287670 0.084260 -0.535937
C59   C     C_R   0.078495 0.450180 0.923494 0.744718
C60   C     C_R   0.921519 0.950471 0.076503 0.737629
O19   O     O_3   0.962260 0.453430 0.990800 -0.367100
O20   O     O_3   0.037740 0.953430 0.009200 -0.368123
V3    V     V_3+5 0.007000 0.728750 0.001710 1.549035
V4    V     V_3+5 0.993000 0.228750 0.998290 1.552378
I1    I     I_    0.001610 0.843395 0.765024 -0.259756
I2    I     I_    0.000085 0.360279 0.238977 -0.258327
I3    I     I_    0.900409 0.765060 0.323124 -0.158668
I4    I     I_    0.099157 0.267579 0.677670 -0.162045
H1    H     H_    0.763064 0.220026 0.203007 0.138588
H2    H     H_    0.236265 0.717942 0.795794 0.138778
I5    I     I_    0.855643 0.252659 0.303900 -0.267023
I6    I     I_    0.143601 0.753916 0.694843 -0.263876
H3    H     H_    0.751687 0.117508 0.349731 0.170990
H4    H     H_    0.247317 0.616890 0.649074 0.178082
I7    I     I_    0.663172 0.303669 0.276787 -0.376653
I8    I     I_    0.335848 0.798946 0.721304 -0.374534
H5    H     H_    0.739562 0.732518 0.133304 0.171000
H6    H     H_    0.261166 0.228723 0.866160 0.173481
H7    H     H_    0.716438 0.977681 0.127540 0.212492
H8    H     H_    0.283805 0.473328 0.871455 0.214345
H9    H     H_    0.680601 0.659283 0.213632 0.156735
H10   H     H_    0.319994 0.155507 0.785465 0.159199
H11   H     H_    0.807915 0.621947 0.238471 0.134902
H12   H     H_    0.192448 0.120987 0.761526 0.134300
H13   H     H_    0.750568 0.601954 0.326178 0.200486
H14   H     H_    0.249258 0.101144 0.673366 0.197899
I9    I     I_    0.812255 0.812145 0.531692 -0.277803
I10   I     I_    0.191917 0.437061 0.470598 -0.289713
I11   I     I_    0.597779 0.907058 0.165807 -0.168830
I12   I     I_    0.402546 0.402527 0.831646 -0.171018
H15   H     H_    0.894069 0.822440 0.653637 0.196090
H16   H     H_    0.108942 0.372441 0.350518 0.196795
I13   I     I_    0.793661 0.148589 0.894395 -0.393702
I14   I     I_    0.209795 0.567360 0.089768 -0.394792
I15   I     I_    0.499849 0.899929 0.734305 -0.215292
I16   I     I_    0.497404 0.253409 0.266773 -0.212197
H17   H     H_    0.718295 0.851872 0.859853 0.173676
H18   H     H_    0.276742 0.255735 0.147668 0.174490
I17   I     I_    0.596837 0.868177 0.901920 -0.160038
I18   I     I_    0.395672 0.165458 0.106487 -0.160790
I19   I     I_    0.680115 0.569306 0.552751 -0.314496
I20   I     I_    0.329525 0.656346 0.452243 -0.308903
H19   H     H_    0.784512 0.802770 0.371733 0.227573
H20   H     H_    0.214712 0.302793 0.627553 0.226593

loop_
_geom_bond_atom_site_label_1
_geom_bond_atom_site_label_2
_ccdc_geom_bond_type
C54   C56   T    
C24   I10   S    
O1    C3    A    
C9    I15   S    
O2    C4    A    
O16   V4    S    
C2    O7    A    
C35   C37   S    
O5    C3    A    
C43   H13   S    
C44   H20   S    
C23   C25   A    
C12   C14   A    
C25   I19   S    
C4    C31   S    
C6    C30   A    
C11   I17   S    
C8    C28   A    
C45   C47   S    
C15   C17   A    
O17   V3    S    
C46   C48   S    
C37   C45   S    
C18   C26   A    
C48   C50   S    
C28   I14   S    
C33   H11   S    
C21   C23   A    
C50   H6    S    
C41   C49   S    
C10   C32   A    
C19   C27   A    
C53   C55   T    
C58   O17   A    
C57   O18   A    
C19   C21   A    
C1    C40   S    
C30   I2    S    
C2    C39   S    
C41   C53   S    
O13   V3    S    
C35   C41   S    
C56   C59   S    
C10   I16   S    
C33   C41   S    
O6    V2    S    
C36   H2    S    
C17   C31   A    
C35   H1    S    
C18   C32   A    
C49   H7    S    
C5    C21   A    
C48   H10   S    
C5    H15   S    
O19   V3    S    
C45   C51   S    
C34   I4    S    
C46   C52   S    
C43   H19   S    
C12   I18   S    
C47   C49   S    
O12   C60   A    
C47   H9    S    
C14   H18   S    
C16   C20   A    
C39   C51   T    
O14   C58   A    
C40   C52   T    
O13   C57   A    
C38   H4    S    
O5    V1    S    
C42   C50   S    
C27   I13   S    
C15   C19   A    
C38   C46   S    
O4    V2    S    
C36   C42   S    
C43   C45   S    
O12   V3    S    
O6    C4    A    
C34   C42   S    
C3    C32   S    
O1    V2    S    
C26   I20   S    
C37   I7    S    
O2    V1    S    
C6    C22   A    
C44   H14   S    
O14   V4    S    
C7    C27   A    
C50   H8    S    
O4    C2    A    
O20   V4    S    
O9    V1    S    
C10   C12   A    
O11   C59   A    
C17   C25   A    
C24   C26   A    
O19   V4    S    
O3    V1    S    
C33   I3    S    
C35   I5    S    
C7    C58   S    
C49   H5    S    
C55   C60   S    
O16   C60   A    
C6    H16   S    
O3    C1    A    
C13   H17   S    
C8    C30   A    
C42   C54   S    
C13   C15   A    
C29   I1    S    
C14   C16   A    
C38   I8    S    
C9    C11   A    
O7    V1    S    
C16   C18   A    
O11   V4    S    
O8    V2    S    
O15   V3    S    
C34   H12   S    
C48   I12   S    
C36   C38   S    
C47   I11   S    
C22   C24   A    
C44   C46   S    
C8    C57   S    
O10   V2    S    
C20   C28   A    
C5    C29   A    
C23   I9    S    
O18   V4    S    
C1    O8    A    
C11   C13   A    
C33   C43   S    
O20   V3    S    
C36   I6    S    
O9    V2    S    
C34   C44   S    
O10   V1    S    
C37   H3    S    
O15   C59   A    
C9    C31   A    
C7    C29   A    
C20   C22   A    
