data_mof_unit_35399.cif
_audit_creation_date              2013-03-05T15:41:47-0500
_audit_creation_method            fapswitch 2.2
_symmetry_space_group_name_H-M    P1
_symmetry_Int_Tables_number       1
_space_group_crystal_system       triclinic
_cell_length_a                    19.383181
_cell_length_b                    8.669447
_cell_length_c                    7.557715
_cell_angle_alpha                 102.480757
_cell_angle_beta                  96.355818
_cell_angle_gamma                 93.480171
_cell_volume                      1227.68029645

loop_
_atom_site_label
_atom_site_type_symbol
_atom_site_description
_atom_site_fract_x
_atom_site_fract_y
_atom_site_fract_z
_atom_type_partial_charge
O1    O     O_R   0.505010 0.286130 0.619770 -0.565583
O2    O     O_R   0.494990 0.713870 0.380230 -0.565381
O3    O     O_R   0.491990 0.256780 0.308370 -0.538978
O4    O     O_R   0.508010 0.743220 0.691630 -0.539204
C1    C     C_R   0.496240 0.200147 0.454078 0.850078
C2    C     C_R   0.503706 0.799858 0.545936 0.849907
O5    O     O_R   0.406650 0.514660 0.655750 -0.568605
O6    O     O_R   0.593350 0.485340 0.344250 -0.569196
O7    O     O_R   0.393640 0.485310 0.344340 -0.534521
O8    O     O_R   0.606360 0.514690 0.655660 -0.534348
C3    C     C_R   0.367578 0.502681 0.498863 0.800579
C4    C     C_R   0.632422 0.497318 0.501134 0.800384
Cu1   Cu    Cu3+1 0.507710 0.517380 0.684380 1.154978
Cu2   Cu    Cu3+1 0.492290 0.482620 0.315620 1.154857
C5    C     C_R   0.262417 0.522172 0.659984 -0.117048
C6    C     C_R   0.737573 0.477798 0.339973 -0.117236
H1    H     H_    0.295592 0.534461 0.787499 0.256632
H2    H     H_    0.704394 0.465575 0.212477 0.256568
C7    C     C_R   0.190657 0.520795 0.662320 -0.099418
C8    C     C_R   0.809331 0.479102 0.337600 -0.099270
H3    H     H_    0.170370 0.532522 0.791980 0.197900
H4    H     H_    0.829613 0.467378 0.207934 0.197946
C9    C     C_R   0.145862 0.503994 0.499248 -0.035098
C10   C     C_R   0.854131 0.495837 0.500650 -0.035154
C11   C     C_R   0.174123 0.491054 0.334612 -0.198828
C12   C     C_R   0.825879 0.508779 0.665296 -0.198817
C13   C     C_R   0.246001 0.495133 0.331228 0.361138
C14   C     C_R   0.754004 0.504769 0.668717 0.361210
C15   C     C_R   0.291247 0.507658 0.495522 -0.175883
C16   C     C_R   0.708752 0.492304 0.504448 -0.175935
N1    N     N_R   0.026851 0.486424 0.341585 -0.217605
N2    N     N_R   0.973142 0.513365 0.658293 -0.217609
N3    N     N_R   0.958240 0.484581 0.341556 -0.220904
N4    N     N_R   0.041752 0.515208 0.658321 -0.220915
C17   C     C_R   0.930049 0.498025 0.499997 0.451240
C18   C     C_R   0.069943 0.501768 0.499882 0.451242
C19   C     C_2   0.488919 0.032099 0.431067 -0.270715
C20   C     C_2   0.510935 0.967926 0.569028 -0.271050
H5    H     H_    0.463160 0.961255 0.301903 0.225635
H6    H     H_    0.536626 0.038799 0.698282 0.225451
N5    N     N_2   0.480680 0.456420 0.038530 0.029981
N6    N     N_2   0.519320 0.543580 0.961470 0.030042
H7    H     H_    0.140528 0.480827 0.207380 0.186757
H8    H     H_    0.859479 0.518961 0.792511 0.186786
N7    N     N_R   0.271544 0.490708 0.160121 0.125748
O9    O     O_R   0.304794 0.617073 0.133644 -0.364636
O10   O     O_R   0.249285 0.374500 0.021318 -0.349207
N8    N     N_R   0.728474 0.509229 0.839844 0.125871
O11   O     O_R   0.695189 0.382907 0.866318 -0.364686
O12   O     O_R   0.750821 0.625341 0.978678 -0.349198
N9    N     N_R   0.450489 0.313983 0.928766 0.258934
O13   O     O_R   0.477836 0.183880 0.945342 -0.332076
O14   O     O_R   0.385456 0.304270 0.859990 -0.309910
N10   N     N_R   0.549517 0.686007 0.071167 0.259003
O15   O     O_R   0.521769 0.815856 0.055717 -0.332405
O16   O     O_R   0.614750 0.696211 0.138199 -0.309447

loop_
_geom_bond_atom_site_label_1
_geom_bond_atom_site_label_2
_geom_bond_distance
_ccdc_geom_bond_type
C7    C9    1.401485 A    
O7    Cu2   1.949127 S    
N1    N3    1.328989 A    
C5    C7    1.392366 A    
C5    C15   1.402768 A    
C19   C20   1.326582 D    
C1    C19   1.425767 S    
C11   C13   1.394718 A    
N5    N6    1.299689 D    
N1    C18   1.357626 A    
C12   C14   1.394717 A    
O6    C4    1.314765 A    
C6    C8    1.392389 A    
C4    C16   1.480391 S    
C11   H7    1.083536 S    
C14   C16   1.418370 A    
C12   H8    1.083539 S    
C19   H5    1.084046 S    
Cu1   Cu2   2.718280 S    
N6    N10   1.384529 S    
C20   H6    1.084201 S    
O7    C3    1.305969 A    
C13   N7    1.428816 S    
O2    C2    1.298852 A    
O3    Cu2   1.946437 S    
O8    C4    1.305994 A    
Cu2   N5    2.042457 S    
O1    C1    1.298738 A    
N8    O12   1.300689 A    
N8    O11   1.301202 A    
C7    H3    1.082749 S    
C10   C12   1.399600 A    
O5    C3    1.314783 A    
N4    C18   1.355846 A    
C9    C11   1.399613 A    
O2    Cu2   1.954206 S    
N10   O16   1.299423 A    
C10   C17   1.471067 S    
O1    Cu1   1.954206 S    
C6    C16   1.402787 A    
N9    O13   1.299163 A    
N2    C17   1.357620 A    
O3    C1    1.295779 A    
O5    Cu1   1.944960 S    
C13   C15   1.418376 A    
C3    C15   1.480377 S    
C6    H2    1.078756 S    
C9    C18   1.471062 S    
N7    O10   1.300698 A    
O4    Cu1   1.946437 S    
C5    H1    1.078746 S    
N10   O15   1.298675 A    
Cu1   N6    2.042457 S    
O6    Cu2   1.944960 S    
N3    C17   1.355854 A    
C2    C20   1.425828 S    
N7    O9    1.301209 A    
O4    C2    1.295698 A    
N5    N9    1.384736 S    
C14   N8    1.428805 S    
C8    C10   1.401475 A    
C8    H4    1.082745 S    
N9    O14   1.299764 A    
O8    Cu1   1.949126 S    
N2    N4    1.328978 A    
