data_mof_unit_56441.cif
_audit_creation_date              2012-12-11T13:59:55-0500
_audit_creation_method            fapswitch 2.2
_symmetry_space_group_name_H-M    P1
_symmetry_Int_Tables_number       1
_space_group_crystal_system       triclinic
_cell_length_a                    11.221865
_cell_length_b                    11.271277
_cell_length_c                    18.762148
_cell_angle_alpha                 89.786015
_cell_angle_beta                  90.620175
_cell_angle_gamma                 120.389672
_cell_volume                      2046.94559851

loop_
_atom_site_label
_atom_site_type_symbol
_atom_type_description
_atom_site_fract_x
_atom_site_fract_y
_atom_site_fract_z
_atom_type_partial_charge
Br1   Br    Br    0.839339 0.427866 0.091971 -0.371095
Br2   Br    Br    0.198066 0.295647 0.069334 -0.300164
Br3   Br    Br    0.685780 0.886940 0.064553 -0.279039
Br4   Br    Br    0.803737 0.137574 0.942857 -0.295409
Br5   Br    Br    0.302382 0.198989 0.930834 -0.305626
Br6   Br    Br    0.906132 0.672730 0.951873 -0.297459
C1    C     C_R   0.541975 0.477502 0.853122 0.625704
C2    C     C_R   0.450823 0.581284 0.359805 0.556485
C3    C     C_R   0.068230 0.521606 0.353313 0.566331
C4    C     C_R   0.459470 0.940449 0.350544 0.547004
C5    C     C_2   0.015693 0.510680 0.584076 -0.099355
C6    C     C_2   0.482189 0.512498 0.587382 -0.106939
C7    C     C_2   0.538949 0.091944 0.565746 -0.095073
C8    C     C_2   0.517574 0.029126 0.412854 -0.103397
C9    C     C_2   0.460198 0.553297 0.434405 -0.105793
C10   C     C_2   0.027310 0.506787 0.427223 -0.092578
C11   C     C_2   0.082457 0.453474 0.472145 -0.157244
C12   C     C_R   0.522225 0.064460 0.853081 0.569349
C13   C     C_2   0.523449 0.657062 0.481029 -0.162365
C14   C     C_2   0.447390 0.080845 0.445130 -0.141909
C15   C     C_2   0.476302 0.132424 0.518674 -0.163611
C16   C     C_2   0.552835 0.634711 0.554656 -0.141319
C17   C     C_2   0.051082 0.432336 0.547474 -0.159618
C18   C     C_2   0.027919 0.506660 0.913984 0.258543
C19   C     C_2   0.487526 0.499548 0.918686 0.228562
C20   C     C_2   0.501259 0.992753 0.920709 0.270471
C21   C     C_2   0.508551 0.009617 0.080237 0.283273
C22   C     C_2   0.497758 0.491068 0.079554 0.233896
C23   C     C_R   0.943201 0.460364 0.849719 0.547213
C24   C     C_2   0.132415 0.567429 0.066841 0.309186
C25   C     C_2   0.008320 0.532193 0.039288 0.259733
C26   C     C_2   0.387039 0.406766 0.037019 0.118007
C27   C     C_2   0.588203 0.981227 0.037902 0.208759
C28   C     C_2   0.610517 0.027062 0.964908 0.223972
C29   C     C_2   0.403527 0.389859 0.961145 0.136338
C30   C     C_2   0.995250 0.566304 0.966003 0.205821
C31   C     C_R   0.477146 0.542248 0.146622 0.618390
C32   C     C_R   0.144269 0.555960 0.142663 0.566409
C33   C     C_R   0.458010 0.936488 0.147359 0.542308
C34   C     C_R   0.540475 0.481381 0.649525 0.541177
C35   C     C_R   0.548964 0.130062 0.640144 0.559270
C36   C     C_R   0.938960 0.458561 0.649423 0.539986
Cr1   Cr    Cr6+3 0.464030 0.233680 0.750360 1.073662
Cr2   Cr    Cr6+3 0.766320 0.230350 0.750360 1.079597
Cr3   Cr    Cr6+3 0.769650 0.535970 0.750360 1.084724
Cr4   Cr    Cr6+3 0.233680 0.464030 0.249640 1.077891
Cr5   Cr    Cr6+3 0.230350 0.766320 0.249640 1.080766
Cr6   Cr    Cr6+3 0.535970 0.769650 0.249640 1.084809
H1    H     H_    0.146778 0.414334 0.452410 0.147852
H2    H     H_    0.581585 0.028361 0.550382 0.106853
H3    H     H_    0.386230 0.429945 0.565235 0.091834
H4    H     H_    0.026138 0.604274 0.561392 0.113564
H5    H     H_    0.331894 0.669282 0.058471 0.291987
H6    H     H_    0.637073 0.483100 0.022934 0.357605
H7    H     H_    0.411690 0.110404 0.094050 0.361062
H8    H     H_    0.302582 0.883886 0.904196 0.357960
H9    H     H_    0.473532 0.638172 0.973014 0.350238
H10   H     H_    0.132260 0.419593 0.885257 0.347504
H11   H     H_    0.568544 0.762671 0.462721 0.134562
H12   H     H_    0.357392 0.075120 0.419436 0.161716
H13   H     H_    0.431772 0.193214 0.536469 0.133452
H14   H     H_    0.643653 0.719136 0.579905 0.160734
H15   H     H_    0.048061 0.343084 0.571639 0.157569
H16   H     H_    0.963397 0.547421 0.445274 0.104069
H17   H     H_    0.416957 0.446743 0.450246 0.102936
H18   H     H_    0.612766 0.041816 0.435428 0.100168
O1    O     O_R   0.434100 0.092480 0.829780 -0.472931
O2    O     O_R   0.362730 0.477510 0.175360 -0.524976
O3    O     O_R   0.114780 0.637270 0.175360 -0.470715
O4    O     O_R   0.522490 0.885220 0.175360 -0.498453
O5    O     O_R   0.432250 0.092620 0.670380 -0.501700
O6    O     O_R   0.907380 0.339630 0.670380 -0.525615
O7    O     O_R   0.660370 0.567750 0.670380 -0.512043
O8    O     O_R   0.092620 0.432250 0.329620 -0.512289
O9    O     O_R   0.339630 0.907380 0.329620 -0.510027
O10   O     O_R   0.567750 0.660370 0.329620 -0.486997
O11   O     O_R   0.475790 0.362860 0.676880 -0.524866
O12   O     O_R   0.907520 0.341620 0.829780 -0.472909
O13   O     O_R   0.637140 0.112930 0.676880 -0.498000
O14   O     O_R   0.887070 0.524210 0.676880 -0.506000
O15   O     O_R   0.362860 0.475790 0.323120 -0.501196
O16   O     O_R   0.112930 0.637140 0.323120 -0.487418
O17   O     O_R   0.524210 0.887070 0.323120 -0.516502
O18   O     O_3   0.666667 0.333333 0.749450 -0.294111
O19   O     O_3   0.333333 0.666667 0.250550 -0.343265
O20   O     O_3   0.250579 0.644922 0.027393 -0.662927
O21   O     O_3   0.632811 0.546903 0.057573 -0.583965
O22   O     O_3   0.463889 0.096940 0.055748 -0.646169
O23   O     O_R   0.658380 0.565900 0.829780 -0.434026
O24   O     O_3   0.368860 0.900540 0.943595 -0.632716
O25   O     O_3   0.538833 0.634718 0.939235 -0.621795
O26   O     O_3   0.110200 0.450582 0.930051 -0.629237
O27   O     O_R   0.092480 0.434100 0.170220 -0.436235
O28   O     O_R   0.341620 0.907520 0.170220 -0.501819
O29   O     O_R   0.565900 0.658380 0.170220 -0.424656
O30   O     O_R   0.477510 0.362730 0.824640 -0.500234
O31   O     O_R   0.637270 0.114780 0.824640 -0.480123
O32   O     O_R   0.885220 0.522490 0.824640 -0.487390

loop_
_geom_bond_atom_site_label_1
_geom_bond_atom_site_label_2
_ccdc_geom_bond_type
C36   O14   A    
Cr6   O29   S    
Cr6   O10   S    
C12   C20   S    
C2    O10   A    
C7    C35   S    
C21   C27   D    
C9    C13   D    
C1    O30   A    
C31   O29   A    
C18   C30   D    
C23   O32   A    
Cr5   O19   S    
Br2   C26   S    
C3    C10   S    
Cr3   O32   S    
C24   C25   D    
Br3   C27   S    
C1    O23   A    
C31   O2    A    
C6    C16   D    
C4    O17   A    
Br1   C25   S    
C34   O7    A    
C24   C32   S    
C5    C36   S    
Cr3   O7    S    
Cr2   O31   S    
Cr5   O16   S    
C5    C17   D    
H7    O22   S    
C18   C23   S    
Cr5   O3    S    
C5    H4    S    
C20   C28   D    
C23   O12   A    
C21   C33   S    
C10   C11   D    
H5    O20   S    
C12   O31   A    
C24   O20   S    
Cr3   O23   S    
C15   H13   S    
C3    O16   A    
C35   O5    A    
Cr4   O19   S    
C17   H15   S    
C32   O3    A    
Cr1   O18   S    
C18   O26   S    
Cr1   O30   S    
Br4   C28   S    
C19   O25   S    
C2    O15   A    
C26   C29   S    
C8    C14   D    
C22   C26   D    
C13   C16   S    
C4    C8    S    
C11   H1    S    
C13   H11   S    
C12   O1    A    
C6    C34   S    
C33   O28   A    
Cr4   O2    S    
C16   H14   S    
Cr4   O15   S    
C4    O9    A    
C22   O21   S    
C36   O6    A    
C27   C28   S    
C8    H18   S    
C7    C15   D    
C11   C17   S    
C19   C29   D    
C2    C9    S    
Cr3   O18   S    
C20   O24   S    
C3    O8    A    
Cr4   O8    S    
C6    H3    S    
Cr1   O5    S    
H9    O25   S    
Cr6   O19   S    
Cr2   O13   S    
Cr6   O4    S    
Cr2   O18   S    
C35   O13   A    
Cr1   O11   S    
C1    C19   S    
Cr6   O17   S    
Cr2   O12   S    
Cr5   O9    S    
H6    O21   S    
Cr4   O27   S    
C22   C31   S    
Br5   C29   S    
C32   O27   A    
H8    O24   S    
C33   O4    A    
Br6   C30   S    
Cr2   O6    S    
Cr3   O14   S    
C34   O11   A    
C21   O22   S    
C7    H2    S    
C14   C15   S    
Cr1   O1    S    
C25   C30   S    
C10   H16   S    
C14   H12   S    
H10   O26   S    
Cr5   O28   S    
C9    H17   S    
