data_mof_unit_65235.cif
_audit_creation_date              2012-12-10T18:05:49-0500
_audit_creation_method            fapswitch 2.2
_symmetry_space_group_name_H-M    P1
_symmetry_Int_Tables_number       1
_space_group_crystal_system       triclinic
_cell_length_a                    25.923573
_cell_length_b                    25.995463
_cell_length_c                    22.17695
_cell_angle_alpha                 89.999731
_cell_angle_beta                  54.277333
_cell_angle_gamma                 89.99972
_cell_volume                      12133.0901076

loop_
_atom_site_label
_atom_site_type_symbol
_atom_type_description
_atom_site_fract_x
_atom_site_fract_y
_atom_site_fract_z
_atom_type_partial_charge
C1    C     C_R   0.400272 0.249978 0.699439 0.827688
C2    C     C_3   0.239355 0.707051 0.974656 -0.221224
C3    C     C_3   0.240885 0.206226 0.974716 -0.228179
C4    C     C_3   0.737173 0.291731 0.974708 -0.227662
C5    C     C_3   0.262692 0.708187 0.025292 -0.227713
C6    C     C_3   0.259115 0.293774 0.025284 -0.228179
C7    C     C_3   0.739136 0.707137 0.974712 -0.228021
C8    C     C_3   0.689724 0.248689 0.023627 0.025594
C9    C     C_3   0.310279 0.751155 0.976373 0.025572
C10   C     C_3   0.310207 0.252873 0.976373 0.025532
C11   C     C_3   0.689716 0.749073 0.023627 0.025554
C12   C     C_3   0.189720 0.748845 0.023627 0.025573
C13   C     C_3   0.235853 0.290861 0.974647 -0.220442
C14   C     C_3   0.810275 0.251311 0.976373 0.025594
C15   C     C_3   0.810284 0.750927 0.976373 0.025555
C16   C     C_3   0.189793 0.247127 0.023627 0.025532
C17   C     C_1   0.639375 0.249963 0.221212 -0.097802
C18   C     C_1   0.360625 0.750037 0.778788 -0.097800
C19   C     C_1   0.360627 0.249964 0.778788 -0.097788
C20   C     C_1   0.639374 0.750036 0.221212 -0.097807
C21   C     C_1   0.139374 0.749963 0.221212 -0.097801
C22   C     C_1   0.860625 0.250036 0.778788 -0.097801
C23   C     C_1   0.860626 0.749964 0.778788 -0.097807
C24   C     C_3   0.762477 0.708093 0.025349 -0.220784
C25   C     C_1   0.139373 0.250036 0.221212 -0.097787
C26   C     C_2   0.622177 0.247192 0.048492 0.915567
C27   C     C_2   0.377832 0.752475 0.951508 0.915594
C28   C     C_2   0.377678 0.256127 0.951511 0.916126
C29   C     C_2   0.622158 0.748028 0.048489 0.915842
C30   C     C_2   0.122168 0.747525 0.048491 0.915594
C31   C     C_2   0.877823 0.252808 0.951508 0.915567
C32   C     C_2   0.877842 0.751971 0.951511 0.915842
C33   C     C_2   0.122322 0.243873 0.048488 0.916126
C34   C     C_2   0.271454 0.247671 0.356078 0.936070
C35   C     C_3   0.260645 0.792949 0.025344 -0.221224
C36   C     C_2   0.728544 0.752307 0.643924 0.936025
C37   C     C_2   0.728547 0.247733 0.643923 0.935796
C38   C     C_2   0.271454 0.752283 0.356076 0.935882
C39   C     C_2   0.771455 0.747691 0.356077 0.936028
C40   C     C_2   0.228545 0.252331 0.643922 0.936068
C41   C     C_2   0.228546 0.747714 0.643923 0.935883
C42   C     C_2   0.771453 0.252264 0.356076 0.935795
C43   C     C_3   0.739494 0.206976 0.974656 -0.221298
C44   C     C_3   0.737523 0.791907 0.974651 -0.220784
C45   C     C_3   0.264147 0.209139 0.025353 -0.220441
C46   C     C_3   0.712885 0.249965 0.073357 0.115252
C47   C     C_3   0.287115 0.750034 0.926643 0.115246
C48   C     C_3   0.287117 0.249998 0.926643 0.115043
C49   C     C_R   0.599728 0.750021 0.300561 0.827362
C50   C     C_3   0.712883 0.750017 0.073357 0.115161
C51   C     C_3   0.212885 0.749966 0.073357 0.115246
C52   C     C_3   0.787115 0.250035 0.926643 0.115252
C53   C     C_3   0.787117 0.749983 0.926643 0.115161
C54   C     C_3   0.212883 0.250002 0.073357 0.115042
C55   C     C_1   0.672619 0.249959 0.154465 0.029094
C56   C     C_1   0.327381 0.750041 0.845534 0.029104
C57   C     C_1   0.327384 0.249969 0.845534 0.029383
C58   C     C_1   0.672618 0.750036 0.154465 0.029230
C59   C     C_1   0.172619 0.749959 0.154465 0.029104
C60   C     C_R   0.599727 0.249979 0.300561 0.826999
C61   C     C_1   0.827380 0.250041 0.845534 0.029094
C62   C     C_1   0.827382 0.749964 0.845534 0.029230
C63   C     C_1   0.172616 0.250031 0.154466 0.029383
C64   C     C_R   0.310825 0.244347 0.434403 -0.232145
C65   C     C_R   0.689173 0.755641 0.565599 -0.232174
C66   C     C_R   0.689172 0.244379 0.565603 -0.232170
C67   C     C_R   0.310828 0.755630 0.434398 -0.232188
C68   C     C_R   0.810826 0.744358 0.434401 -0.232175
C69   C     C_R   0.189174 0.255652 0.565597 -0.232147
C70   C     C_R   0.189173 0.744369 0.565601 -0.232189
C71   C     C_R   0.400272 0.750021 0.699439 0.827032
C72   C     C_R   0.810828 0.255621 0.434397 -0.232168
C73   C     C_R   0.259067 0.247047 0.430573 -0.033163
C74   C     C_R   0.740932 0.752942 0.569429 -0.033203
C75   C     C_R   0.740933 0.247077 0.569430 -0.033250
C76   C     C_R   0.259068 0.752931 0.430570 -0.033232
C77   C     C_R   0.759067 0.747057 0.430572 -0.033201
C78   C     C_R   0.240933 0.252953 0.569427 -0.033165
C79   C     C_R   0.240933 0.747068 0.569429 -0.033228
C80   C     C_R   0.759068 0.252921 0.430570 -0.033253
C81   C     C_R   0.197537 0.251979 0.497410 -0.089207
C82   C     C_R   0.900272 0.749979 0.699439 0.827362
C83   C     C_R   0.802463 0.748021 0.502590 -0.089177
C84   C     C_R   0.802464 0.251979 0.502588 -0.089175
C85   C     C_R   0.197537 0.748020 0.497411 -0.089162
C86   C     C_R   0.697537 0.751979 0.497410 -0.089178
C87   C     C_R   0.302463 0.248021 0.502591 -0.089208
C88   C     C_R   0.302464 0.751979 0.502589 -0.089163
C89   C     C_R   0.697536 0.248021 0.497412 -0.089174
C90   C     C_R   0.490211 0.026690 0.452738 -0.172273
C91   C     C_R   0.509789 0.973310 0.547262 -0.172280
C92   C     C_R   0.509789 0.026689 0.547262 -0.172357
C93   C     C_R   0.099728 0.250022 0.300561 0.827688
C94   C     C_R   0.490211 0.973311 0.452738 -0.172322
C95   C     C_R   0.990211 0.526690 0.452738 -0.172280
C96   C     C_R   0.009789 0.473310 0.547262 -0.172273
C97   C     C_R   0.009789 0.526689 0.547262 -0.172322
C98   C     C_R   0.990211 0.473311 0.452738 -0.172357
C99   C     C_R   0.500000 0.946325 0.500000 -0.004208
C100  C     C_R   0.500000 0.053675 0.500000 -0.004195
C101  C     C_R   1.000000 0.446325 0.500000 -0.004195
C102  C     C_R   0.000000 0.553674 0.500000 -0.004208
C103  C     C_R   0.640745 0.249191 0.498760 0.860474
C104  C     C_R   0.099727 0.749979 0.300561 0.827032
C105  C     C_R   0.359254 0.750809 0.501240 0.860387
C106  C     C_R   0.359254 0.249190 0.501241 0.860283
C107  C     C_R   0.640746 0.750809 0.498759 0.860301
C108  C     C_R   0.140746 0.749191 0.498760 0.860392
C109  C     C_R   0.859254 0.250809 0.501239 0.860470
C110  C     C_R   0.859254 0.749191 0.501241 0.860303
C111  C     C_R   0.140746 0.250809 0.498759 0.860284
C112  C     C_R   0.500000 0.109763 0.500000 0.805275
C113  C     C_R   0.500000 0.890237 0.500000 0.805257
C114  C     C_R   1.000000 0.609763 0.500000 0.805258
C115  C     C_R   0.900273 0.250021 0.699439 0.826999
C116  C     C_R   1.000000 0.390237 0.500000 0.805275
C117  C     C_R   0.500000 0.390264 0.500000 0.787344
C118  C     C_R   0.500000 0.609736 0.500000 0.787283
C119  C     C_R   1.000000 0.890264 0.500000 0.787282
C120  C     C_R   1.000000 0.109736 0.500000 0.787344
C121  C     C_R   0.557008 0.473314 0.452745 -0.176869
C122  C     C_R   0.442992 0.526686 0.547255 -0.176866
C123  C     C_R   0.442992 0.473315 0.547255 -0.176803
C124  C     C_R   0.557008 0.526686 0.452745 -0.176841
C125  C     C_R   0.057008 0.973314 0.452745 -0.176866
C126  C     C_3   0.760506 0.293024 0.025344 -0.221298
C127  C     C_R   0.942992 0.026686 0.547255 -0.176868
C128  C     C_R   0.942992 0.973314 0.547255 -0.176841
C129  C     C_R   0.057008 0.026685 0.452744 -0.176803
C130  C     C_R   0.500000 0.553662 0.500000 0.000981
C131  C     C_R   0.500000 0.446337 0.500000 0.000984
C132  C     C_R   0.000000 0.053662 0.500000 0.000984
C133  C     C_R   1.000000 0.946338 0.500000 0.000981
C134  C     C_3   0.237308 0.791813 0.974708 -0.227713
C135  C     C_3   0.762827 0.208269 0.025292 -0.227662
C136  C     C_3   0.760864 0.792863 0.025288 -0.228021
H1    H     H_    0.601590 0.453256 0.415794 0.171548
H2    H     H_    0.470805 0.753741 0.866249 0.364734
H3    H     H_    0.470586 0.258996 0.866255 0.363727
H4    H     H_    0.529176 0.747157 0.133747 0.364257
H5    H     H_    0.029195 0.746259 0.133751 0.364733
H6    H     H_    0.970792 0.254232 0.866249 0.364736
H7    H     H_    0.970824 0.752842 0.866253 0.364256
H8    H     H_    0.029414 0.241004 0.133744 0.363728
H9    H     H_    0.226894 0.825960 0.953418 0.167247
H10   H     H_    0.773351 0.174189 0.046582 0.167253
H11   H     H_    0.769783 0.827885 0.046574 0.167149
H12   H     H_    0.398410 0.546744 0.584206 0.171537
H13   H     H_    0.233396 0.170445 0.953434 0.167135
H14   H     H_    0.726649 0.325810 0.953418 0.167253
H15   H     H_    0.273106 0.674039 0.046582 0.167247
H16   H     H_    0.266604 0.329555 0.046566 0.167135
H17   H     H_    0.730217 0.672114 0.953426 0.167150
H18   H     H_    0.230610 0.671960 0.953323 0.169896
H19   H     H_    0.769138 0.328178 0.046676 0.169862
H20   H     H_    0.772719 0.673870 0.046686 0.170260
H21   H     H_    0.224246 0.324216 0.953306 0.170588
H22   H     H_    0.730862 0.171822 0.953324 0.169862
H23   H     H_    0.398410 0.453256 0.584206 0.171505
H24   H     H_    0.269390 0.828040 0.046677 0.169896
H25   H     H_    0.275754 0.175784 0.046693 0.170587
H26   H     H_    0.727281 0.826130 0.953314 0.170260
H27   H     H_    0.358471 0.241650 0.383481 0.187527
H28   H     H_    0.641527 0.758331 0.616521 0.187521
H29   H     H_    0.641525 0.241705 0.616527 0.187564
H30   H     H_    0.358474 0.758311 0.383475 0.187538
H31   H     H_    0.858472 0.741669 0.383479 0.187518
H32   H     H_    0.141529 0.258349 0.616519 0.187527
H33   H     H_    0.141526 0.741688 0.616524 0.187535
H34   H     H_    0.601590 0.546744 0.415794 0.171530
H35   H     H_    0.858475 0.258294 0.383473 0.187567
H36   H     H_    0.246947 0.274556 0.290613 0.348842
H37   H     H_    0.753064 0.725421 0.709377 0.348741
H38   H     H_    0.753083 0.274632 0.709355 0.348598
H39   H     H_    0.246924 0.725391 0.290636 0.348616
H40   H     H_    0.746937 0.774579 0.290623 0.348741
H41   H     H_    0.253054 0.225448 0.709388 0.348844
H42   H     H_    0.253074 0.774608 0.709365 0.348616
H43   H     H_    0.746915 0.225366 0.290646 0.348598
H44   H     H_    0.482551 0.046750 0.415781 0.171597
H45   H     H_    0.101590 0.953256 0.415794 0.171537
H46   H     H_    0.517449 0.953249 0.584219 0.171591
H47   H     H_    0.517449 0.046749 0.584219 0.171520
H48   H     H_    0.482551 0.953251 0.415781 0.171567
H49   H     H_    0.982551 0.546750 0.415781 0.171591
H50   H     H_    0.017449 0.453250 0.584219 0.171597
H51   H     H_    0.017449 0.546749 0.584219 0.171567
H52   H     H_    0.982551 0.453251 0.415781 0.171520
H53   H     H_    0.898410 0.046744 0.584206 0.171548
H54   H     H_    0.898410 0.953256 0.584206 0.171530
H55   H     H_    0.101590 0.046744 0.415794 0.171505
H56   H     H_    0.529208 0.245768 0.133751 0.364737
O1    O     O_3   0.500000 0.250030 0.500000 -0.496507
O2    O     O_R   0.112550 0.219620 0.335580 -0.626930
O3    O     O_R   0.112550 0.780380 0.335580 -0.627033
O4    O     O_R   0.887450 0.219620 0.664420 -0.627040
O5    O     O_R   0.594260 0.219670 0.543090 -0.638185
O6    O     O_R   0.405740 0.780330 0.456910 -0.638183
O7    O     O_R   0.405740 0.219670 0.456910 -0.638196
O8    O     O_R   0.594260 0.780330 0.543090 -0.638193
O9    O     O_R   0.094260 0.719670 0.543090 -0.638184
O10   O     O_R   0.905740 0.280330 0.456910 -0.638185
O11   O     O_R   0.905740 0.719670 0.456910 -0.638193
O12   O     O_3   0.500000 0.749970 0.500000 -0.496532
O13   O     O_R   0.094260 0.280330 0.543090 -0.638195
O14   O     O_R   0.508800 0.134220 0.543090 -0.642545
O15   O     O_R   0.491200 0.865780 0.456910 -0.642498
O16   O     O_R   0.491200 0.134220 0.456910 -0.642437
O17   O     O_R   0.508800 0.865780 0.543090 -0.642446
O18   O     O_R   0.008800 0.634220 0.543090 -0.642498
O19   O     O_R   0.991200 0.365780 0.456910 -0.642545
O20   O     O_R   0.991200 0.634220 0.456910 -0.642446
O21   O     O_R   0.008800 0.365780 0.543090 -0.642437
O22   O     O_R   0.448100 0.365830 0.543110 -0.648111
O23   O     O_3   1.000000 0.750030 0.500000 -0.496532
O24   O     O_R   0.551900 0.634170 0.456890 -0.648123
O25   O     O_R   0.551900 0.365830 0.456890 -0.648130
O26   O     O_R   0.448100 0.634170 0.543110 -0.648129
O27   O     O_R   0.948100 0.865830 0.543110 -0.648123
O28   O     O_R   0.051900 0.134170 0.456890 -0.648111
O29   O     O_R   0.051900 0.865830 0.456890 -0.648130
O30   O     O_R   0.948100 0.134170 0.543110 -0.648129
O31   O     O_R   0.637370 0.280400 0.456880 -0.621253
O32   O     O_R   0.362630 0.719600 0.543120 -0.621278
O33   O     O_R   0.362630 0.280400 0.543120 -0.621414
O34   O     O_3   1.000000 0.249970 0.500000 -0.496507
O35   O     O_R   0.637370 0.719600 0.456880 -0.621348
O36   O     O_R   0.137370 0.780400 0.456880 -0.621275
O37   O     O_R   0.862630 0.219600 0.543120 -0.621256
O38   O     O_R   0.862630 0.780400 0.543120 -0.621346
O39   O     O_R   0.137370 0.219600 0.456880 -0.621414
O40   O     O_R   0.448170 0.219660 0.664410 -0.627118
O41   O     O_R   0.551830 0.780340 0.335590 -0.626726
O42   O     O_R   0.551830 0.219660 0.335590 -0.626311
O43   O     O_R   0.448170 0.780340 0.664410 -0.626330
O44   O     O_R   0.948170 0.719660 0.664410 -0.626726
O45   O     O_R   0.387450 0.280380 0.664420 -0.626931
O46   O     O_R   0.051830 0.280340 0.335590 -0.627118
O47   O     O_R   0.051830 0.719660 0.335590 -0.626330
O48   O     O_R   0.948170 0.280340 0.664410 -0.626311
O49   O     O_2   0.610910 0.246309 0.002137 -0.590892
O50   O     O_R   0.572515 0.246810 0.124173 -0.798287
O51   O     O_2   0.389101 0.753246 0.997863 -0.590907
O52   O     O_R   0.427494 0.752822 0.875827 -0.798311
O53   O     O_2   0.388888 0.258235 0.997868 -0.592019
O54   O     O_R   0.427332 0.256729 0.875830 -0.799036
O55   O     O_2   0.610889 0.747311 0.002133 -0.591446
O56   O     O_R   0.612550 0.719620 0.335580 -0.626987
O57   O     O_R   0.572490 0.747885 0.124170 -0.798694
O58   O     O_2   0.110899 0.746754 0.002137 -0.590908
O59   O     O_R   0.072506 0.747178 0.124173 -0.798312
O60   O     O_2   0.889090 0.253691 0.997863 -0.590892
O61   O     O_R   0.927485 0.253190 0.875827 -0.798287
O62   O     O_2   0.889111 0.752688 0.997866 -0.591447
O63   O     O_R   0.927510 0.752115 0.875829 -0.798694
O64   O     O_2   0.111112 0.241765 0.002132 -0.592019
O65   O     O_R   0.072668 0.243271 0.124169 -0.799035
O66   O     O_2   0.316327 0.223506 0.304783 -0.603680
O67   O     O_R   0.612550 0.280380 0.335580 -0.627039
O68   O     O_R   0.233456 0.277258 0.343598 -0.807426
O69   O     O_2   0.683660 0.776455 0.695231 -0.603382
O70   O     O_R   0.766556 0.722727 0.656391 -0.807541
O71   O     O_2   0.683653 0.223605 0.695247 -0.602636
O72   O     O_R   0.766575 0.277311 0.656368 -0.807711
O73   O     O_2   0.316346 0.776418 0.304758 -0.602910
O74   O     O_R   0.233432 0.722706 0.343623 -0.807663
O75   O     O_2   0.816337 0.723541 0.304771 -0.603381
O76   O     O_R   0.733445 0.777273 0.343609 -0.807542
O77   O     O_2   0.183674 0.276496 0.695217 -0.603680
O78   O     O_R   0.387450 0.719620 0.664420 -0.627034
O79   O     O_R   0.266543 0.222744 0.656403 -0.807422
O80   O     O_2   0.183658 0.723576 0.695239 -0.602908
O81   O     O_R   0.266566 0.777294 0.656378 -0.807663
O82   O     O_2   0.816351 0.276388 0.304749 -0.602638
O83   O     O_R   0.733423 0.222689 0.343633 -0.807711
O84   O     O_R   0.887450 0.780380 0.664420 -0.626987
Zn1   Zn    Zn3+2 0.574170 0.293410 0.438410 1.006012
Zn2   Zn    Zn3+2 0.487410 0.793350 0.438420 1.011957
Zn3   Zn    Zn3+2 0.487410 0.206650 0.438420 1.012073
Zn4   Zn    Zn3+2 0.512590 0.793350 0.561580 1.012070
Zn5   Zn    Zn3+2 0.012590 0.706650 0.561580 1.011958
Zn6   Zn    Zn3+2 0.987410 0.293350 0.438420 1.011839
Zn7   Zn    Zn3+2 0.987410 0.706650 0.438420 1.012070
Zn8   Zn    Zn3+2 0.012590 0.293350 0.561580 1.012073
Zn9   Zn    Zn3+2 0.425830 0.706590 0.561590 1.005949
Zn10  Zn    Zn3+2 0.425830 0.293410 0.561590 1.005972
Zn11  Zn    Zn3+2 0.574170 0.706590 0.438410 1.005925
Zn12  Zn    Zn3+2 0.074170 0.793410 0.438410 1.005949
Zn13  Zn    Zn3+2 0.925830 0.206590 0.561590 1.006012
Zn14  Zn    Zn3+2 0.925830 0.793410 0.561590 1.005925
Zn15  Zn    Zn3+2 0.074170 0.206590 0.438410 1.005973
Zn16  Zn    Zn3+2 0.512590 0.206650 0.561580 1.011840

loop_
_geom_bond_atom_site_label_1
_geom_bond_atom_site_label_2
_ccdc_geom_bond_type
C25   C93   S    
C8    C26   S    
C74   C83   A    
C43   H22   S    
C27   O52   S    
C15   C32   S    
O30   Zn13  S    
C95   H49   S    
H6    O61   S    
C21   C59   T    
C52   C61   S    
C107  O8    A    
O20   Zn7   S    
C39   O75   D    
C54   C63   S    
C7    C24   S    
C3    C48   S    
C68   C77   A    
C41   O80   D    
C103  O5    A    
C45   H25   S    
C110  O38   A    
C103  O31   A    
C44   C53   S    
C14   C52   S    
O1    Zn10  S    
C46   C55   S    
O23   Zn5   S    
C117  O25   A    
O3    Zn12  S    
C122  H12   S    
C95   C102  A    
C12   C30   S    
C37   C75   S    
C6    C54   S    
O45   Zn10  S    
C35   C134  S    
C73   C81   A    
C66   C89   A    
O1    Zn1   S    
C3    H13   S    
C108  O36   A    
O34   Zn6   S    
C6    C10   S    
C102  C114  S    
O35   Zn11  S    
O36   Zn12  S    
O5    Zn16  S    
H43   O83   S    
C135  H10   S    
C124  C130  A    
C72   C84   A    
C47   C134  S    
C35   C51   S    
H5    O59   S    
C7    C53   S    
C15   C53   S    
C12   C51   S    
C41   O81   S    
O10   Zn6   S    
C18   C71   S    
C97   H51   S    
C120  O30   A    
C70   C79   A    
C68   C83   A    
C14   C126  S    
O40   Zn16  S    
O27   Zn14  S    
C2    C47   S    
C105  O32   A    
C4    H14   S    
C5    H15   S    
C36   O69   D    
O37   Zn13  S    
C69   H32   S    
C123  H23   S    
C32   O63   S    
C104  O3    A    
C128  H54   S    
C16   C54   S    
C49   O56   A    
H40   O76   S    
C34   C73   S    
C42   O82   D    
C125  C129  A    
C91   H46   S    
C33   O65   S    
C5    C51   S    
C76   C85   A    
C24   H20   S    
O21   Zn8   S    
C78   C87   A    
O1    Zn3   S    
C115  O4    A    
C23   C82   S    
C111  O39   A    
C93   O2    A    
C14   C31   S    
O38   Zn14  S    
C48   C57   S    
C38   C76   S    
C5    C9    S    
C20   C49   S    
C109  O10   A    
C70   H33   S    
C116  O19   A    
C43   C52   S    
C14   C135  S    
C119  O29   A    
C30   O59   S    
C121  H1    S    
C23   C62   T    
C107  O35   A    
C64   C73   A    
C71   O43   A    
C64   C87   A    
O26   Zn9   S    
O32   Zn9   S    
C2    H18   S    
H7    O63   S    
C89   C103  S    
H39   O74   S    
C13   H21   S    
C24   C50   S    
C90   H44   S    
C83   C110  S    
C91   C92   A    
C15   C136  S    
C1    O45   A    
C65   C74   A    
C29   O57   S    
O14   Zn16  S    
C108  O9    A    
C10   C45   S    
O34   Zn15  S    
C106  O33   A    
C34   O68   S    
C11   C44   S    
C28   O54   S    
H8    O65   S    
H37   O70   S    
H42   O81   S    
C15   C24   S    
O67   Zn1   S    
C2    C5    S    
C20   C58   T    
C66   H29   S    
O18   Zn5   S    
C116  O21   A    
C27   O51   D    
C45   C54   S    
O56   Zn11  S    
O31   Zn1   S    
O44   Zn5   S    
C84   C109  S    
C4    C126  S    
O33   Zn10  S    
C37   O72   S    
C113  O17   A    
C72   C80   A    
C22   C61   T    
C88   C105  S    
C129  H55   S    
C117  C131  S    
C8    C46   S    
C17   C60   S    
O11   Zn7   S    
O23   Zn14  S    
O48   Zn8   S    
C13   C16   S    
C32   O62   D    
C118  O24   A    
C91   C99   A    
C70   C85   A    
C3    C16   S    
C47   C56   S    
C44   C136  S    
O16   Zn3   S    
C82   O44   A    
C8    C43   S    
C26   O49   D    
C65   C86   A    
C19   C57   T    
O41   Zn2   S    
O22   Zn10  S    
C67   C88   A    
C127  H53   S    
C44   H26   S    
C113  O15   A    
C38   O73   D    
O34   Zn13  S    
C34   O66   D    
C80   C89   A    
C35   H24   S    
C98   H52   S    
C46   C135  S    
C21   C104  S    
C109  O37   A    
O7    Zn3   S    
O8    Zn4   S    
C118  O26   A    
C85   C108  S    
C111  O13   A    
O39   Zn15  S    
C97   C102  A    
C129  C132  A    
C6    H16   S    
C126  H19   S    
O25   Zn1   S    
C96   C101  A    
C94   H48   S    
C64   H27   S    
H41   O79   S    
C79   C88   A    
C90   C94   A    
O12   Zn9   S    
C1    C19   S    
H56   O50   S    
C31   O61   S    
C125  H45   S    
C50   C58   S    
C72   H35   S    
C96   H50   S    
C60   O42   A    
C39   O76   S    
O4    Zn13  S    
C3    C45   S    
C110  O11   A    
C36   O70   S    
C118  C130  S    
O6    Zn2   S    
O12   Zn2   S    
C120  O28   A    
C36   C74   S    
O15   Zn2   S    
C42   O83   S    
O28   Zn15  S    
C105  O6    A    
C9    C47   S    
O13   Zn8   S    
C10   C48   S    
C40   C78   S    
O78   Zn9   S    
C127  C128  A    
H2    O52   S    
C9    C27   S    
C10   C28   S    
C134  H9    S    
O42   Zn3   S    
C123  C131  A    
C33   O64   D    
C99   C113  S    
C98   C101  A    
C112  O14   A    
C11   C50   S    
C1    O40   A    
C71   O78   A    
C66   C75   A    
C31   O60   D    
C117  O22   A    
C75   C84   A    
C69   C81   A    
C9    C35   S    
C101  C116  S    
H3    O54   S    
C104  O47   A    
O12   Zn11  S    
C42   C80   S    
C86   C107  S    
C4    C8    S    
C2    C12   S    
C95   C98   A    
C40   O77   D    
C7    C11   S    
C119  C133  S    
C4    C52   S    
O46   Zn6   S    
O43   Zn4   S    
C39   C77   S    
C60   O67   A    
C115  O48   A    
O12   Zn4   S    
O23   Zn12  S    
C25   C63   T    
O24   Zn11  S    
C114  O20   A    
C127  C132  A    
C121  C124  A    
C49   O41   A    
C81   C111  S    
H36   O68   S    
C17   C55   T    
C18   C56   T    
O84   Zn14  S    
C119  O27   A    
C29   O55   D    
C69   C78   A    
C121  C131  A    
O1    Zn16  S    
C90   C100  A    
O2    Zn15  S    
C112  O16   A    
O9    Zn5   S    
O47   Zn7   S    
C30   O58   D    
O29   Zn12  S    
C82   O84   A    
C37   O71   D    
C16   C33   S    
C53   C62   S    
C7    H17   S    
C93   O46   A    
C96   C97   A    
O19   Zn6   S    
C43   C135  S    
C67   H30   S    
C22   C115  S    
C77   C86   A    
O23   Zn7   S    
C51   C59   S    
C92   C100  A    
C40   O79   S    
C125  C133  A    
C120  C132  S    
C46   C126  S    
H4    O57   S    
C92   H47   S    
C41   C79   S    
C13   C48   S    
C26   O50   S    
C100  C112  S    
O17   Zn4   S    
C114  O18   A    
C38   O74   S    
C50   C136  S    
C128  C133  A    
C6    C13   S    
C87   C106  S    
C94   C99   A    
C65   H28   S    
C28   O53   D    
O34   Zn8   S    
C136  H11   S    
H38   O72   S    
C68   H31   S    
C124  H34   S    
C11   C29   S    
C12   C134  S    
C67   C76   A    
C122  C123  A    
C122  C130  A    
C106  O7    A    
