data_mof_unit_5783.cif
_audit_creation_date              2012-12-10T16:58:27-0500
_audit_creation_method            fapswitch 2.2
_symmetry_space_group_name_H-M    P1
_symmetry_Int_Tables_number       1
_space_group_crystal_system       triclinic
_cell_length_a                    7.74557
_cell_length_b                    8.602215
_cell_length_c                    23.395576
_cell_angle_alpha                 91.077904
_cell_angle_beta                  86.028863
_cell_angle_gamma                 93.363537
_cell_volume                      1552.23347537

loop_
_atom_site_label
_atom_site_type_symbol
_atom_type_description
_atom_site_fract_x
_atom_site_fract_y
_atom_site_fract_z
_atom_type_partial_charge
C1    C     C_R   0.544914 0.794318 0.497582 0.874330
C2    C     C_R   0.455085 0.205682 0.502418 0.874371
C3    C     C_R   0.617806 0.399558 0.758658 -0.089011
C4    C     C_R   0.381842 0.600607 0.241400 -0.089140
C5    C     C_R   0.612339 0.390935 0.699400 0.422258
C6    C     C_R   0.387415 0.609130 0.300654 0.422244
C7    C     C_R   0.506223 0.492262 0.672324 -0.164119
C8    C     C_R   0.493776 0.507914 0.327677 -0.164157
C9    C     C_R   0.403725 0.594428 0.705194 -0.228343
C10   C     C_R   0.596462 0.406002 0.294757 -0.228388
C11   C     C_R   0.407825 0.598859 0.764280 -0.090896
C12   C     C_R   0.592263 0.401684 0.235671 -0.090881
C13   C     C_R   0.514919 0.501779 0.790845 0.221022
C14   C     C_R   0.484884 0.498621 0.209161 0.221051
C15   C     C_2   0.563358 0.956142 0.488304 0.190572
C16   C     C_2   0.436642 0.043858 0.511696 0.190582
C17   C     C_R   0.501894 0.496651 0.610435 0.860575
C18   C     C_R   0.498108 0.503372 0.389565 0.860676
C19   C     C_R   0.403281 0.377488 0.120981 0.509664
C20   C     C_R   0.596428 0.622966 0.879028 0.509703
C21   C     C_R   0.573661 0.618224 0.119743 0.520051
C22   C     C_R   0.425719 0.382406 0.880274 0.520060
C23   C     C_R   0.581353 0.620160 0.060173 -0.042880
C24   C     C_R   0.417941 0.380522 0.939845 -0.042899
C25   C     C_R   0.495724 0.498591 0.030189 -0.050195
C26   C     C_R   0.503611 0.502071 0.969828 -0.050222
C27   C     C_R   0.402607 0.374215 0.060538 -0.053963
C28   C     C_R   0.596832 0.626393 0.939477 -0.053921
C29   C     C_R   0.674422 0.741251 0.030659 -0.213997
C30   C     C_R   0.324790 0.259480 0.969362 -0.213987
C31   C     C_R   0.685260 0.746813 0.970929 0.151214
C32   C     C_R   0.314049 0.253878 0.029090 0.151169
H1    H     H_    0.739644 0.833912 0.054466 0.191260
H2    H     H_    0.259473 0.166859 0.945562 0.191288
H3    H     H_    0.698058 0.323106 0.780103 0.167978
H4    H     H_    0.301378 0.676961 0.219999 0.167993
H5    H     H_    0.321893 0.672161 0.685021 0.193509
H6    H     H_    0.678499 0.328365 0.314887 0.193517
H7    H     H_    0.327585 0.677151 0.789568 0.161922
H8    H     H_    0.672628 0.323574 0.210343 0.161889
H9    H     H_    0.014192 0.382677 0.456928 0.213587
H10   H     H_    0.985808 0.617323 0.543072 0.213575
N1    N     N_R   0.486314 0.498452 0.148362 -0.344441
N2    N     N_R   0.513316 0.502040 0.851649 -0.344439
N3    N     N_2   0.950330 0.457950 0.484560 -0.155344
N4    N     N_2   0.049670 0.542050 0.515440 -0.155351
O1    O     O_R   0.389250 0.738570 0.503790 -0.560084
O2    O     O_R   0.610750 0.261430 0.496210 -0.560070
O3    O     O_R   0.678390 0.711620 0.493890 -0.642475
O4    O     O_R   0.321610 0.288380 0.506110 -0.642491
O5    O     O_R   0.355400 0.513520 0.588790 -0.599377
O6    O     O_R   0.644600 0.486480 0.411210 -0.599396
O7    O     O_R   0.644550 0.486570 0.578900 -0.618955
O8    O     O_R   0.355450 0.513430 0.421100 -0.618876
O9    O     O_2   0.323511 0.262267 0.152869 -0.558770
O10   O     O_2   0.676589 0.737977 0.847129 -0.558752
O11   O     O_2   0.654419 0.734354 0.149221 -0.558329
O12   O     O_2   0.344841 0.266344 0.850799 -0.558356
Zn1   Zn    Zn3+2 0.306930 0.518000 0.506610 1.006985
Zn2   Zn    Zn3+2 0.693070 0.482000 0.493390 1.006979
C33   C     C_3   0.794345 0.883070 0.944378 -0.351256
C34   C     C_3   0.682281 0.015895 0.930381 -0.750392
H11   H     H_    0.575425 0.974691 0.903641 0.292985
H12   H     H_    0.625408 0.067792 0.970694 0.236867
H13   H     H_    0.763505 0.107915 0.906954 0.250071
H14   H     H_    0.888929 0.930590 0.974729 0.165983
H15   H     H_    0.877940 0.846414 0.906796 0.253053
C35   C     C_3   0.204878 0.117696 0.055648 -0.351268
C36   C     C_3   0.316780 0.984609 0.069487 -0.750494
H16   H     H_    0.373451 0.932879 0.029113 0.236866
H17   H     H_    0.423781 0.025528 0.096211 0.293114
H18   H     H_    0.235510 0.892548 0.092874 0.250060
H19   H     H_    0.121613 0.154356 0.093310 0.253034
H20   H     H_    0.109973 0.070474 0.025352 0.165992
O13   O     O_3   0.707585 0.279939 0.670377 -0.737800
H21   H     H_    0.654630 0.252239 0.633995 0.338800
O14   O     O_3   0.292003 0.719920 0.329730 -0.737776
H22   H     H_    0.345163 0.747801 0.366063 0.338810
O15   O     O_3   0.696357 0.017136 0.450812 -0.765154
H23   H     H_    0.766625 0.932118 0.434600 0.353082
O16   O     O_3   0.303644 0.982864 0.549188 -0.765169
H24   H     H_    0.233376 0.067882 0.565400 0.353071

loop_
_geom_bond_atom_site_label_1
_geom_bond_atom_site_label_2
_ccdc_geom_bond_type
C4    H4    S    
N3    Zn2   S    
C5    O13   S    
N4    Zn1   S    
C31   C33   S    
C20   O10   S    
C17   O5    A    
C2    O4    A    
O16   H24   S    
C18   O6    A    
O14   H22   S    
O3    Zn2   S    
O4    Zn1   S    
C23   C29   A    
C24   C26   A    
C35   H20   S    
C15   C16   D    
C29   H1    S    
H10   N4    S    
C36   H17   S    
C34   H12   S    
O6    Zn2   S    
C21   N1    A    
C33   H14   S    
C15   O15   S    
C35   C36   S    
C7    C17   S    
C1    C15   S    
C19   C27   A    
C3    C13   A    
C32   C35   S    
C36   H16   S    
C20   N2    A    
O7    Zn2   S    
C19   N1    A    
O2    Zn2   S    
O8    Zn1   S    
C22   N2    A    
C30   H2    S    
C4    C6    A    
C5    C7    A    
C1    O1    A    
C6    O14   S    
C6    C8    A    
C20   C28   A    
C2    O2    A    
C35   H19   S    
N3    N4    D    
C8    C18   S    
C12   H8    S    
C36   H18   S    
O13   H21   S    
C21   O11   S    
C34   H11   S    
C33   H15   S    
C3    H3    S    
C9    H5    S    
C11   H7    S    
C9    C11   A    
C10   C12   A    
C12   C14   A    
C21   C23   A    
C22   C24   A    
O5    Zn1   S    
C17   O7    A    
C2    C16   S    
C19   O9    S    
C7    C9    A    
C34   H13   S    
C27   C32   A    
C28   C31   A    
C3    C5    A    
C22   O12   S    
C25   C27   A    
C26   C28   A    
C10   H6    S    
C25   C26   A    
C29   C31   A    
C30   C32   A    
C11   C13   A    
C16   O16   S    
C23   C25   A    
C4    C14   A    
C33   C34   S    
C24   C30   A    
C18   O8    A    
O1    Zn1   S    
O15   H23   S    
C8    C10   A    
H9    N3    S    
C1    O3    A    
C13   N2    S    
C14   N1    S    
