data_mof_unit_24961.cif
_audit_creation_date              2012-12-10T17:15:56-0500
_audit_creation_method            fapswitch 2.2
_symmetry_space_group_name_H-M    P1
_symmetry_Int_Tables_number       1
_space_group_crystal_system       triclinic
_cell_length_a                    10.199854
_cell_length_b                    10.689352
_cell_length_c                    10.663844
_cell_angle_alpha                 91.663108
_cell_angle_beta                  95.813199
_cell_angle_gamma                 81.85705
_cell_volume                      1144.90865486

loop_
_atom_site_label
_atom_site_type_symbol
_atom_type_description
_atom_site_fract_x
_atom_site_fract_y
_atom_site_fract_z
_atom_type_partial_charge
C1    C     C_R   0.444209 0.518389 0.267669 0.960754
C2    C     C_2   0.493819 0.569376 0.935373 -0.196155
C3    C     C_2   0.078702 0.468949 0.515023 0.045644
C4    C     C_R   0.497095 0.260836 0.492480 0.929818
C5    C     C_2   0.932535 0.490388 0.529286 0.023821
C6    C     C_R   0.556210 0.496179 0.733606 0.873422
C7    C     C_R   0.499827 0.739368 0.494763 0.839015
C8    C     C_R   0.576418 0.108562 0.264605 -0.102242
C9    C     C_R   0.660810 0.034481 0.184959 -0.116841
C10   C     C_R   0.692494 0.903437 0.205417 0.009038
C11   C     C_R   0.630629 0.848896 0.297298 -0.170264
C12   C     C_R   0.542750 0.055664 0.376218 0.097645
C13   C     C_R   0.558860 0.923731 0.386131 0.042749
C14   C     C_2   0.891245 0.560829 0.643594 0.502425
C15   C     C_2   0.874158 0.385658 0.333474 0.591343
C16   C     C_2   0.107191 0.682859 0.560162 0.608458
C17   C     C_2   0.499748 0.227595 0.214065 0.400754
C18   C     C_2   0.707767 0.094161 0.076839 0.341847
C19   C     C_2   0.790316 0.821989 0.132905 0.487260
C20   C     C_R   0.488613 0.129072 0.476834 -0.063187
C21   C     C_R   0.431738 0.075252 0.571516 -0.184882
C22   C     C_R   0.434156 0.947405 0.573083 -0.173834
C23   C     C_R   0.499617 0.871732 0.483909 -0.069855
C24   C     C_2   0.412859 0.545012 0.134997 -0.331894
C25   C     C_2   0.510777 0.571177 0.070623 -0.170665
C26   C     C_2   0.588943 0.509980 0.868226 0.015654
H1    H     H_    0.388285 0.132287 0.646638 0.170342
H2    H     H_    0.160434 0.743054 0.624343 0.045418
H3    H     H_    0.544326 0.287670 0.155498 0.061565
H4    H     H_    0.743244 0.184954 0.089864 0.093836
H5    H     H_    0.845750 0.862363 0.066683 0.122739
H6    H     H_    0.314027 0.537389 0.089268 0.206185
H7    H     H_    0.122354 0.377178 0.481550 0.164677
H8    H     H_    0.643070 0.747442 0.298689 0.203986
H9    H     H_    0.389699 0.906784 0.647746 0.159244
H10   H     H_    0.395983 0.606887 0.890836 0.183187
H11   H     H_    0.608915 0.579309 0.117122 0.238801
H12   H     H_    0.800410 0.626606 0.639913 0.125240
H13   H     H_    0.806691 0.324511 0.288206 0.026625
I1    I     I_    0.780596 0.428767 0.949359 -0.195421
N1    N     N_2   0.157290 0.551390 0.551110 -0.179768
N2    N     N_2   0.842740 0.448550 0.448960 -0.216023
O1    O     O_R   0.568950 0.489660 0.307530 -0.661746
O2    O     O_2   0.969503 0.405147 0.279874 -0.535164
O3    O     O_2   0.011366 0.730708 0.490961 -0.595986
O4    O     O_2   0.382111 0.254758 0.229882 -0.545736
O5    O     O_2   0.701915 0.045297 0.971869 -0.555359
O6    O     O_2   0.813935 0.708114 0.149304 -0.543234
O7    O     O_R   0.348880 0.522640 0.340350 -0.554045
O8    O     O_R   0.610060 0.300270 0.483590 -0.637508
O9    O     O_R   0.389990 0.333260 0.516410 -0.603234
O10   O     O_R   0.651120 0.477360 0.659650 -0.615734
O11   O     O_R   0.431050 0.510340 0.692470 -0.630403
O12   O     O_R   0.610010 0.666740 0.483590 -0.651483
O13   O     O_R   0.389940 0.699730 0.516410 -0.641041
O14   O     O_2   0.962549 0.549683 0.742890 -0.572599
Zn1   Zn    Zn3+2 0.646940 0.477980 0.478090 0.946019
Zn2   Zn    Zn3+2 0.353060 0.522020 0.521910 0.996793

loop_
_geom_bond_atom_site_label_1
_geom_bond_atom_site_label_2
_ccdc_geom_bond_type
C16   O3    D    
C16   H2    S    
C14   O14   D    
O11   Zn2   S    
C24   H6    S    
C24   C25   D    
C18   H4    S    
C14   H12   S    
C17   H3    S    
C9    C10   A    
C9    C18   S    
C8    C17   S    
C7    O13   A    
C10   C19   S    
C8    C12   A    
C19   H5    S    
C18   O5    D    
C12   C20   A    
C21   H1    S    
C2    C26   D    
O9    Zn2   S    
C21   C22   A    
C20   C21   A    
C22   H9    S    
C11   C13   A    
C15   H13   S    
C5    C14   S    
C6    C26   S    
C7    C23   S    
N2    Zn1   S    
C15   O2    D    
C2    C25   S    
O10   Zn1   S    
O1    Zn1   S    
C4    O9    A    
C12   C13   A    
C4    C20   S    
C6    O10   A    
N1    Zn2   S    
C26   I1    S    
C5    N2    D    
C17   O4    D    
C13   C23   A    
C1    C24   S    
C10   C11   A    
O13   Zn2   S    
C2    H10   S    
C3    H7    S    
C22   C23   A    
C3    N1    D    
C6    O11   A    
C7    O12   A    
C25   H11   S    
C19   O6    D    
O8    Zn1   S    
C1    O7    A    
C16   N1    S    
C1    O1    A    
C11   H8    S    
O7    Zn2   S    
C15   N2    S    
C4    O8    A    
C8    C9    A    
C3    C5    S    
O12   Zn1   S    
