data_mof_unit_49106.cif
_audit_creation_date              2012-12-10T17:01:36-0500
_audit_creation_method            fapswitch 2.2
_symmetry_space_group_name_H-M    P1
_symmetry_Int_Tables_number       1
_space_group_crystal_system       triclinic
_cell_length_a                    12.910263
_cell_length_b                    10.763057
_cell_length_c                    10.103028
_cell_angle_alpha                 90.088653
_cell_angle_beta                  96.480368
_cell_angle_gamma                 92.641084
_cell_volume                      1393.37142609

loop_
_atom_site_label
_atom_site_type_symbol
_atom_type_description
_atom_site_fract_x
_atom_site_fract_y
_atom_site_fract_z
_atom_type_partial_charge
Br1   Br    Br    0.652870 0.688949 0.196357 -0.213868
C1    C     C_R   0.500402 0.262776 0.499314 0.986634
C2    C     C_2   0.485134 0.130965 0.494321 -0.519095
C3    C     C_2   0.562255 0.575205 0.935104 0.277517
C4    C     C_R   0.298617 0.499355 0.474399 0.915761
C5    C     C_2   0.560910 0.574396 0.085993 0.307472
C6    C     C_R   0.497484 0.736773 0.499313 1.046921
C7    C     C_R   0.701544 0.500590 0.525652 0.922596
C8    C     C_R   0.813704 0.501528 0.540486 -0.095851
C9    C     C_R   0.186908 0.501856 0.459170 -0.097968
C10   C     C_R   0.025756 0.535811 0.321356 0.380010
C11   C     C_R   0.133159 0.527015 0.335076 -0.215835
C12   C     C_R   0.027951 0.491171 0.560336 0.105894
C13   C     C_R   0.134533 0.483381 0.570985 -0.237468
C14   C     C_R   0.972276 0.517125 0.435061 0.027720
C15   C     C_R   0.864977 0.522549 0.427678 -0.133318
C16   C     C_R   0.869400 0.478853 0.664250 -0.096055
C17   C     C_R   0.976685 0.473585 0.674111 -0.123417
C18   C     C_2   0.467948 0.933159 0.390742 0.414335
C19   C     C_2   0.506013 0.868525 0.497221 -0.511594
C20   C     C_2   0.500943 0.062304 0.387895 0.410145
H1    H     H_    0.820254 0.541629 0.333985 0.239840
H2    H     H_    0.553066 0.842120 0.887013 0.359476
H3    H     H_    0.083973 0.672481 0.065300 0.375032
H4    H     H_    0.253273 0.958268 0.126004 0.387800
H5    H     H_    0.660494 0.024154 0.115855 0.412970
H6    H     H_    0.449582 0.088817 0.577174 0.151885
H7    H     H_    0.449797 0.439335 0.890387 0.138719
H8    H     H_    0.450725 0.438829 0.094254 0.153796
H9    H     H_    0.830154 0.463144 0.752448 0.211569
H10   H     H_    0.019409 0.454680 0.770062 0.189345
H11   H     H_    0.175451 0.542333 0.249529 0.214389
H12   H     H_    0.176660 0.463225 0.667072 0.179621
H13   H     H_    0.556209 0.913264 0.579088 0.166197
N1    N     N_2   0.501130 0.501330 0.852280 -0.255058
N2    N     N_2   0.501160 0.501360 0.147950 -0.219671
O1    O     O_R   0.499980 0.319060 0.613040 -0.622785
O2    O     O_2   0.670242 0.702720 0.738770 -0.275178
O3    O     O_3   0.623440 0.829952 0.933952 -0.478213
O4    O     O_2   0.881338 0.476368 0.116513 -0.243999
O5    O     O_2   0.912360 0.697131 0.174548 -0.226927
O6    O     O_3   0.048961 0.589103 0.049233 -0.541943
O7    O     O_2   0.420818 0.812550 0.156788 -0.247231
O8    O     O_2   0.295884 0.785628 0.321650 -0.339720
O9    O     O_3   0.304545 0.996007 0.196724 -0.515686
O10   O     O_2   0.500388 0.181033 0.154053 -0.265512
O11   O     O_2   0.663108 0.196800 0.306097 -0.295259
O12   O     O_R   0.500020 0.319100 0.386900 -0.542622
O13   O     O_3   0.614427 0.988742 0.179662 -0.456154
O14   O     O_R   0.346340 0.499960 0.594380 -0.638238
O15   O     O_R   0.346380 0.500000 0.368250 -0.609465
O16   O     O_R   0.499980 0.680900 0.613100 -0.586880
O17   O     O_R   0.500020 0.680940 0.386960 -0.538799
O18   O     O_R   0.653620 0.500000 0.631750 -0.576957
O19   O     O_R   0.653660 0.500040 0.405620 -0.595615
O20   O     O_2   0.761007 0.662620 0.952607 -0.154395
S1    S     S_3+6 0.655888 0.689827 0.882422 0.120933
S2    S     S_3+6 0.963333 0.575442 0.162835 0.063216
S3    S     S_3+6 0.370580 0.876060 0.263934 0.077636
S4    S     S_3+6 0.571162 0.112630 0.254361 0.101523
Zn1   Zn    Zn3+2 0.499980 0.499970 0.650990 1.028617
Zn2   Zn    Zn3+2 0.500020 0.500030 0.349010 1.103205

loop_
_geom_bond_atom_site_label_1
_geom_bond_atom_site_label_2
_ccdc_geom_bond_type
C3    S1    S    
O5    S2    D    
O1    Zn1   S    
C10   C11   A    
O18   Zn1   S    
O2    S1    D    
H3    O6    S    
O17   Zn2   S    
O12   Zn2   S    
C18   C19   D    
H8    N2    S    
O7    S3    D    
C19   H13   S    
O6    S2    S    
C13   H12   S    
C2    H6    S    
C1    C2    S    
C3    N1    D    
C4    C9    S    
N1    Zn1   S    
C12   C13   A    
C11   H11   S    
C16   H9    S    
O13   S4    S    
C1    O1    A    
C1    O12   A    
O15   Zn2   S    
C9    C11   A    
C12   C17   A    
H2    O3    S    
C7    O19   A    
C8    C16   A    
C18   C20   S    
C8    C15   A    
C5    N2    D    
C6    O16   A    
C16   C17   A    
O16   Zn1   S    
C12   C14   A    
N2    Zn2   S    
C4    O14   A    
C2    C20   D    
O4    S2    D    
C6    O17   A    
O8    S3    D    
O10   S4    D    
C14   C15   A    
O3    S1    S    
O19   Zn2   S    
H4    O9    S    
O20   S1    D    
C20   S4    S    
C3    C5    S    
C6    C19   S    
C9    C13   A    
H5    O13   S    
C7    O18   A    
O14   Zn1   S    
C4    O15   A    
C15   H1    S    
C17   H10   S    
C18   S3    S    
O11   S4    D    
C10   C14   A    
O9    S3    S    
Br1   C5    S    
H7    N1    S    
C7    C8    S    
C10   S2    S    
