data_mof_unit_51390.cif
_audit_creation_date              2012-12-10T17:20:24-0500
_audit_creation_method            fapswitch 2.2
_symmetry_space_group_name_H-M    P1
_symmetry_Int_Tables_number       1
_space_group_crystal_system       triclinic
_cell_length_a                    11.709166
_cell_length_b                    10.870092
_cell_length_c                    9.57989
_cell_angle_alpha                 89.426791
_cell_angle_beta                  90.00584
_cell_angle_gamma                 92.326216
_cell_volume                      1218.25979945

loop_
_atom_site_label
_atom_site_type_symbol
_atom_type_description
_atom_site_fract_x
_atom_site_fract_y
_atom_site_fract_z
_atom_type_partial_charge
C1    C     C_R   0.509937 0.262603 0.501481 0.804988
C2    C     C_R   0.455023 0.048655 0.883496 -0.165751
C3    C     C_R   0.400076 0.934422 0.866068 -0.132244
C4    C     C_R   0.403314 0.877496 0.736765 -0.141885
C5    C     C_R   0.461803 0.935082 0.622537 0.081100
C6    C     C_R   0.496323 0.060180 0.632619 0.059399
C7    C     C_R   0.523270 0.127837 0.506991 -0.147796
C8    C     C_R   0.549879 0.062377 0.383828 0.148834
C9    C     C_R   0.533953 0.934946 0.384234 -0.257985
C10   C     C_R   0.489763 0.871090 0.500477 -0.146965
C11   C     C_R   0.645057 0.669809 0.142128 -0.214617
C12   C     C_R   0.284052 0.499682 0.500001 0.825580
C13   C     C_R   0.709476 0.759389 0.069708 -0.220490
C14   C     C_R   0.709009 0.761926 0.924523 0.168281
C15   C     C_R   0.645114 0.670522 0.854526 -0.205391
C16   C     C_R   0.571305 0.583797 0.924485 0.184576
C17   C     C_R   0.571176 0.583710 0.073874 0.217504
C18   C     C_R   0.432368 0.420122 0.074834 -0.074482
C19   C     C_R   0.432372 0.420180 0.926818 -0.078078
C20   C     C_R   0.493198 0.737084 0.499765 0.786380
C21   C     C_R   0.715940 0.500520 0.500008 0.789939
C22   C     C_1   0.162338 0.499939 0.499998 -0.188545
C23   C     C_1   0.059867 0.500179 0.500001 -0.002458
C24   C     C_1   0.940073 0.500415 0.500004 -0.002103
C25   C     C_1   0.837615 0.500531 0.500014 -0.190459
C26   C     C_R   0.503611 0.110807 0.768762 -0.149000
Cu1   Cu    Cu3+1 0.499990 0.499990 0.640660 0.922754
Cu2   Cu    Cu3+1 0.500010 0.500010 0.359340 0.931205
H1    H     H_    0.657003 0.671668 0.744904 0.199692
H2    H     H_    0.376971 0.354800 0.872150 0.144628
H3    H     H_    0.551764 0.194864 0.791288 0.169174
H4    H     H_    0.458765 0.090085 0.985679 0.120905
H5    H     H_    0.358255 0.888024 0.953788 0.137470
H6    H     H_    0.359088 0.788729 0.727473 0.157314
H7    H     H_    0.558608 0.884337 0.292969 0.164832
H8    H     H_    0.376972 0.354669 0.130865 0.135243
H9    H     H_    0.656981 0.672651 0.251771 0.208550
H10   H     H_    0.761038 0.824904 0.129190 0.160816
N1    N     N_R   0.501070 0.501210 0.147910 -0.188990
N2    N     N_R   0.501110 0.501290 0.852040 -0.193414
O1    O     O_R   0.499990 0.319640 0.618810 -0.593216
O2    O     O_R   0.500000 0.319660 0.381240 -0.577148
O3    O     O_R   0.337190 0.500000 0.618790 -0.573730
O4    O     O_R   0.337200 0.500030 0.381210 -0.567539
O5    O     O_R   0.500000 0.680340 0.618760 -0.606769
O6    O     O_R   0.500010 0.680360 0.381190 -0.596817
O7    O     O_R   0.662800 0.499970 0.618790 -0.590332
O8    O     O_R   0.662810 0.500000 0.381210 -0.588585
C27   C     C_3   0.603309 0.121339 0.253027 -0.388377
C28   C     C_3   0.721822 0.179208 0.282373 -0.789258
H11   H     H_    0.717997 0.252367 0.361745 0.253273
H12   H     H_    0.779673 0.107620 0.320395 0.237371
H13   H     H_    0.757969 0.220591 0.184704 0.237473
H14   H     H_    0.614375 0.051441 0.170669 0.181852
H15   H     H_    0.546946 0.188662 0.204037 0.219102
C29   C     C_3   0.776273 0.857825 0.838137 -0.388580
C30   C     C_3   0.830487 0.965202 0.920063 -0.838974
H16   H     H_    0.764280 0.012465 0.980095 0.252806
H17   H     H_    0.897554 0.932283 0.991675 0.247939
H18   H     H_    0.871339 0.032900 0.846129 0.244103
H19   H     H_    0.844506 0.811659 0.780312 0.197514
H20   H     H_    0.717568 0.897263 0.759724 0.209381

loop_
_geom_bond_atom_site_label_1
_geom_bond_atom_site_label_2
_ccdc_geom_bond_type
C2    C26   A    
C14   C29   S    
C23   C24   S    
C6    C7    A    
C29   H19   S    
Cu1   O3    S    
C9    C10   A    
Cu1   O1    S    
C28   H12   S    
C20   O5    A    
C14   C15   A    
Cu1   N2    S    
C18   N1    A    
C21   O8    A    
Cu1   O5    S    
C2    C3    A    
C30   H16   S    
C26   H3    S    
C12   O4    A    
C1    C7    S    
C13   C14   A    
C24   C25   T    
C11   C13   A    
Cu2   O6    S    
C13   H10   S    
C6    C26   A    
C16   N2    A    
C15   C16   A    
C1    O1    A    
C15   H1    S    
C12   O3    A    
C4    H6    S    
C5    C6    A    
C29   H20   S    
C30   H17   S    
C28   H13   S    
C7    C8    A    
C19   N2    A    
C3    H5    S    
C5    C10   A    
C27   H14   S    
C12   C22   S    
C1    O2    A    
C4    C5    A    
C18   C19   A    
C29   C30   S    
C2    H4    S    
C27   C28   S    
C17   N1    A    
Cu1   O7    S    
Cu1   Cu2   S    
C11   H9    S    
C21   O7    A    
C21   C25   S    
C22   C23   T    
Cu2   O8    S    
C9    H7    S    
Cu2   O2    S    
Cu2   N1    S    
C28   H11   S    
C27   H15   S    
C19   H2    S    
C18   H8    S    
C8    C27   S    
Cu2   O4    S    
C11   C17   A    
C3    C4    A    
C16   C17   A    
C10   C20   S    
C8    C9    A    
C30   H18   S    
C20   O6    A    
