data_mof_unit_28934.cif
_audit_creation_date              2012-10-26T18:25:41-0400
_audit_creation_method            fapswitch 2.2
_symmetry_space_group_name_H-M    P1
_symmetry_Int_Tables_number       1
_space_group_crystal_system       triclinic
_cell_length_a                    7.539343
_cell_length_b                    8.683366
_cell_length_c                    11.037959
_cell_angle_alpha                 88.194481
_cell_angle_beta                  71.523048
_cell_angle_gamma                 103.070535
_cell_volume                      663.437668716

loop_
_atom_site_label
_atom_site_type_symbol
_atom_type_description
_atom_site_fract_x
_atom_site_fract_y
_atom_site_fract_z
_atom_type_partial_charge
C1    C     C_R   0.451855 0.199733 0.504052 0.538587
C2    C     C_2   0.574690 0.968608 0.493760 -0.127570
C3    C     C_R   0.548145 0.800267 0.495948 0.538585
C4    C     C_R   0.420541 0.488733 0.743216 0.553951
C5    C     C_R   0.579460 0.511269 0.256784 0.553951
C6    C     C_2   0.372151 0.472126 0.883072 0.080467
C7    C     C_2   0.627850 0.527884 0.116927 0.080460
C8    C     C_2   0.516968 0.508302 0.931068 -0.074691
C9    C     C_2   0.483028 0.491757 0.068931 -0.074700
C10   C     C_2   0.425310 0.031392 0.506240 -0.127570
Cl1   Cl    Cl    0.856542 0.310413 0.650364 -0.497575
Cl2   Cl    Cl    0.143457 0.689588 0.349636 -0.497593
Cu1   Cu    Cu3+1 0.688910 0.517800 0.485820 1.137825
Cu2   Cu    Cu3+1 0.311090 0.482200 0.514180 1.137825
H1    H     H_    0.335261 0.448376 0.133326 0.183853
H2    H     H_    0.664730 0.551716 0.866673 0.183829
H3    H     H_    0.281678 0.958832 0.518234 0.171128
H4    H     H_    0.718322 0.041168 0.481766 0.171127
H5    H     H_    0.920277 0.598598 0.085539 0.286934
H6    H     H_    0.839537 0.701622 0.993486 0.232943
H7    H     H_    0.079730 0.401314 0.914457 0.286931
H8    H     H_    0.160523 0.298351 0.006515 0.232947
N1    N     N_2   0.027170 0.455360 0.535550 0.070718
N2    N     N_2   0.972830 0.544640 0.464450 0.070715
N3    N     N_3   0.825135 0.586720 0.033306 -0.623241
N4    N     N_3   0.174873 0.413239 0.966691 -0.623270
O1    O     O_R   0.622710 0.286400 0.490790 -0.474225
O2    O     O_R   0.377290 0.713600 0.509210 -0.474225
O3    O     O_R   0.303660 0.256330 0.514730 -0.482722
O4    O     O_R   0.696340 0.743670 0.485270 -0.482722
O5    O     O_R   0.600900 0.509520 0.671740 -0.486530
O6    O     O_R   0.399100 0.490480 0.328260 -0.486536
O7    O     O_R   0.281840 0.479450 0.695690 -0.489802
O8    O     O_R   0.718160 0.520550 0.304310 -0.489806

loop_
_geom_bond_atom_site_label_1
_geom_bond_atom_site_label_2
_ccdc_geom_bond_type
Cu2   N1    S    
C3    O4    A    
N1    N2    D    
C2    H4    S    
Cl2   N2    S    
C7    N3    S    
H7    N4    S    
C5    O6    A    
C5    O8    A    
Cu2   O7    S    
C1    O3    A    
C2    C3    S    
C9    H1    S    
Cu1   O8    S    
C8    H2    S    
Cu1   Cu2   S    
C6    N4    S    
Cl1   N1    S    
C3    O2    A    
C5    C7    S    
H5    N3    S    
C4    O5    A    
H6    N3    S    
C10   H3    S    
C2    C10   D    
Cu1   O4    S    
C7    C9    D    
C4    C6    S    
H8    N4    S    
C1    O1    A    
C4    O7    A    
Cu1   O1    S    
C6    C8    D    
Cu2   O3    S    
Cu2   O2    S    
Cu1   O5    S    
C1    C10   S    
Cu1   N2    S    
Cu2   O6    S    
C8    C9    S    
