data_mof_unit_5165.cif
_audit_creation_date              2012-12-10T20:38:18-0500
_audit_creation_method            fapswitch 2.2
_symmetry_space_group_name_H-M    P1
_symmetry_Int_Tables_number       1
_space_group_crystal_system       triclinic
_cell_length_a                    9.84027
_cell_length_b                    10.668938
_cell_length_c                    16.403909
_cell_angle_alpha                 90.203417
_cell_angle_beta                  85.369245
_cell_angle_gamma                 90.089331
_cell_volume                      1716.5342533

loop_
_atom_site_label
_atom_site_type_symbol
_atom_type_description
_atom_site_fract_x
_atom_site_fract_y
_atom_site_fract_z
_atom_type_partial_charge
C1    C     C_R   0.499630 0.740061 0.503331 0.886407
C2    C     C_R   0.361834 0.519042 0.792604 -0.301278
C3    C     C_R   0.457949 0.680339 0.158163 -0.151271
C4    C     C_R   0.444478 0.632487 0.236639 -0.193249
C5    C     C_R   0.632785 0.487692 0.202862 -0.017174
C6    C     C_R   0.643969 0.536141 0.123235 -0.145564
C7    C     C_R   0.555477 0.630301 0.100393 0.126395
C8    C     C_2   0.445671 0.695720 0.978482 -0.094350
C9    C     C_2   0.559202 0.664852 0.013832 -0.192801
C10   C     C_R   0.530175 0.536088 0.259626 -0.121431
C11   C     C_R   0.374506 0.935325 0.525627 0.036446
C12   C     C_R   0.481244 0.506369 0.653896 0.898694
C13   C     C_R   0.497820 0.870978 0.518548 -0.087020
C14   C     C_R   0.619925 0.935427 0.528118 -0.232433
C15   C     C_R   0.619852 0.064999 0.527417 -0.223716
C16   C     C_R   0.497703 0.128650 0.517150 -0.126929
C17   C     C_R   0.374500 0.063360 0.524447 0.121567
C18   C     C_3   0.249038 0.067123 0.477279 0.429445
C19   C     C_3   0.249539 0.923086 0.479545 -0.646768
C20   C     C_R   0.923695 0.592638 0.539625 0.213168
C21   C     C_R   0.933980 0.416738 0.453704 -0.123014
C22   C     C_R   0.078201 0.417199 0.453382 -0.077645
C23   C     C_R   0.499551 0.259790 0.502737 0.904983
C24   C     C_R   0.066319 0.592386 0.539748 0.199156
C25   C     C_3   0.060792 0.622295 0.628703 -0.469595
C26   C     C_3   0.906455 0.622972 0.628678 -0.521565
C27   C     C_R   0.518793 0.502032 0.345821 0.816148
C28   C     C_R   0.469820 0.554586 0.737109 -0.086804
C29   C     C_R   0.557027 0.652197 0.756508 -0.310314
C30   C     C_R   0.541532 0.711659 0.832393 -0.033407
C31   C     C_R   0.440175 0.667310 0.891369 0.050347
C32   C     C_R   0.348547 0.572727 0.870594 0.477172
H1    H     H_    0.634093 0.685741 0.710848 0.152533
H2    H     H_    0.718626 0.497458 0.077821 0.170059
H3    H     H_    0.716354 0.886921 0.529582 0.167847
H4    H     H_    0.716261 0.113907 0.528571 0.177621
H5    H     H_    0.163744 0.881376 0.518772 0.184897
H6    H     H_    0.269377 0.873406 0.420304 0.197862
H7    H     H_    0.884145 0.347840 0.417790 0.144427
H8    H     H_    0.137510 0.349206 0.416855 0.182683
H9    H     H_    0.099942 0.544791 0.665397 0.233435
H10   H     H_    0.368950 0.673790 0.280455 0.150097
H11   H     H_    0.104479 0.716172 0.640428 0.200467
H12   H     H_    0.856381 0.546219 0.665701 0.232682
H13   H     H_    0.861549 0.717535 0.640178 0.185323
H14   H     H_    0.650298 0.639614 0.975268 0.153550
H15   H     H_    0.391616 0.756135 0.143009 0.133602
H16   H     H_    0.290186 0.447780 0.776269 0.169801
H17   H     H_    0.349468 0.707831 0.014837 0.165143
N1    N     N_R   0.857140 0.500860 0.500530 -0.102083
N2    N     N_R   0.142780 0.500820 0.500530 -0.100534
O1    O     O_R   0.385310 0.683210 0.499990 -0.614180
O2    O     O_R   0.614650 0.683240 0.500000 -0.625020
O3    O     O_R   0.371780 0.500000 0.615800 -0.603854
O4    O     O_R   0.601120 0.500040 0.615800 -0.614507
O5    O     O_R   0.385350 0.316760 0.500000 -0.564260
O6    O     O_R   0.614690 0.316790 0.500010 -0.635042
O7    O     O_R   0.398880 0.499960 0.384200 -0.606409
O8    O     O_R   0.628220 0.500000 0.384200 -0.615538
Zn1   Zn    Zn3+2 0.346870 0.499980 0.499990 0.980523
Zn2   Zn    Zn3+2 0.653130 0.500020 0.500010 0.943507
C33   C     C_2   0.126188 0.120949 0.526160 0.414896
H18   H     H_    0.025767 0.107291 0.504653 0.037443
O9    O     O_2   0.137464 0.180702 0.588932 -0.579865
O10   O     O_3   0.267544 0.127499 0.399562 -0.662177
C34   C     C_3   0.359319 0.067908 0.340755 0.078078
H19   H     H_    0.302828 0.996729 0.307085 0.152461
H20   H     H_    0.446412 0.022240 0.367927 0.144133
C35   C     C_3   0.416986 0.166166 0.279956 -0.347302
H21   H     H_    0.331828 0.215639 0.253324 0.237321
H22   H     H_    0.476393 0.236104 0.312656 0.199777
C36   C     C_3   0.509236 0.106716 0.211222 -0.925785
H23   H     H_    0.597219 0.059730 0.236526 0.271145
H24   H     H_    0.548521 0.180409 0.167859 0.274128
H25   H     H_    0.451372 0.037027 0.177260 0.270834
C37   C     C_2   0.724852 0.384728 0.224452 0.375047
H26   H     H_    0.707846 0.335831 0.282172 0.071704
O11   O     O_2   0.820911 0.352137 0.177384 -0.580259
O12   O     O_3   0.246335 0.532289 0.927318 -0.648706
C38   C     C_3   0.288296 0.420020 0.963189 0.044709
H27   H     H_    0.395474 0.426364 0.980728 0.143445
H28   H     H_    0.280176 0.340544 0.919656 0.160663
C39   C     C_3   0.195378 0.394610 0.040558 -0.278191
H29   H     H_    0.199222 0.475960 0.082918 0.228862
H30   H     H_    0.088571 0.382916 0.024261 0.248780
C40   C     C_3   0.239105 0.276970 0.084069 -0.921450
H31   H     H_    0.235499 0.194004 0.043178 0.272989
H32   H     H_    0.169027 0.260671 0.139538 0.280199
H33   H     H_    0.344352 0.288604 0.102878 0.261483
C41   C     C_2   0.632342 0.819456 0.846880 0.416956
H34   H     H_    0.721100 0.837115 0.804739 0.059230
O13   O     O_2   0.607411 0.891851 0.903917 -0.548781

loop_
_geom_bond_atom_site_label_1
_geom_bond_atom_site_label_2
_ccdc_geom_bond_type
C10   C27   S    
C8    C9    D    
C34   H20   S    
C30   C41   S    
C25   H11   S    
C26   H12   S    
C23   O5    A    
O3    Zn1   S    
C18   O10   S    
C11   C19   S    
C33   H18   S    
C4    H10   S    
C12   C28   S    
C28   C29   A    
C37   O11   D    
C3    C7    A    
C36   H25   S    
C5    C6    A    
C38   H27   S    
C40   H32   S    
C34   C35   S    
O7    Zn1   S    
C15   C16   A    
C29   H1    S    
C2    C32   A    
C18   C19   S    
C35   H22   S    
C1    O2    A    
C20   N1    A    
O1    Zn1   S    
C26   H13   S    
O2    Zn2   S    
C31   C32   A    
C16   C17   A    
C33   O9    D    
C19   H5    S    
C24   N2    A    
C34   H19   S    
C9    H14   S    
C21   C22   A    
C38   C39   S    
C21   N1    A    
O8    Zn2   S    
C20   C24   A    
C37   H26   S    
C36   H24   S    
C25   H9    S    
C14   H3    S    
C40   H31   S    
C18   C33   S    
C2    H16   S    
C25   C26   S    
C40   H33   S    
C6    H2    S    
C35   C36   S    
C29   C30   A    
C19   H6    S    
C41   O13   D    
C39   H29   S    
C21   H7    S    
C22   H8    S    
C17   C18   S    
C24   C25   S    
C38   H28   S    
C39   H30   S    
C16   C23   S    
C1    C13   S    
C4    C10   A    
C3    C4    A    
C15   H4    S    
C23   O6    A    
C11   C17   A    
C8    C31   S    
C36   H23   S    
C27   O7    A    
O6    Zn2   S    
C6    C7    A    
C5    C37   S    
C5    C10   A    
C27   O8    A    
C32   O12   S    
C11   C13   A    
C41   H34   S    
C30   C31   A    
C20   C26   S    
O4    Zn2   S    
C3    H15   S    
C35   H21   S    
C1    O1    A    
C12   O4    A    
O12   C38   S    
C7    C9    S    
C39   C40   S    
O5    Zn1   S    
O10   C34   S    
N1    Zn2   S    
C14   C15   A    
C2    C28   A    
N2    Zn1   S    
C13   C14   A    
C8    H17   S    
C12   O3    A    
C22   N2    A    
