data_mof_unit_40140.cif
_audit_creation_date              2012-12-10T17:18:56-0500
_audit_creation_method            fapswitch 2.2
_symmetry_space_group_name_H-M    P1
_symmetry_Int_Tables_number       1
_space_group_crystal_system       triclinic
_cell_length_a                    9.568303
_cell_length_b                    10.863378
_cell_length_c                    13.517585
_cell_angle_alpha                 92.569766
_cell_angle_beta                  73.775182
_cell_angle_gamma                 89.872365
_cell_volume                      1347.5967273

loop_
_atom_site_label
_atom_site_type_symbol
_atom_type_description
_atom_site_fract_x
_atom_site_fract_y
_atom_site_fract_z
_atom_type_partial_charge
C1    C     C_R   0.501629 0.737294 0.492961 0.811802
C2    C     C_R   0.451599 0.438628 0.970781 0.033619
C3    C     C_R   0.497577 0.444592 0.861911 0.094371
C4    C     C_R   0.554388 0.464496 0.027544 0.088786
C5    C     C_R   0.701769 0.486455 0.973856 0.167175
C6    C     C_R   0.748836 0.468281 0.867645 -0.272056
C7    C     C_R   0.649472 0.441894 0.813090 -0.192187
C8    C     C_R   0.515464 0.472888 0.135690 -0.265515
C9    C     C_R   0.762177 0.526747 0.133879 -0.136321
C10   C     C_R   0.390144 0.449807 0.806655 -0.105136
C11   C     C_R   0.252624 0.883736 0.456819 -0.160644
C12   C     C_R   0.425226 0.485743 0.697955 0.813144
C13   C     C_R   0.118284 0.944585 0.479001 -0.159266
C14   C     C_R   0.099401 0.059458 0.530508 -0.138975
C15   C     C_R   0.218496 0.118634 0.550250 -0.154396
C16   C     C_R   0.359550 0.063491 0.517582 0.096912
C17   C     C_R   0.370979 0.937646 0.486163 0.096648
C18   C     C_R   0.499729 0.871599 0.486240 -0.123090
C19   C     C_R   0.623226 0.936155 0.493568 -0.208336
C20   C     C_R   0.619987 0.063375 0.502615 -0.216298
C21   C     C_R   0.489726 0.128622 0.513894 -0.109979
C22   C     C_R   0.908107 0.330075 0.367980 -0.144307
C23   C     C_R   0.496405 0.262773 0.507104 0.774240
C24   C     C_R   0.004196 0.241978 0.308266 -0.130064
C25   C     C_R   0.148725 0.243208 0.306779 -0.200836
C26   C     C_R   0.197133 0.330730 0.366990 -0.163558
C27   C     C_R   0.100814 0.416614 0.434788 0.202899
C28   C     C_R   0.950991 0.416545 0.434965 0.189970
C29   C     C_R   0.901287 0.579244 0.562126 -0.083367
C30   C     C_R   0.049388 0.579171 0.562137 -0.080621
C31   C     C_R   0.576784 0.500994 0.300863 0.786126
C32   C     C_R   0.802466 0.521624 0.027022 -0.193054
C33   C     C_R   0.619364 0.500229 0.188494 -0.053397
C34   C     C_R   0.247108 0.416862 0.855983 -0.313552
C35   C     C_R   0.207793 0.385458 0.958880 0.062230
C36   C     C_R   0.306675 0.403236 0.017495 -0.176647
Cu1   Cu    Cu3+1 0.359340 0.500010 0.500010 0.920537
Cu2   Cu    Cu3+1 0.640660 0.499990 0.499990 0.925664
H1    H     H_    0.842805 0.551002 0.173650 0.171061
H2    H     H_    0.262670 0.796618 0.413599 0.167430
H3    H     H_    0.027929 0.901203 0.458347 0.132738
H4    H     H_    0.993285 0.104285 0.552805 0.132729
H5    H     H_    0.197029 0.205963 0.593453 0.159742
H6    H     H_    0.720024 0.110564 0.501517 0.161727
H7    H     H_    0.825564 0.644040 0.613073 0.146828
H8    H     H_    0.802268 0.326628 0.357636 0.207192
H9    H     H_    0.966820 0.174430 0.260421 0.180531
H10   H     H_    0.224581 0.176999 0.257459 0.158355
H11   H     H_    0.311031 0.326440 0.356904 0.205221
H12   H     H_    0.863516 0.472560 0.826488 0.137231
H13   H     H_    0.084686 0.644026 0.612980 0.148479
H14   H     H_    0.913373 0.543077 0.985664 0.131224
H15   H     H_    0.404926 0.459199 0.180552 0.154084
H16   H     H_    0.166737 0.411136 0.813171 0.143752
H17   H     H_    0.270236 0.382488 0.097799 0.169206
H18   H     H_    0.697256 0.413367 0.733562 0.189042
H19   H     H_    0.723622 0.888384 0.491426 0.160046
N1    N     N_R   0.852480 0.498790 0.499000 -0.202703
N2    N     N_R   0.148360 0.498710 0.498970 -0.202924
O1    O     O_R   0.381190 0.680360 0.500010 -0.587690
O2    O     O_R   0.618760 0.680340 0.500000 -0.577546
O3    O     O_R   0.323240 0.499990 0.650990 -0.579995
O4    O     O_R   0.560820 0.499960 0.650980 -0.594664
O5    O     O_R   0.381240 0.319660 0.500000 -0.612193
O6    O     O_R   0.618810 0.319640 0.499990 -0.608944
O7    O     O_R   0.439180 0.500040 0.349020 -0.606307
O8    O     O_R   0.676760 0.500010 0.349010 -0.596121
C37   C     C_2   0.063273 0.331987 0.003152 0.326162
H20   H     H_    0.993561 0.309910 0.953960 0.074085
O9    O     O_2   0.019950 0.311693 0.094564 -0.570300

loop_
_geom_bond_atom_site_label_1
_geom_bond_atom_site_label_2
_ccdc_geom_bond_type
C8    H15   S    
C31   O7    A    
C2    C4    A    
C30   H13   S    
C31   C33   S    
C24   C25   A    
C34   H16   S    
C16   C21   A    
C28   N1    A    
C12   O3    A    
C35   C36   A    
Cu2   O6    S    
C4    C8    A    
C14   H4    S    
C5    C32   A    
C30   N2    A    
Cu2   O2    S    
C13   H3    S    
C2    C3    A    
C1    C18   S    
C15   H5    S    
C10   C34   A    
C3    C10   A    
C22   C28   A    
C13   C14   A    
C6    H12   S    
C31   O8    A    
C11   C13   A    
C25   H10   S    
C23   O6    A    
C26   C27   A    
C29   C30   A    
C10   C12   S    
C35   C37   S    
C9    C33   A    
C19   H19   S    
C5    C6    A    
C7    H18   S    
C23   O5    A    
C22   H8    S    
Cu1   Cu2   S    
C29   N1    A    
C17   C18   A    
C6    C7    A    
C3    C7    A    
C8    C33   A    
C21   C23   S    
Cu1   O7    S    
C11   H2    S    
C22   C24   A    
C26   H11   S    
Cu1   O1    S    
C16   C17   A    
Cu2   N1    S    
C15   C16   A    
Cu2   O8    S    
C9    H1    S    
Cu1   O5    S    
C18   C19   A    
C20   C21   A    
C37   O9    D    
C34   C35   A    
C1    O1    A    
C2    C36   A    
C27   C28   A    
C36   H17   S    
C12   O4    A    
Cu1   O3    S    
C14   C15   A    
C32   H14   S    
C27   N2    A    
C9    C32   A    
C20   H6    S    
C25   C26   A    
Cu2   O4    S    
C24   H9    S    
C37   H20   S    
C11   C17   A    
Cu1   N2    S    
C19   C20   A    
C29   H7    S    
C4    C5    A    
C1    O2    A    
