data_mof_unit_54127.cif
_audit_creation_date              2012-12-10T19:33:12-0500
_audit_creation_method            fapswitch 2.2
_symmetry_space_group_name_H-M    P1
_symmetry_Int_Tables_number       1
_space_group_crystal_system       triclinic
_cell_length_a                    8.722888
_cell_length_b                    15.914698
_cell_length_c                    17.031537
_cell_angle_alpha                 95.377436
_cell_angle_beta                  93.585656
_cell_angle_gamma                 83.907325
_cell_volume                      2337.34685124

loop_
_atom_site_label
_atom_site_type_symbol
_atom_type_description
_atom_site_fract_x
_atom_site_fract_y
_atom_site_fract_z
_atom_type_partial_charge
C1    C     C_R   0.493604 0.490444 0.348595 0.916740
C2    C     C_R   0.508156 0.509154 0.651581 0.926723
C3    C     C_R   0.464168 0.759167 0.447115 0.437727
C4    C     C_R   0.603643 0.232995 0.517113 0.444056
C5    C     C_R   0.490811 0.845657 0.449751 0.198637
C6    C     C_R   0.597221 0.144284 0.503324 0.201267
C7    C     C_R   0.525729 0.890493 0.522347 0.170694
C8    C     C_R   0.454677 0.111682 0.486018 0.172388
C9    C     C_R   0.572175 0.841974 0.586325 0.263512
C10   C     C_R   0.329711 0.169180 0.462751 0.268343
C11   C     C_R   0.574178 0.752496 0.577370 -0.075588
C12   C     C_R   0.347296 0.256584 0.462551 -0.042198
C13   C     C_R   0.205602 0.522013 0.501379 0.918464
C14   C     C_R   0.794434 0.478073 0.498807 0.907585
C15   C     C_2   0.040219 0.534024 0.502121 -0.276151
C16   C     C_2   0.959817 0.466418 0.497956 -0.289926
C17   C     C_R   0.482539 0.488671 0.262044 -0.255958
C18   C     C_R   0.517244 0.512270 0.738425 -0.261610
C19   C     C_R   0.587947 0.533133 0.229382 -0.256742
C20   C     C_R   0.459820 0.447472 0.774589 -0.295589
C21   C     C_R   0.568202 0.554812 0.152171 0.388163
C22   C     C_R   0.465923 0.448012 0.856622 0.356855
C23   C     C_R   0.438439 0.529311 0.104850 0.140846
C24   C     C_R   0.503781 0.521653 0.903436 0.134824
C25   C     C_R   0.328444 0.484574 0.137352 0.249148
C26   C     C_R   0.544918 0.590951 0.866131 0.274087
C27   C     C_R   0.356407 0.458233 0.215183 0.277647
C28   C     C_R   0.579749 0.578877 0.786321 0.290942
Cu1   Cu    Cu3+1 0.492520 0.415770 0.496210 1.087239
Cu2   Cu    Cu3+1 0.507480 0.584230 0.503790 1.073045
H1    H     H_    0.984618 0.598613 0.506118 0.201464
H2    H     H_    0.015903 0.402073 0.493676 0.207786
H3    H     H_    0.417004 0.394001 0.738951 0.235852
H4    H     H_    0.682469 0.555643 0.267102 0.223827
H5    H     H_    0.615176 0.716780 0.626090 0.252161
H6    H     H_    0.250833 0.298375 0.441579 0.221099
N1    N     N_2   0.416921 0.544313 0.023877 -0.041746
N2    N     N_2   0.531950 0.518188 0.985724 -0.069950
N3    N     N_R   0.518730 0.710760 0.509500 -0.280571
N4    N     N_R   0.481270 0.289240 0.490500 -0.274379
N5    N     N_2   0.528950 0.981462 0.530703 -0.066112
N6    N     N_2   0.437918 0.022183 0.484223 -0.058243
O1    O     O_R   0.493000 0.421040 0.382520 -0.522592
O2    O     O_R   0.507000 0.578960 0.617480 -0.577317
O3    O     O_R   0.505640 0.563310 0.388930 -0.540121
O4    O     O_R   0.494360 0.436690 0.611070 -0.544645
O5    O     O_R   0.269980 0.445280 0.497530 -0.596809
O6    O     O_R   0.730020 0.554720 0.502470 -0.574353
O7    O     O_R   0.282610 0.587550 0.503940 -0.529657
O8    O     O_R   0.717390 0.412450 0.496060 -0.525603
S1    S     S_3+6 0.420588 0.355809 0.896972 0.112057
O9    O     O_2   0.248073 0.355822 0.892878 -0.214221
O10   O     O_2   0.488831 0.278948 0.848092 -0.200370
O11   O     O_3   0.489461 0.351127 0.991089 -0.484536
H7    H     H_    0.456545 0.297984 0.007435 0.408799
S2    S     S_3+6 0.692715 0.626826 0.123978 0.151567
O12   O     O_2   0.598547 0.708544 0.108087 -0.159188
O13   O     O_2   0.811419 0.645248 0.189528 -0.227918
O14   O     O_3   0.785605 0.587110 0.043138 -0.457846
H8    H     H_    0.864950 0.626217 0.038439 0.420196
S3    S     S_3+6 0.152562 0.468012 0.081470 0.143377
O15   O     O_2   0.157418 0.376431 0.049930 -0.166070
O16   O     O_2   0.019458 0.489656 0.134066 -0.183727
O17   O     O_3   0.122468 0.528533 0.004953 -0.487252
H9    H     H_    0.047877 0.500130 0.968035 0.406786
S4    S     S_3+6 0.525110 0.696008 0.911782 0.148324
O18   O     O_2   0.678146 0.719510 0.947479 -0.156190
O19   O     O_2   0.469374 0.755732 0.850309 -0.207024
O20   O     O_3   0.394048 0.706538 0.981178 -0.460360
H10   H     H_    0.373981 0.768458 0.994805 0.411518
S5    S     S_3+6 0.240749 0.388137 0.256392 0.079440
O21   O     O_2   0.346269 0.315976 0.286599 -0.250668
O22   O     O_2   0.159127 0.436439 0.324337 -0.331997
O23   O     O_3   0.108500 0.344303 0.194221 -0.397743
H11   H     H_    0.050080 0.312548 0.227526 0.391725
S6    S     S_3+6 0.748595 0.621319 0.760512 0.061536
O24   O     O_2   0.801430 0.583782 0.681300 -0.331944
O25   O     O_2   0.721853 0.716098 0.761118 -0.189060
O26   O     O_3   0.889329 0.597518 0.829346 -0.489458
H12   H     H_    0.978928 0.625064 0.814814 0.392848
S7    S     S_3+6 0.771176 0.262304 0.575846 0.114812
O27   O     O_2   0.821665 0.194524 0.630563 -0.173087
O28   O     O_2   0.898879 0.266080 0.521449 -0.261797
O29   O     O_3   0.748132 0.353382 0.633631 -0.505915
H13   H     H_    0.853313 0.363817 0.655043 0.374084
S8    S     S_3+6 0.344400 0.724852 0.362937 0.117643
O30   O     O_2   0.232427 0.798781 0.341566 -0.171430
O31   O     O_2   0.446013 0.699910 0.294861 -0.248110
O32   O     O_3   0.236649 0.646022 0.373694 -0.508210
H14   H     H_    0.192826 0.629993 0.319962 0.378670
Cl1   Cl    Cl    0.770855 0.075158 0.496143 -0.316352
Cl2   Cl    Cl    0.500495 0.894018 0.360411 -0.320344
Cl3   Cl    Cl    0.632861 0.891838 0.677751 -0.345691
Cl4   Cl    Cl    0.151535 0.132547 0.430182 -0.352135

loop_
_geom_bond_atom_site_label_1
_geom_bond_atom_site_label_2
_ccdc_geom_bond_type
S4    O19   D    
C2    C18   S    
N5    N6    D    
Cu2   O3    S    
S6    O26   S    
C8    N6    S    
S7    O27   D    
C2    O4    A    
N1    N2    D    
Cu1   O5    S    
Cu2   O6    S    
C19   C21   A    
S6    O25   D    
S8    O31   D    
S4    O20   S    
C10   Cl4   S    
C6    Cl1   S    
S2    O12   D    
S3    O16   D    
C13   O5    A    
C1    O1    A    
C4    S7    S    
C4    N4    A    
C2    O2    A    
C24   N2    S    
C12   H6    S    
C18   C20   A    
C23   C25   A    
S4    O18   D    
C3    N3    A    
O14   H8    S    
Cu1   O1    S    
C3    S8    S    
Cu2   O2    S    
O20   H10   S    
S7    O28   D    
Cu1   O8    S    
O23   H11   S    
S1    O9    D    
C26   S4    S    
C18   C28   A    
S6    O24   D    
C4    C6    A    
C5    C7    A    
S8    O30   D    
C6    C8    A    
C23   N1    S    
S8    O32   S    
S1    O10   D    
C17   C27   A    
C12   N4    A    
S3    O17   S    
Cu1   Cu2   S    
S5    O23   S    
C25   S3    S    
O29   H13   S    
C11   N3    A    
C9    C11   A    
C10   C12   A    
C13   O7    A    
C20   H3    S    
Cu2   O7    S    
C20   C22   A    
C21   C23   A    
C14   C16   S    
C25   C27   A    
C28   S6    S    
C9    Cl3   S    
S7    O29   S    
C27   S5    S    
S5    O22   D    
C7    C9    A    
O11   H7    S    
C1    C17   S    
C24   C26   A    
C3    C5    A    
C19   H4    S    
C21   S2    S    
C14   O6    A    
C15   H1    S    
C16   H2    S    
C26   C28   A    
S2    O14   S    
Cu1   O4    S    
S1    O11   S    
O17   H9    S    
C13   C15   S    
S5    O21   D    
C1    O3    A    
C14   O8    A    
Cu1   N4    S    
C11   H5    S    
C17   C19   A    
S2    O13   D    
Cu2   N3    S    
C22   C24   A    
C7    N5    S    
S3    O15   D    
C5    Cl2   S    
O26   H12   S    
C8    C10   A    
O32   H14   S    
C15   C16   D    
C22   S1    S    
