data_mof_unit_48049.cif
_audit_creation_date              2012-12-10T18:33:39-0500
_audit_creation_method            fapswitch 2.2
_symmetry_space_group_name_H-M    P1
_symmetry_Int_Tables_number       1
_space_group_crystal_system       triclinic
_cell_length_a                    10.500623
_cell_length_b                    15.009014
_cell_length_c                    15.484377
_cell_angle_alpha                 82.221592
_cell_angle_beta                  89.811432
_cell_angle_gamma                 104.630512
_cell_volume                      2337.75470322

loop_
_atom_site_label
_atom_site_type_symbol
_atom_type_description
_atom_site_fract_x
_atom_site_fract_y
_atom_site_fract_z
_atom_type_partial_charge
C1    C     C_R   0.484624 0.441825 0.662224 0.898953
C2    C     C_R   0.521797 0.558352 0.337755 0.898215
C3    C     C_R   0.528375 0.474431 0.811047 -0.355676
C4    C     C_R   0.555412 0.528893 0.188939 -0.356565
C5    C     C_R   0.559793 0.451047 0.897018 0.094350
C6    C     C_R   0.593155 0.556494 0.101041 0.094471
C7    C     C_R   0.546702 0.356106 0.928974 0.080843
C8    C     C_R   0.623052 0.652540 0.068216 0.081176
C9    C     C_R   0.595099 0.519434 0.953248 0.092706
C10   C     C_R   0.591502 0.490131 0.043940 0.090937
C11   C     C_R   0.583830 0.395436 0.074209 -0.231791
C12   C     C_R   0.632183 0.615907 0.922020 -0.229999
C13   C     C_R   0.564338 0.329835 0.016975 -0.196482
C14   C     C_R   0.648361 0.681401 0.979133 -0.195575
C15   C     C_R   0.691479 0.841632 0.639581 -0.312041
C16   C     C_R   0.307527 0.158052 0.361092 -0.310911
C17   C     C_R   0.660453 0.752899 0.616316 0.008842
C18   C     C_R   0.338840 0.246876 0.384134 0.007651
C19   C     C_R   0.515520 0.794079 0.509768 -0.009313
C20   C     C_R   0.484798 0.206018 0.490086 -0.013845
C21   C     C_R   0.542400 0.885582 0.530327 -0.010389
C22   C     C_R   0.457371 0.114352 0.469904 -0.010653
C23   C     C_R   0.742633 0.500978 0.500200 0.849758
C24   C     C_R   0.257353 0.499019 0.499806 0.853362
C25   C     C_R   0.632741 0.908355 0.596793 0.175711
C26   C     C_R   0.366553 0.091430 0.403732 0.173684
C27   C     C_R   0.483270 0.954385 0.487777 0.079101
C28   C     C_R   0.516358 0.045514 0.512559 0.077983
C29   C     C_R   0.607069 0.064733 0.579095 -0.207355
C30   C     C_R   0.392151 0.935052 0.421492 -0.209413
C31   C     C_R   0.663799 0.997293 0.620205 -0.200601
C32   C     C_R   0.335194 0.002416 0.380515 -0.200498
C33   C     C_3   0.931726 0.431499 0.560285 -0.175345
C34   C     C_3   0.068198 0.568492 0.439740 -0.175159
C35   C     C_3   0.047165 0.512276 0.579272 -0.174739
C36   C     C_3   0.952761 0.487715 0.420750 -0.174350
C37   C     C_3   0.121540 0.497747 0.499508 0.027717
C38   C     C_3   0.878404 0.502244 0.500514 0.029656
C39   C     C_3   0.008748 0.416938 0.480512 -0.138107
C40   C     C_3   0.991179 0.583050 0.519511 -0.136489
C41   C     C_R   0.496717 0.408019 0.754381 -0.193121
C42   C     C_R   0.553634 0.593766 0.245243 -0.195017
C43   C     C_R   0.513668 0.288644 0.872666 -0.290971
C44   C     C_R   0.623753 0.718232 0.124708 -0.289198
C45   C     C_R   0.490112 0.314395 0.785330 0.625086
C46   C     C_R   0.589683 0.689243 0.213045 0.630044
H1    H     H_    0.090211 0.521907 0.643807 0.140340
H2    H     H_    0.909654 0.478102 0.356225 0.139757
H3    H     H_    0.552082 0.230667 0.538927 0.151499
H4    H     H_    0.448931 0.769625 0.460507 0.144162
H5    H     H_    0.294106 0.299210 0.351751 0.134913
H6    H     H_    0.704806 0.700449 0.648916 0.130206
H7    H     H_    0.760506 0.857921 0.690562 0.145432
H8    H     H_    0.237964 0.141586 0.310444 0.148843
H9    H     H_    0.636838 0.131441 0.601510 0.155638
H10   H     H_    0.361949 0.868240 0.399329 0.149567
H11   H     H_    0.871427 0.376036 0.609484 0.141363
H12   H     H_    0.128443 0.623982 0.390547 0.139807
H13   H     H_    0.019879 0.349284 0.464621 0.148114
H14   H     H_    0.980025 0.650699 0.535405 0.148653
H15   H     H_    0.557797 0.257796 0.042305 0.150753
H16   H     H_    0.674928 0.754707 0.953078 0.147911
H17   H     H_    0.521839 0.456044 0.214033 0.189448
H18   H     H_    0.524801 0.544704 0.787669 0.189200
H19   H     H_    0.505582 0.216017 0.896353 0.167497
H20   H     H_    0.648330 0.791896 0.100174 0.167320
H21   H     H_    0.595624 0.370634 0.141712 0.148473
H22   H     H_    0.651830 0.642516 0.853624 0.142005
H23   H     H_    0.732780 0.015033 0.670952 0.149324
H24   H     H_    0.265789 0.984552 0.330027 0.149871
N1    N     N_R   0.574200 0.731700 0.552740 -0.101204
N2    N     N_R   0.425800 0.268300 0.447260 -0.103534
O1    O     O_R   0.462600 0.383110 0.605620 -0.551819
O2    O     O_R   0.537400 0.616890 0.394380 -0.552194
O3    O     O_R   0.510210 0.531900 0.639510 -0.636803
O4    O     O_R   0.489790 0.468100 0.360490 -0.637595
O5    O     O_R   0.662240 0.425610 0.483080 -0.626049
O6    O     O_R   0.337760 0.574390 0.516920 -0.624942
O7    O     O_R   0.709860 0.574400 0.516970 -0.625858
O8    O     O_R   0.290140 0.425600 0.483030 -0.625544
Zn1   Zn    Zn3+2 0.468210 0.400660 0.477370 0.962644
Zn2   Zn    Zn3+2 0.531790 0.599340 0.522630 0.964635
F1    F     F_    0.590277 0.754367 0.266034 -0.667121
F2    F     F_    0.461195 0.247987 0.731885 -0.671354

loop_
_geom_bond_atom_site_label_1
_geom_bond_atom_site_label_2
_ccdc_geom_bond_type
C25   C31   A    
C38   C40   S    
C26   C32   A    
C40   H14   S    
C34   C37   S    
C19   N1    A    
C35   H1    S    
C3    H18   S    
C12   H22   S    
C4    H17   S    
C33   C39   S    
C34   C40   S    
C15   H7    S    
C28   C29   A    
C35   C37   S    
C15   C25   A    
C14   H16   S    
C42   C46   A    
C44   H20   S    
C24   O8    A    
C44   C46   A    
C8    C14   A    
C7    C43   A    
C9    C10   A    
N2    Zn1   S    
C2    O2    A    
N1    Zn2   S    
C21   C27   A    
C22   C28   A    
C27   C30   A    
C18   N2    A    
O2    Zn2   S    
C17   H6    S    
O1    Zn1   S    
C11   H21   S    
C18   H5    S    
C16   C26   A    
C37   C39   S    
C1    O3    A    
C4    C6    A    
C5    C7    A    
C32   H24   S    
C29   H9    S    
C30   H10   S    
C5    C9    A    
C20   H3    S    
O6    Zn2   S    
C31   H23   S    
O5    Zn1   S    
C43   H19   S    
C39   H13   S    
C24   C37   S    
C23   O5    A    
C43   C45   A    
C24   O6    A    
C20   C22   A    
C17   N1    A    
C45   F2    S    
C2    O4    A    
C1    C41   S    
C15   C17   A    
C21   C25   A    
C3    C41   A    
C33   H11   S    
C19   C21   A    
C36   C39   S    
C8    C44   A    
C12   C14   A    
O8    Zn1   S    
C3    C5    A    
O4    Zn1   S    
C6    C10   A    
O7    Zn2   S    
C6    C8    A    
O3    Zn2   S    
C23   C38   S    
C33   C38   S    
C1    O1    A    
C36   C38   S    
C35   C40   S    
C29   C31   A    
C30   C32   A    
C11   C13   A    
C19   H4    S    
C4    C42   A    
C2    C42   S    
C33   C35   S    
C36   H2    S    
C34   C36   S    
C9    C12   A    
C16   H8    S    
C10   C11   A    
C46   F1    S    
C7    C13   A    
C13   H15   S    
C16   C18   A    
C22   C26   A    
C27   C28   A    
C34   H12   S    
C41   C45   A    
C20   N2    A    
C23   O7    A    
