data_mof_unit_7172.cif
_audit_creation_date              2012-12-10T17:04:36-0500
_audit_creation_method            fapswitch 2.2
_symmetry_space_group_name_H-M    P1
_symmetry_Int_Tables_number       1
_space_group_crystal_system       triclinic
_cell_length_a                    14.915643
_cell_length_b                    10.665344
_cell_length_c                    10.043067
_cell_angle_alpha                 89.49721
_cell_angle_beta                  90.326071
_cell_angle_gamma                 89.860532
_cell_volume                      1597.56343869

loop_
_atom_site_label
_atom_site_type_symbol
_atom_type_description
_atom_site_fract_x
_atom_site_fract_y
_atom_site_fract_z
_atom_type_partial_charge
C1    C     C_R   0.509148 0.263032 0.500550 0.934432
C2    C     C_R   0.187276 0.389311 0.459882 0.354703
C3    C     C_R   0.231666 0.497689 0.500191 -0.261855
C4    C     C_R   0.327249 0.499696 0.499741 1.017865
C5    C     C_R   0.186488 0.601575 0.549532 0.357849
C6    C     C_2   0.525566 0.932772 0.391738 -0.142928
C7    C     C_2   0.492041 0.870484 0.495611 -0.256868
C8    C     C_2   0.521989 0.067330 0.391278 -0.120404
C9    C     C_2   0.539651 0.134557 0.500898 -0.062635
C10   C     C_2   0.548882 0.575473 0.925568 0.422201
C11   C     C_2   0.542817 0.581971 0.074899 -0.156825
C12   C     C_R   0.906893 0.594186 0.576867 -0.102287
C13   C     C_R   0.497464 0.737646 0.499179 1.003588
C14   C     C_R   0.672765 0.502045 0.500277 0.911169
C15   C     C_R   0.813755 0.603812 0.558252 0.445120
C16   C     C_R   0.768156 0.503437 0.501927 -0.159715
C17   C     C_R   0.812272 0.401280 0.449552 -0.248359
C18   C     C_R   0.905164 0.396663 0.450500 0.013581
C19   C     C_R   0.953107 0.493774 0.514353 -0.035576
C20   C     C_3   0.596118 0.086902 0.618859 -0.396522
C21   C     C_3   0.684303 0.159841 0.631091 -0.423644
C22   C     C_3   0.741739 0.110334 0.746395 -0.621223
C23   C     C_R   0.950313 0.298616 0.386411 0.316491
C24   C     C_R   0.043898 0.298073 0.381917 0.400743
C25   C     C_R   0.093208 0.391363 0.450650 -0.096059
C26   C     C_R   0.046904 0.491863 0.513466 -0.110611
C27   C     C_R   0.094456 0.592284 0.573163 -0.085331
C28   C     C_R   0.048747 0.677487 0.656039 0.381073
C29   C     C_R   0.955066 0.678167 0.658235 0.360127
Cl1   Cl    Cl    0.754540 0.747348 0.575755 -0.521024
Cl2   Cl    Cl    0.624624 0.679038 0.849880 -0.482914
Cl3   Cl    Cl    0.890149 0.176739 0.306290 -0.488254
Cl4   Cl    Cl    0.094243 0.190966 0.270631 -0.354578
Cl5   Cl    Cl    0.252164 0.250500 0.441241 -0.487146
Cl6   Cl    Cl    0.245614 0.745635 0.562046 -0.486204
Cl7   Cl    Cl    0.106263 0.768854 0.776076 -0.369482
Cl8   Cl    Cl    0.901279 0.770463 0.780640 -0.394043
H1    H     H_    0.463554 0.918106 0.580887 0.184218
H2    H     H_    0.804721 0.165360 0.752522 0.257498
H3    H     H_    0.722783 0.150501 0.537273 0.260516
H4    H     H_    0.670589 0.260584 0.648152 0.233942
H5    H     H_    0.556693 0.096112 0.711874 0.223897
H6    H     H_    0.615341 0.987079 0.609127 0.267533
H7    H     H_    0.492921 0.109992 0.302290 0.188130
H8    H     H_    0.453134 0.447220 0.897792 0.140662
H9    H     H_    0.578060 0.657408 0.124454 0.200227
H10   H     H_    0.472659 0.425152 0.102370 0.171638
H11   H     H_    0.772585 0.327786 0.404936 0.194583
H12   H     H_    0.550478 0.885604 0.303815 0.192318
H13   H     H_    0.705199 0.119588 0.841890 0.253647
H14   H     H_    0.759265 0.010280 0.730753 0.317525
N1    N     N_2   0.500970 0.501330 0.852150 -0.220465
N2    N     N_2   0.500990 0.501360 0.147810 -0.208236
O1    O     O_R   0.499990 0.319060 0.613040 -0.620754
O2    O     O_R   0.500010 0.319100 0.386900 -0.620915
O3    O     O_R   0.367830 0.499950 0.613080 -0.592449
O4    O     O_R   0.367860 0.499990 0.386940 -0.579869
O5    O     O_R   0.499990 0.680900 0.613100 -0.553952
O6    O     O_R   0.500010 0.680940 0.386960 -0.623423
O7    O     O_R   0.632140 0.500010 0.613060 -0.576540
O8    O     O_R   0.632170 0.500050 0.386920 -0.609537
Zn1   Zn    Zn3+2 0.499980 0.499970 0.650990 1.051619
Zn2   Zn    Zn3+2 0.500020 0.500030 0.349010 1.013733

loop_
_geom_bond_atom_site_label_1
_geom_bond_atom_site_label_2
_ccdc_geom_bond_type
C4    O4    A    
O5    Zn1   S    
C20   H5    S    
C23   C24   A    
C17   H11   S    
C24   C25   A    
C6    C7    D    
C13   O6    A    
C12   C29   A    
C14   O7    A    
C9    C20   S    
O6    Zn2   S    
C24   Cl4   S    
C11   N2    D    
C12   C15   A    
H10   N2    S    
C22   H13   S    
C10   N1    D    
C23   Cl3   S    
C2    Cl5   S    
C2    C3    A    
C1    O2    A    
N1    Zn1   S    
C21   C22   S    
C4    O3    A    
N2    Zn2   S    
C26   C27   A    
C16   C17   A    
C21   H3    S    
C1    O1    A    
C21   H4    S    
C22   H2    S    
C5    Cl6   S    
C12   C19   A    
C28   C29   A    
C7    H1    S    
O4    Zn2   S    
C2    C25   A    
O3    Zn1   S    
C6    H12   S    
C17   C18   A    
C14   C16   S    
C10   C11   S    
C18   C23   A    
C8    H7    S    
C7    C13   S    
C20   H6    S    
C1    C9    S    
C20   C21   S    
C28   Cl7   S    
C15   Cl1   S    
O7    Zn1   S    
C18   C19   A    
C29   Cl8   S    
C27   C28   A    
O8    Zn2   S    
C19   C26   A    
C22   H14   S    
C11   H9    S    
C6    C8    S    
C13   O5    A    
O1    Zn1   S    
H8    N1    S    
C25   C26   A    
C5    C27   A    
C14   O8    A    
C10   Cl2   S    
C15   C16   A    
C3    C4    S    
C8    C9    D    
C3    C5    A    
O2    Zn2   S    
