data_mof_unit_23479.cif
_audit_creation_date              2013-03-05T16:22:58-0500
_audit_creation_method            fapswitch 2.2
_symmetry_space_group_name_H-M    P1
_symmetry_Int_Tables_number       1
_space_group_crystal_system       triclinic
_cell_length_a                    23.411719
_cell_length_b                    10.537975
_cell_length_c                    9.779128
_cell_angle_alpha                 90.125549
_cell_angle_beta                  89.994987
_cell_angle_gamma                 90.042411
_cell_volume                      2412.62283621

loop_
_atom_site_label
_atom_site_type_symbol
_atom_site_description
_atom_site_fract_x
_atom_site_fract_y
_atom_site_fract_z
_atom_type_partial_charge
O1    O     O_R   0.500000 0.313960 0.616610 -0.632055
O2    O     O_R   0.500000 0.686040 0.383390 -0.632209
O3    O     O_R   0.500030 0.313950 0.383350 -0.559188
O4    O     O_R   0.499970 0.686050 0.616650 -0.558789
C1    C     C_R   0.500865 0.258119 0.499979 1.015042
C2    C     C_R   0.499139 0.741881 0.500023 1.014844
O5    O     O_R   0.416140 0.499970 0.616650 -0.616701
O6    O     O_R   0.583860 0.500030 0.383350 -0.616691
O7    O     O_R   0.416170 0.499960 0.383400 -0.606214
O8    O     O_R   0.583830 0.500040 0.616600 -0.607247
C3    C     C_R   0.389455 0.500115 0.500017 0.953280
C4    C     C_R   0.610554 0.499491 0.499994 0.955339
Zn1   Zn    Zn3+2 0.499980 0.500010 0.655740 1.053216
Zn2   Zn    Zn3+2 0.500020 0.499990 0.344260 1.052168
C5    C     C_R   0.879554 0.605976 0.492764 0.581530
C6    C     C_R   0.120464 0.389368 0.490428 0.582782
N1    N     N_R   0.852371 0.491184 0.494108 -0.346400
N2    N     N_R   0.147633 0.504137 0.494235 -0.346619
C7    C     C_R   0.881445 0.378896 0.488772 0.587806
C8    C     C_R   0.118547 0.616469 0.491339 0.586873
C9    C     C_R   0.941071 0.379036 0.485938 -0.022808
C10   C     C_R   0.058928 0.616351 0.488493 -0.022479
C11   C     C_R   0.970012 0.496374 0.487068 -0.007847
C12   C     C_R   0.029994 0.499009 0.487101 -0.007839
C13   C     C_R   0.939115 0.611082 0.489281 -0.024030
C14   C     C_R   0.060897 0.384292 0.486855 -0.024273
C15   C     C_R   0.972244 0.265327 0.483660 -0.123339
C16   C     C_R   0.027759 0.730075 0.488633 -0.123509
C17   C     C_R   0.031690 0.267932 0.484311 -0.120061
C18   C     C_R   0.968318 0.727461 0.489220 -0.120374
O9    O     O_2   0.848866 0.714353 0.495389 -0.491023
O10   O     O_2   0.151164 0.280992 0.490713 -0.490047
O11   O     O_2   0.852588 0.267959 0.487992 -0.498253
O12   O     O_2   0.147392 0.727420 0.492961 -0.498902
H1    H     H_    0.950860 0.174138 0.482530 0.198525
H2    H     H_    0.049141 0.821269 0.489447 0.198687
H3    H     H_    0.054613 0.178680 0.483653 0.200539
H4    H     H_    0.945396 0.816711 0.490462 0.200687
C19   C     C_R   0.238314 0.522066 0.377744 -0.107625
C20   C     C_R   0.761643 0.475330 0.377407 -0.107588
H5    H     H_    0.215496 0.534973 0.282435 0.185296
H6    H     H_    0.784417 0.463222 0.281849 0.184942
C21   C     C_R   0.297422 0.519518 0.377441 -0.117085
C22   C     C_R   0.702547 0.479242 0.377146 -0.110928
H7    H     H_    0.319721 0.531838 0.281319 0.196681
H8    H     H_    0.680227 0.468577 0.280798 0.188483
C23   C     C_R   0.327175 0.501605 0.500065 -0.072310
C24   C     C_R   0.672842 0.496491 0.500062 -0.083822
C25   C     C_R   0.297152 0.486085 0.623058 -0.195041
C26   C     C_R   0.702925 0.509382 0.623378 -0.197918
H9    H     H_    0.320197 0.472573 0.717911 0.200548
H10   H     H_    0.679960 0.521605 0.718574 0.226259
C27   C     C_R   0.237477 0.488690 0.624980 0.359671
C28   C     C_R   0.762580 0.505580 0.625228 0.354917
C29   C     C_R   0.208302 0.506664 0.500046 0.176199
C30   C     C_R   0.791702 0.488718 0.499965 0.176467
C31   C     C_3   0.507912 0.042248 0.631121 -0.272699
C32   C     C_3   0.492096 0.957755 0.368896 -0.273389
C33   C     C_3   0.548882 0.956606 0.548341 0.226962
C34   C     C_3   0.451128 0.043395 0.451680 0.226583
H11   H     H_    0.514446 0.077433 0.737103 0.240673
H12   H     H_    0.485560 0.922572 0.262914 0.240580
C35   C     C_3   0.498590 0.876010 0.499497 -0.294609
C36   C     C_3   0.501420 0.123991 0.500518 -0.294288
C37   C     C_3   0.457399 0.961351 0.578883 0.244051
C38   C     C_3   0.542612 0.038648 0.421134 0.246508
C39   C     C_3   0.474821 0.402707 0.046499 0.386665
C40   C     C_3   0.525153 0.597321 0.953529 0.389193
C41   C     C_3   0.526091 0.400293 0.950631 -0.169264
C42   C     C_3   0.473891 0.599682 0.049391 -0.170025
H13   H     H_    0.547150 0.316117 0.904427 0.190463
H14   H     H_    0.452819 0.683833 0.095617 0.189291
N3    N     N_3   0.499960 0.500030 0.863290 -0.144336
N4    N     N_3   0.500040 0.499970 0.136710 -0.144369
C43   C     C_3   0.448067 0.499934 0.951101 -0.177684
C44   C     C_3   0.551927 0.500091 0.048899 -0.177533
H15   H     H_    0.404621 0.497715 0.905717 0.187671
H16   H     H_    0.595373 0.502365 0.094283 0.184280
N5    N     N_R   0.445509 0.293122 0.103198 0.235563
O13   O     O_R   0.465423 0.179501 0.082681 -0.331568
O14   O     O_R   0.397769 0.308247 0.169092 -0.312042
N6    N     N_R   0.554241 0.707277 0.896994 0.235835
O15   O     O_R   0.534044 0.820650 0.917523 -0.331637
O16   O     O_R   0.602061 0.692807 0.831316 -0.317026
N7    N     N_R   0.207621 0.472466 0.752877 0.228037
O17   O     O_R   0.155946 0.515100 0.769513 -0.355819
O18   O     O_R   0.233511 0.422053 0.857255 -0.330938
N8    N     N_R   0.792491 0.519612 0.753399 0.227765
O19   O     O_R   0.843944 0.475501 0.769256 -0.357400
O20   O     O_R   0.766845 0.569524 0.858648 -0.325016
N9    N     N_R   0.603058 0.906858 0.597943 0.262841
O21   O     O_R   0.624092 0.947245 0.713164 -0.259667
O22   O     O_R   0.632217 0.827734 0.523378 -0.331551
N10   N     N_R   0.396949 0.093157 0.402118 0.262988
O23   O     O_R   0.375924 0.052864 0.286852 -0.262242
O24   O     O_R   0.367768 0.172152 0.476794 -0.331242
N11   N     N_R   0.409394 0.921130 0.663425 0.255606
O25   O     O_R   0.381050 0.004973 0.733632 -0.266868
O26   O     O_R   0.393057 0.803205 0.665041 -0.375603
N12   N     N_R   0.590614 0.078860 0.336581 0.255672
O27   O     O_R   0.618981 0.994999 0.266451 -0.269175
O28   O     O_R   0.606897 0.196817 0.334782 -0.382800

loop_
_geom_bond_atom_site_label_1
_geom_bond_atom_site_label_2
_geom_bond_distance
_ccdc_geom_bond_type
C32   H12   1.110537 S    
C35   C37   1.529547 S    
C15   C17   1.391996 A    
C3    C23   1.458178 S    
C4    C24   1.458649 S    
C25   H9    1.082853 S    
N11   O25   1.300197 A    
C19   H5    1.083194 S    
N7    O17   1.300897 A    
O5    C3    1.300511 A    
C26   C28   1.397359 A    
N4    C44   1.487578 S    
O1    C1    1.282422 A    
Zn2   N4    2.029657 S    
C7    C9    1.396227 A    
C12   C14   1.409304 A    
C33   C38   1.523620 S    
C5    C13   1.395827 A    
C32   C34   1.545232 S    
C13   C18   1.403662 A    
C18   H4    1.083239 S    
C41   C44   1.545993 S    
C38   N12   1.458393 S    
O4    Zn1   1.998227 S    
C41   H13   1.110375 S    
C6    O10   1.349878 S    
C32   C38   1.543697 S    
C19   C29   1.396778 A    
C31   H11   1.110535 S    
C20   C30   1.396723 A    
C42   N4    1.487620 S    
C26   H10   1.082484 S    
C11   C12   1.404536 A    
C41   N3    1.487754 S    
C8    O12   1.349829 S    
C24   C26   1.402857 A    
C9    C15   1.403605 A    
C10   C16   1.403567 A    
N3    C43   1.487673 S    
O2    C2    1.282443 A    
C23   C25   1.402856 A    
N11   O26   1.300079 A    
C22   H8    1.083030 S    
C27   C29   1.412965 A    
C6    C14   1.395984 A    
C28   C30   1.412805 A    
N7    O18   1.301710 A    
C44   H16   1.109993 S    
C39   N5    1.453797 S    
O4    C2    1.284622 A    
C7    O11   1.349799 S    
N9    O21   1.300345 A    
N5    O14   1.299823 A    
C19   C21   1.384110 A    
C15   H1    1.083243 S    
C40   N3    1.474101 S    
C1    C36   1.413528 S    
C39   C41   1.523183 S    
C36   C38   1.529554 S    
C2    C35   1.413530 S    
O7    Zn2   2.000004 S    
N9    O22   1.300399 A    
C43   H15   1.110013 S    
C20   C22   1.384186 A    
O6    C4    1.300727 A    
N12   O28   1.300057 A    
C39   N4    1.473973 S    
C33   N9    1.456382 S    
N10   O24   1.300415 A    
O7    C3    1.300607 A    
N1    C30   1.421747 S    
O3    Zn2   1.998228 S    
O8    C4    1.300623 A    
N2    C29   1.421725 S    
C6    N2    1.366528 A    
N8    O20   1.301725 A    
C34   C37   1.523593 S    
N6    O16   1.299550 A    
C9    C11   1.409556 A    
C10   C12   1.409535 A    
C39   C43   1.522373 S    
C8    C10   1.396067 A    
C31   C36   1.549633 S    
C32   C35   1.549631 S    
C5    N1    1.366533 A    
O6    Zn2   1.999748 S    
Zn1   N3    2.029658 S    
C31   C37   1.543680 S    
O3    C1    1.284646 A    
O8    Zn1   2.000006 S    
C42   H14   1.110385 S    
C5    O9    1.349911 S    
C40   C44   1.522433 S    
C33   C35   1.527316 S    
C34   C36   1.527290 S    
C40   N6    1.453836 S    
C16   C18   1.391873 A    
C37   N11   1.458393 S    
C21   H7    1.083206 S    
C28   N8    1.443061 S    
C25   C27   1.397497 A    
C20   H6    1.083197 S    
N12   O27   1.300190 A    
N1    C7    1.366423 A    
N2    C8    1.366420 A    
C11   C13   1.409277 A    
N10   O23   1.300331 A    
O2    Zn2   1.996760 S    
C31   C33   1.545238 S    
N5    O13   1.300374 A    
O5    Zn1   1.999745 S    
O1    Zn1   1.996762 S    
N8    O19   1.300913 A    
C16   H2    1.083246 S    
C14   C17   1.403699 A    
C40   C42   1.522980 S    
N6    O15   1.300389 A    
C17   H3    1.083236 S    
C42   C43   1.545645 S    
C27   N7    1.443166 S    
C21   C23   1.400050 A    
C22   C24   1.400208 A    
C34   N10   1.456360 S    
