data_mof_unit_46184.cif
_audit_creation_date              2012-12-10T18:00:19-0500
_audit_creation_method            fapswitch 2.2
_symmetry_space_group_name_H-M    P1
_symmetry_Int_Tables_number       1
_space_group_crystal_system       triclinic
_cell_length_a                    10.884973
_cell_length_b                    9.656815
_cell_length_c                    10.684583
_cell_angle_alpha                 89.743601
_cell_angle_beta                  95.546349
_cell_angle_gamma                 90.519317
_cell_volume                      1117.78987657

loop_
_atom_site_label
_atom_site_type_symbol
_atom_type_description
_atom_site_fract_x
_atom_site_fract_y
_atom_site_fract_z
_atom_type_partial_charge
C1    C     C_R   0.870822 0.502406 0.478475 -0.113301
C2    C     C_R   0.129176 0.497592 0.521519 -0.113319
C3    C     C_R   0.263489 0.499183 0.510513 0.821056
C4    C     C_R   0.736510 0.500817 0.489484 0.821059
C5    C     C_R   0.500139 0.500432 0.260221 0.913533
C6    C     C_R   0.499861 0.499569 0.739779 0.913531
C7    C     C_3   0.513663 0.630413 0.040393 0.259413
C8    C     C_3   0.486337 0.369586 0.959606 0.259173
C9    C     C_3   0.606445 0.552283 0.967893 0.220473
C10   C     C_3   0.393556 0.447716 0.032107 0.220262
C11   C     C_3   0.406413 0.576448 0.949067 0.236324
C12   C     C_3   0.593587 0.423551 0.050932 0.236298
C13   C     C_3   0.499250 0.498451 0.875472 -0.206395
C14   C     C_3   0.500751 0.501549 0.124528 -0.206407
C15   C     C_R   0.424476 0.074019 0.412292 0.201373
C16   C     C_R   0.575526 0.925981 0.587707 0.201395
C17   C     C_R   0.576564 0.074501 0.586806 0.251120
C18   C     C_R   0.423436 0.925499 0.413194 0.251100
C19   C     C_R   0.061188 0.371708 0.508927 0.128971
C20   C     C_R   0.938810 0.628291 0.491065 0.128977
C21   C     C_R   0.934201 0.375696 0.472432 0.119687
C22   C     C_R   0.065796 0.624302 0.527563 0.119648
Cu1   Cu    Cu3+1 0.500000 0.640660 0.500000 0.958334
Cu2   Cu    Cu3+1 0.500000 0.359340 0.500000 0.958326
N1    N     N_R   0.500000 0.852070 0.500000 -0.190387
N2    N     N_R   0.500000 0.147930 0.500000 -0.190387
O1    O     O_R   0.319640 0.618740 0.499990 -0.594004
O2    O     O_R   0.680360 0.381260 0.500010 -0.594009
O3    O     O_R   0.680360 0.618740 0.500010 -0.596344
O4    O     O_R   0.319640 0.381260 0.499990 -0.596341
O5    O     O_R   0.499970 0.618770 0.316850 -0.566502
O6    O     O_R   0.500030 0.381230 0.683150 -0.566490
O7    O     O_R   0.500030 0.618770 0.683150 -0.572755
O8    O     O_R   0.499970 0.381230 0.316850 -0.572765
C23   C     C_3   0.346149 0.147163 0.306850 -0.705509
H1    H     H_    0.326146 0.254864 0.324787 0.285644
H2    H     H_    0.391772 0.140544 0.218553 0.232611
H3    H     H_    0.252316 0.102197 0.290212 0.177491
C24   C     C_3   0.653859 0.852838 0.693145 -0.705498
H4    H     H_    0.673853 0.745134 0.675211 0.285648
H5    H     H_    0.747695 0.897799 0.709767 0.177479
H6    H     H_    0.608246 0.859466 0.781447 0.232608
C25   C     C_3   0.666052 0.146993 0.683707 -0.723684
H7    H     H_    0.670653 0.258908 0.678705 0.276545
H8    H     H_    0.643563 0.119706 0.779941 0.240986
H9    H     H_    0.761970 0.115711 0.672396 0.168225
C26   C     C_3   0.333947 0.853007 0.316293 -0.723651
H10   H     H_    0.329347 0.741092 0.321294 0.276537
H11   H     H_    0.238030 0.884289 0.327608 0.168219
H12   H     H_    0.356433 0.880295 0.220060 0.241030
O9    O     O_3   0.308787 0.655898 0.894161 -0.724474
H13   H     H_    0.267387 0.692789 0.965476 0.346899
O10   O     O_3   0.691218 0.344108 0.105841 -0.724475
H14   H     H_    0.732317 0.306761 0.034513 0.346872
O11   O     O_3   0.528726 0.766475 0.083656 -0.708944
H15   H     H_    0.530462 0.824450 0.007067 0.340814
O12   O     O_3   0.471271 0.233525 0.916343 -0.708999
H16   H     H_    0.469537 0.175548 0.992931 0.340781
O13   O     O_3   0.717404 0.606429 0.932179 -0.726480
H17   H     H_    0.765931 0.633366 0.011753 0.353173
O14   O     O_3   0.282596 0.393567 0.067817 -0.726541
H18   H     H_    0.234099 0.366556 0.988247 0.353151
C27   C     C_3   0.118766 0.233442 0.547284 -0.788737
H19   H     H_    0.189367 0.245814 0.628805 0.254372
H20   H     H_    0.049442 0.159929 0.579813 0.218272
H21   H     H_    0.159525 0.186001 0.467054 0.236726
C28   C     C_3   0.881237 0.766557 0.452700 -0.788740
H22   H     H_    0.810608 0.754180 0.371203 0.254381
H23   H     H_    0.840517 0.814028 0.532940 0.236706
H24   H     H_    0.950561 0.840042 0.420127 0.218274
C29   C     C_3   0.871730 0.248004 0.412034 -0.754726
H25   H     H_    0.796256 0.276917 0.339609 0.279822
H26   H     H_    0.937502 0.187425 0.361315 0.222711
H27   H     H_    0.835314 0.180408 0.484012 0.228006
C30   C     C_3   0.128265 0.751993 0.587964 -0.754721
H28   H     H_    0.203739 0.723078 0.660389 0.279822
H29   H     H_    0.164681 0.819592 0.515989 0.228015
H30   H     H_    0.062492 0.812569 0.638684 0.222708

loop_
_geom_bond_atom_site_label_1
_geom_bond_atom_site_label_2
_ccdc_geom_bond_type
C15   C18   A    
C6    O6    A    
O11   H15   S    
C27   H20   S    
C1    C21   A    
C8    C13   S    
C20   C28   S    
C23   H1    S    
C7    O11   S    
C25   H7    S    
C18   C26   S    
C17   C25   S    
C26   H11   S    
O10   H14   S    
C7    C11   S    
C21   C29   S    
C17   N2    A    
Cu1   O3    S    
C19   C21   A    
Cu2   N2    S    
C9    C13   S    
C4    O2    A    
C7    C14   S    
C19   C27   S    
C16   C17   A    
Cu1   O7    S    
C2    C22   A    
Cu1   Cu2   S    
Cu1   O1    S    
C24   H6    S    
C12   O10   S    
C27   H21   S    
O13   H17   S    
C18   N1    A    
C22   C30   S    
C15   C23   S    
C25   H9    S    
C26   H12   S    
C28   H22   S    
C23   H3    S    
C24   H5    S    
C10   C14   S    
C24   H4    S    
C29   H26   S    
C15   N2    A    
Cu2   O8    S    
O9    H13   S    
C4    O3    A    
C9    O13   S    
Cu1   O5    S    
C3    O4    A    
C30   H28   S    
Cu2   O6    S    
C8    O12   S    
C30   H29   S    
C26   H10   S    
C8    C12   S    
C5    O8    A    
C25   H8    S    
C5    C14   S    
C12   C14   S    
C10   O14   S    
C16   N1    A    
C7    C9    S    
C1    C20   A    
C23   H2    S    
C2    C19   A    
C9    C12   S    
Cu2   O2    S    
C20   C22   A    
C29   H27   S    
C6    O7    A    
C1    C4    S    
C28   H24   S    
C3    O1    A    
C2    C3    S    
C29   H25   S    
C6    C13   S    
C11   C13   S    
O12   H16   S    
Cu1   N1    S    
O14   H18   S    
C30   H30   S    
Cu2   O4    S    
C11   O9    S    
C10   C11   S    
C16   C24   S    
C27   H19   S    
C8    C10   S    
C28   H23   S    
C5    O5    A    
