data_mof_unit_55106.cif
_audit_creation_date              2012-12-10T19:06:27-0500
_audit_creation_method            fapswitch 2.2
_symmetry_space_group_name_H-M    P1
_symmetry_Int_Tables_number       1
_space_group_crystal_system       triclinic
_cell_length_a                    23.438983
_cell_length_b                    10.793924
_cell_length_c                    9.593152
_cell_angle_alpha                 90.441559
_cell_angle_beta                  89.399575
_cell_angle_gamma                 90.793866
_cell_volume                      2426.61842386

loop_
_atom_site_label
_atom_site_type_symbol
_atom_type_description
_atom_site_fract_x
_atom_site_fract_y
_atom_site_fract_z
_atom_type_partial_charge
C1    C     C_R   0.500795 0.262453 0.499664 0.810689
C2    C     C_R   0.972387 0.401715 0.253266 0.290734
C3    C     C_R   0.031964 0.403992 0.256140 -0.191016
C4    C     C_R   0.061260 0.431439 0.379336 -0.092208
C5    C     C_R   0.030289 0.453612 0.502981 -0.017407
C6    C     C_R   0.059585 0.476598 0.628383 -0.012645
C7    C     C_R   0.028520 0.499217 0.751513 -0.146232
C8    C     C_R   0.969140 0.500232 0.749925 -0.112526
C9    C     C_R   0.121106 0.437002 0.382014 0.626110
C10   C     C_R   0.119445 0.477862 0.627011 0.533558
C11   C     C_R   0.236530 0.583300 0.537081 -0.273064
C12   C     C_R   0.391321 0.500163 0.500469 0.898604
C13   C     C_R   0.296186 0.596281 0.532811 0.388844
C14   C     C_R   0.329264 0.492197 0.500828 -0.174356
C15   C     C_R   0.303037 0.379089 0.465848 -0.380348
C16   C     C_R   0.243570 0.366186 0.470729 0.511671
C17   C     C_R   0.210137 0.469554 0.504231 0.198633
C18   C     C_R   0.756251 0.380071 0.438923 -0.079310
C19   C     C_R   0.697104 0.390816 0.436235 -0.296193
C20   C     C_R   0.670845 0.493751 0.497491 -0.126649
C21   C     C_R   0.704249 0.588618 0.558254 0.395885
C22   C     C_R   0.763673 0.578596 0.557703 -0.163942
C23   C     C_R   0.501404 0.737499 0.500310 0.807243
C24   C     C_R   0.790108 0.474208 0.498868 0.262466
C25   C     C_R   0.505050 0.064658 0.624848 0.101607
C26   C     C_R   0.506348 0.129388 0.499465 -0.097151
C27   C     C_R   0.516728 0.063992 0.374737 -0.188335
C28   C     C_R   0.517373 0.934890 0.375270 -0.232647
C29   C     C_R   0.507636 0.870705 0.500581 -0.098445
C30   C     C_R   0.505829 0.937504 0.625479 0.100119
C31   C     C_3   0.465494 0.929245 0.746661 -0.479436
C32   C     C_3   0.463959 0.069947 0.744877 -0.384055
C33   C     C_R   0.531722 0.585432 0.073489 0.172927
C34   C     C_R   0.608719 0.499488 0.499325 0.811758
C35   C     C_R   0.464141 0.423634 0.073770 0.225592
C36   C     C_R   0.461232 0.430364 0.925077 0.453154
C37   C     C_R   0.532221 0.584345 0.926696 0.127279
C38   C     C_3   0.595293 0.602468 0.919688 -0.387956
C39   C     C_3   0.594914 0.603694 0.078034 -0.472124
C40   C     C_R   0.879785 0.477832 0.623385 0.552804
C41   C     C_R   0.880429 0.443369 0.377063 0.573703
C42   C     C_R   0.940468 0.431983 0.375310 -0.084694
C43   C     C_R   0.969993 0.454035 0.501189 -0.057018
C44   C     C_R   0.939470 0.477336 0.625733 -0.011023
Cu1   Cu    Cu3+1 0.500000 0.499980 0.640670 0.994922
Cu2   Cu    Cu3+1 0.500000 0.500020 0.359330 0.976511
H1    H     H_    0.671636 0.317196 0.389652 0.160560
H2    H     H_    0.789260 0.652298 0.603559 0.173324
H3    H     H_    0.521742 0.111671 0.276362 0.191102
H4    H     H_    0.522630 0.885951 0.277077 0.168794
H5    H     H_    0.424115 0.884047 0.720013 0.224997
H6    H     H_    0.486362 0.892065 0.840801 0.201782
H7    H     H_    0.421758 0.106810 0.715066 0.213235
H8    H     H_    0.483245 0.113654 0.838862 0.227841
H9    H     H_    0.055343 0.382402 0.161194 0.211049
H10   H     H_    0.617769 0.521273 0.874535 0.228618
H11   H     H_    0.607572 0.693382 0.873834 0.221053
H12   H     H_    0.617248 0.523254 0.122840 0.226443
H13   H     H_    0.607108 0.695210 0.123507 0.187534
H14   H     H_    0.049938 0.517610 0.849183 0.196618
H15   H     H_    0.946538 0.520922 0.846027 0.220768
H16   H     H_    0.210421 0.661833 0.565024 0.171369
H17   H     H_    0.328841 0.300071 0.437388 0.189718
H18   H     H_    0.775771 0.298145 0.394738 0.171681
N1    N     N_R   0.851426 0.464054 0.499963 -0.464926
N2    N     N_R   0.148928 0.459929 0.504660 -0.443761
N3    N     N_R   0.500360 0.500930 0.147930 -0.220850
N4    N     N_R   0.500360 0.500890 0.852020 -0.234852
O1    O     O_R   0.500000 0.319640 0.618810 -0.550113
O2    O     O_2   0.851174 0.438577 0.257000 -0.470642
O3    O     O_2   0.151246 0.421549 0.262641 -0.499979
O4    O     O_2   0.148010 0.497010 0.746867 -0.537108
O5    O     O_R   0.500010 0.319680 0.381230 -0.545678
O6    O     O_R   0.417880 0.499940 0.618820 -0.558430
O7    O     O_R   0.417880 0.499980 0.381240 -0.546514
O8    O     O_R   0.499990 0.680320 0.618770 -0.570616
O9    O     O_R   0.500000 0.680360 0.381190 -0.590166
O10   O     O_R   0.582120 0.500020 0.618760 -0.561226
O11   O     O_R   0.582120 0.500060 0.381180 -0.594813
O12   O     O_2   0.850248 0.491592 0.743942 -0.501121
Br1   Br    Br    0.939424 0.345915 0.080644 -0.440030
O13   O     O_3   0.679322 0.688211 0.625162 -0.583391
C45   C     C_3   0.670645 0.782711 0.527042 0.047410
H19   H     H_    0.634793 0.756778 0.456974 0.135540
H20   H     H_    0.709723 0.801895 0.462895 0.146316
C46   C     C_3   0.655401 0.901400 0.604407 -0.754239
H21   H     H_    0.692527 0.935174 0.665590 0.251175
H22   H     H_    0.643422 0.973826 0.528903 0.204319
H23   H     H_    0.619042 0.883817 0.676904 0.246650
Br2   Br    Br    0.420224 0.294158 0.163982 -0.523892
O14   O     O_3   0.422971 0.355760 0.853094 -0.551705
C47   C     C_3   0.366497 0.398677 0.874590 0.124531
H24   H     H_    0.359603 0.486935 0.819337 0.166689
H25   H     H_    0.355530 0.417368 0.985452 0.162131
C48   C     C_3   0.324680 0.301207 0.820393 -0.773802
H26   H     H_    0.325718 0.217749 0.887245 0.261895
H27   H     H_    0.280754 0.338518 0.821267 0.221887
H28   H     H_    0.336585 0.273890 0.712449 0.225545
O15   O     O_3   0.322569 0.708725 0.563814 -0.587347
C49   C     C_3   0.310189 0.794672 0.458128 0.068094
H29   H     H_    0.264072 0.817451 0.458597 0.146257
H30   H     H_    0.322624 0.757903 0.353343 0.153932
C50   C     C_3   0.343509 0.914463 0.483498 -0.789043
H31   H     H_    0.389877 0.897131 0.474536 0.250760
H32   H     H_    0.331894 0.984250 0.404586 0.223687
H33   H     H_    0.333535 0.951864 0.589008 0.241350
O16   O     O_3   0.217618 0.254573 0.435966 -0.539888
C51   C     C_3   0.223280 0.171909 0.548087 0.045391
H34   H     H_    0.206196 0.212695 0.646957 0.159922
H35   H     H_    0.268730 0.146821 0.562177 0.135815
C52   C     C_3   0.189544 0.053839 0.516722 -0.732973
H36   H     H_    0.205236 0.011357 0.417988 0.247271
H37   H     H_    0.194717 0.986746 0.602713 0.201842
H38   H     H_    0.143566 0.075167 0.506339 0.256178

loop_
_geom_bond_atom_site_label_1
_geom_bond_atom_site_label_2
_ccdc_geom_bond_type
C22   H2    S    
C12   O6    A    
C41   C42   A    
C32   H7    S    
C48   H26   S    
C23   O8    A    
C11   H16   S    
C48   H28   S    
C7    C8    A    
Cu1   Cu2   S    
C17   N2    S    
C29   C30   A    
Cu1   O8    S    
C18   C24   A    
C5    C6    A    
C23   C29   S    
C28   C29   A    
C30   C31   S    
C46   H22   S    
C15   C16   A    
C37   N4    A    
C51   H34   S    
C18   C19   A    
C9    N2    A    
C47   H24   S    
C16   O16   S    
C28   H4    S    
C19   C20   A    
C16   C17   A    
O16   C51   S    
C40   O12   S    
Cu1   O10   S    
C50   H33   S    
C31   H6    S    
C8    H15   S    
C20   C34   S    
C25   C32   S    
C5    C43   A    
C21   C22   A    
C3    H9    S    
C32   H8    S    
Cu2   O7    S    
C10   N2    A    
C38   C39   S    
Cu1   O1    S    
C9    O3    S    
C52   H37   S    
O14   C47   S    
C46   H21   S    
C41   N1    A    
C25   C26   A    
C39   H12   S    
C49   C50   S    
C1    O1    A    
Cu1   O6    S    
C35   C36   A    
C13   O15   S    
C43   C44   A    
C37   C38   S    
C34   O11   A    
C38   H11   S    
O15   C49   S    
C35   N3    A    
C39   H13   S    
C20   C21   A    
Cu1   N4    S    
C47   H25   S    
C26   C27   A    
C50   H32   S    
C33   C39   S    
C23   O9    A    
C24   N1    S    
C36   O14   S    
C45   H20   S    
C12   C14   S    
C40   N1    A    
C1    C26   S    
C22   C24   A    
C45   H19   S    
C42   C43   A    
C3    C4    A    
C7    H14   S    
C50   H31   S    
C33   N3    A    
C49   H30   S    
C25   C30   A    
C48   H27   S    
C11   C17   A    
C52   H36   S    
C31   C32   S    
C8    C44   A    
C31   H5    S    
C4    C5    A    
C46   H23   S    
C6    C10   A    
Cu2   O9    S    
C36   N4    A    
C6    C7    A    
C51   C52   S    
C1    O5    A    
C2    C3    A    
Cu2   N3    S    
C34   O10   A    
C11   C13   A    
C18   H18   S    
Cu2   O11   S    
C2    C42   A    
C49   H29   S    
C51   H35   S    
C52   H38   S    
C19   H1    S    
C47   C48   S    
C33   C37   A    
C35   Br2   S    
C40   C44   A    
C45   C46   S    
C38   H10   S    
C21   O13   S    
O13   C45   S    
C12   O7    A    
C27   C28   A    
C15   H17   S    
C14   C15   A    
C2    Br1   S    
C4    C9    A    
C13   C14   A    
Cu2   O5    S    
C27   H3    S    
C41   O2    S    
C10   O4    S    
