data_mof_unit_45593.cif
_audit_creation_date              2012-10-26T20:07:11-0400
_audit_creation_method            fapswitch 2.2
_symmetry_space_group_name_H-M    P1
_symmetry_Int_Tables_number       1
_space_group_crystal_system       triclinic
_cell_length_a                    10.977338
_cell_length_b                    9.505329
_cell_length_c                    27.757568
_cell_angle_alpha                 90.065576
_cell_angle_beta                  90.223693
_cell_angle_gamma                 90.061432
_cell_volume                      2896.28807632

loop_
_atom_site_label
_atom_site_type_symbol
_atom_type_description
_atom_site_fract_x
_atom_site_fract_y
_atom_site_fract_z
_atom_type_partial_charge
C1    C     C_R   0.261610 0.500056 0.498767 0.561906
C2    C     C_R   0.402945 0.471110 0.874279 -0.020291
C3    C     C_R   0.506526 0.497792 0.354254 -0.058889
C4    C     C_R   0.500302 0.501003 0.645982 -0.066574
C5    C     C_R   0.413516 0.435031 0.975291 0.047744
C6    C     C_R   0.624091 0.523417 0.024841 0.047274
C7    C     C_R   0.630274 0.501038 0.974248 0.029006
C8    C     C_R   0.423518 0.407614 0.025455 0.029892
C9    C     C_R   0.519811 0.472707 0.949469 -0.036191
C10   C     C_R   0.523534 0.467726 0.050501 -0.035779
C11   C     C_R   0.300574 0.435589 0.950572 0.413826
C12   C     C_R   0.737194 0.500472 0.496021 0.568094
C13   C     C_R   0.709600 0.606954 0.050311 0.407313
C14   C     C_R   0.296014 0.451087 0.900715 -0.026169
C15   C     C_R   0.705989 0.615796 0.100384 -0.029204
C16   C     C_R   0.500905 0.499815 0.407336 0.595819
C17   C     C_R   0.500088 0.500060 0.592725 0.586943
C18   C     C_R   0.338050 0.325610 0.051889 0.080754
C19   C     C_R   0.740189 0.507436 0.947152 0.074071
C20   C     C_R   0.061456 0.373196 0.487823 0.019164
C21   C     C_R   0.935228 0.631266 0.491564 0.006755
C22   C     C_R   0.934436 0.375027 0.482607 0.013161
C23   C     C_R   0.522164 0.474181 0.101370 -0.043200
C24   C     C_R   0.062316 0.630221 0.494244 0.016784
C25   C     C_R   0.870394 0.502461 0.489351 -0.056511
C26   C     C_R   0.126770 0.500783 0.494808 -0.063979
C27   C     C_R   0.441388 0.074205 0.464534 0.006459
C28   C     C_R   0.560233 0.925746 0.535069 0.059695
C29   C     C_R   0.560493 0.074611 0.534997 0.082900
C30   C     C_R   0.441734 0.925392 0.464472 0.034161
C31   C     C_R   0.427920 0.417274 0.177711 0.468708
C32   C     C_R   0.615667 0.517248 0.822026 0.481914
C33   C     C_R   0.612025 0.551144 0.176895 0.487488
C34   C     C_R   0.515086 0.483775 0.898724 -0.043851
C35   C     C_R   0.400395 0.481905 0.823874 0.478274
C36   C     C_R   0.550482 0.367535 0.280306 0.018052
C37   C     C_R   0.488510 0.634417 0.721442 0.014199
C38   C     C_R   0.541732 0.373584 0.330636 -0.193900
C39   C     C_R   0.488069 0.629186 0.670850 -0.204978
C40   C     C_R   0.479000 0.617933 0.326857 0.408336
C41   C     C_R   0.513038 0.375696 0.672406 0.407597
C42   C     C_R   0.485281 0.612819 0.276734 0.470281
C43   C     C_R   0.514254 0.379298 0.722528 0.464844
C44   C     C_R   0.520328 0.488756 0.253160 0.150163
C45   C     C_R   0.427618 0.409368 0.127206 0.025875
C46   C     C_R   0.502289 0.506968 0.747293 0.156007
C47   C     C_2   0.474289 0.773601 0.745710 0.651034
C48   C     C_2   0.592364 0.234200 0.257521 0.655711
C49   C     C_2   0.261439 0.214899 0.028909 0.660990
C50   C     C_2   0.862036 0.482373 0.969062 0.683646
C51   C     C_2   0.124511 0.236475 0.483944 0.637690
C52   C     C_2   0.872505 0.769854 0.489232 0.651173
C53   C     C_2   0.870258 0.244330 0.467172 0.636406
C54   C     C_2   0.125049 0.767855 0.492895 0.635646
C55   C     C_R   0.622265 0.508171 0.872458 0.026787
C56   C     C_R   0.338248 0.332801 0.102353 -0.090898
C57   C     C_R   0.734021 0.516356 0.896761 -0.093345
C58   C     C_R   0.614754 0.546733 0.126365 -0.019781
Cu1   Cu    Cu3+1 0.500000 0.640660 0.500000 1.067417
Cu2   Cu    Cu3+1 0.500000 0.359340 0.500000 1.061969
F1    F     F_    0.443493 0.739502 0.348304 -0.562303
F2    F     F_    0.525600 0.249465 0.650047 -0.567359
F3    F     F_    0.455388 0.728657 0.250704 -0.533080
F4    F     F_    0.527991 0.257630 0.747503 -0.559747
F5    F     F_    0.193319 0.433637 0.974640 -0.591445
F6    F     F_    0.790246 0.690836 0.027021 -0.582466
H1    H     H_    0.394091 0.129990 0.436178 0.169401
H2    H     H_    0.774102 0.679061 0.118663 0.208104
H3    H     H_    0.452735 0.983488 0.738394 0.410087
H4    H     H_    0.619703 0.025090 0.264532 0.392540
H5    H     H_    0.242115 0.073378 0.975149 0.371677
H6    H     H_    0.960858 0.386197 0.020875 0.401400
H7    H     H_    0.213162 0.081557 0.518934 0.355001
H8    H     H_    0.769002 0.903243 0.450243 0.348299
H9    H     H_    0.758038 0.151877 0.418806 0.341051
H10   H     H_    0.184665 0.927453 0.451673 0.349008
H11   H     H_    0.608825 0.869853 0.563078 0.154725
H12   H     H_    0.609522 0.130769 0.562883 0.190554
H13   H     H_    0.395313 0.869163 0.435957 0.198429
H14   H     H_    0.271397 0.272900 0.122384 0.205683
H15   H     H_    0.817682 0.523795 0.876298 0.199566
H16   H     H_    0.477734 0.725726 0.650566 0.212143
H17   H     H_    0.565182 0.281573 0.351720 0.208550
H18   H     H_    0.207929 0.448984 0.882989 0.208531
N1    N     N_R   0.520090 0.485829 0.201425 -0.351634
N2    N     N_R   0.505875 0.504310 0.798945 -0.347742
N3    N     N_R   0.500000 0.852070 0.500000 -0.245575
N4    N     N_R   0.500000 0.147930 0.500000 -0.251263
O1    O     O_R   0.319640 0.618740 0.500000 -0.481631
O2    O     O_2   0.717918 0.538418 0.796179 -0.438272
O3    O     O_2   0.293746 0.469610 0.799887 -0.438955
O4    O     O_2   0.700913 0.618901 0.201374 -0.427733
O5    O     O_2   0.472196 0.782735 0.789631 -0.458411
O6    O     O_R   0.462684 0.895763 0.717990 -0.629724
O7    O     O_2   0.631849 0.233565 0.216394 -0.461576
O8    O     O_R   0.588656 0.108512 0.283674 -0.632148
O9    O     O_2   0.164575 0.180374 0.047094 -0.449686
O10   O     O_R   0.301848 0.146948 0.987209 -0.660315
O11   O     O_2   0.952891 0.534959 0.951109 -0.402818
O12   O     O_R   0.680360 0.381260 0.500000 -0.489039
O13   O     O_R   0.873409 0.395367 0.009436 -0.644040
O14   O     O_2   0.145202 0.186489 0.444239 -0.505964
O15   O     O_R   0.161943 0.167517 0.525881 -0.604821
O16   O     O_2   0.874196 0.848230 0.524188 -0.442997
O17   O     O_R   0.811362 0.809055 0.447060 -0.625129
O18   O     O_2   0.878779 0.137137 0.491212 -0.451851
O19   O     O_R   0.799013 0.245647 0.425289 -0.656867
O20   O     O_2   0.159970 0.822969 0.530294 -0.461639
O21   O     O_R   0.141038 0.834318 0.448550 -0.633350
O22   O     O_R   0.680360 0.618740 0.500000 -0.491053
O23   O     O_R   0.319640 0.381260 0.500000 -0.481045
O24   O     O_R   0.500020 0.618770 0.430260 -0.443380
O25   O     O_R   0.499980 0.381230 0.569740 -0.438276
O26   O     O_R   0.499980 0.618770 0.569740 -0.522216
O27   O     O_R   0.500020 0.381230 0.430260 -0.520986
O28   O     O_2   0.337303 0.356503 0.203012 -0.436604

loop_
_geom_bond_atom_site_label_1
_geom_bond_atom_site_label_2
_ccdc_geom_bond_type
C2    C35   A    
C23   C58   A    
H9    O19   S    
C33   C58   A    
C31   N1    A    
C48   O7    D    
C38   H17   S    
C14   H18   S    
C12   O22   A    
Cu2   N4    S    
C17   O25   A    
C19   C57   A    
C51   O14   D    
C50   O11   D    
C23   C45   A    
C28   C29   A    
C24   C26   A    
C5    C11   A    
C20   C51   S    
C35   N2    A    
H6    O13   S    
C24   C54   S    
Cu1   O22   S    
Cu1   O1    S    
C33   N1    A    
C29   N4    A    
C49   O10   S    
C53   O18   D    
C32   O2    S    
C29   H12   S    
C45   C56   A    
H10   O21   S    
C22   C25   A    
C17   O26   A    
C37   C47   S    
C32   C55   A    
C18   C56   A    
C2    C34   A    
C40   C42   A    
Cu1   Cu2   S    
C27   C30   A    
C41   C43   A    
Cu2   O25   S    
C42   C44   A    
C41   F2    S    
C43   F4    S    
C22   C53   S    
C13   F6    S    
H5    O10   S    
C3    C38   A    
H3    O6    S    
C33   O4    S    
C8    C18   A    
C40   F1    S    
C54   O21   S    
H4    O8    S    
C5    C9    A    
C53   O19   S    
C4    C39   A    
C32   N2    A    
C28   N3    A    
Cu1   O24   S    
C47   O5    D    
C34   C55   A    
C28   H11   S    
C30   H13   S    
C20   C22   A    
C52   O17   S    
C7    C19   A    
C55   C57   A    
C31   C45   A    
C1    C26   S    
C15   C58   A    
C57   H15   S    
C36   C44   A    
C4    C17   S    
C44   N1    S    
C16   O27   A    
C31   O28   S    
C16   O24   A    
C7    C9    A    
C21   C25   A    
C52   O16   D    
C1    O1    A    
C48   O8    S    
C39   H16   S    
Cu2   O12   S    
C3    C40   A    
C5    C8    A    
C6    C7    A    
C10   C23   A    
C56   H14   S    
C54   O20   D    
C12   C25   S    
C13   C15   A    
C30   N3    A    
C37   C39   A    
Cu2   O23   S    
C1    O23   A    
C6    C13   A    
C19   C50   S    
C9    C34   A    
C20   C26   A    
Cu1   O26   S    
C15   H2    S    
C36   C38   A    
C11   C14   A    
C47   O6    S    
C36   C48   S    
C27   N4    A    
C2    C14   A    
C43   C46   A    
Cu1   N3    S    
C12   O12   A    
C27   H1    S    
C6    C10   A    
C49   O9    D    
H7    O15   S    
C50   O13   S    
C8    C10   A    
C4    C41   A    
C21   C24   A    
Cu2   O27   S    
C46   N2    S    
C37   C46   A    
C51   O15   S    
C42   F3    S    
C21   C52   S    
C3    C16   S    
C11   F5    S    
C18   C49   S    
H8    O17   S    
C35   O3    S    
