data_mof_unit_10408.cif
_audit_creation_date              2012-12-11T15:28:38-0500
_audit_creation_method            fapswitch 2.2
_symmetry_space_group_name_H-M    P1
_symmetry_Int_Tables_number       1
_space_group_crystal_system       triclinic
_cell_length_a                    6.958104
_cell_length_b                    19.596094
_cell_length_c                    23.293631
_cell_angle_alpha                 95.823644
_cell_angle_beta                  91.328053
_cell_angle_gamma                 88.509638
_cell_volume                      3157.9905102

loop_
_atom_site_label
_atom_site_type_symbol
_atom_type_description
_atom_site_fract_x
_atom_site_fract_y
_atom_site_fract_z
_atom_type_partial_charge
O1    O     O_R   0.617180 0.809390 0.808140 -0.519977
O2    O     O_R   0.382820 0.190610 0.191860 -0.518532
O3    O     O_R   0.293300 0.672410 0.795490 -0.518056
O4    O     O_R   0.706700 0.327590 0.204510 -0.537012
O5    O     O_R   0.117220 0.690610 0.691850 -0.530511
O6    O     O_R   0.882780 0.309390 0.308150 -0.529038
C1    C     C_R   0.465777 0.647862 0.805892 0.828934
C2    C     C_R   0.534807 0.351714 0.193682 0.862869
O7    O     O_R   0.287840 0.807750 0.814460 -0.525248
O8    O     O_R   0.712160 0.192250 0.185540 -0.525865
O9    O     O_R   0.111720 0.826910 0.710960 -0.538189
O10   O     O_R   0.888280 0.173090 0.289040 -0.538107
C3    C     C_R   0.456524 0.830703 0.833209 0.730026
C4    C     C_R   0.543497 0.169243 0.166825 0.747304
O11   O     O_R   0.622680 0.673080 0.789040 -0.530016
O12   O     O_R   0.377320 0.326920 0.210960 -0.526557
O13   O     O_3   0.448820 0.756130 0.716020 -0.373031
O14   O     O_3   0.551180 0.243870 0.283980 -0.373314
V1    V     V_3+5 0.176220 0.748860 0.756300 1.520724
V2    V     V_3+5 0.823780 0.251140 0.243700 1.505051
O15   O     O_R   0.781670 0.827580 0.704500 -0.531790
O16   O     O_R   0.218330 0.172420 0.295500 -0.531881
C5    C     C_R   0.947421 0.852209 0.694592 0.802803
C6    C     C_R   0.052579 0.147788 0.305404 0.804436
O17   O     O_R   0.787130 0.692240 0.685530 -0.521206
O18   O     O_R   0.212870 0.307760 0.314470 -0.523281
C7    C     C_R   0.956064 0.669223 0.666792 0.722722
C8    C     C_R   0.043933 0.330772 0.333212 0.714905
V3    V     V_3+5 0.675510 0.751130 0.743690 1.522256
V4    V     V_3+5 0.324490 0.248870 0.256310 1.526347
O19   O     O_3   0.952780 0.743870 0.783980 -0.360200
O20   O     O_3   0.047220 0.256130 0.216020 -0.362859
C9    C     C_1   0.966525 0.617156 0.614739 -0.167963
C10   C     C_1   0.033463 0.382837 0.385266 -0.168307
C11   C     C_1   0.978101 0.573645 0.571925 0.028985
C12   C     C_1   0.021880 0.426348 0.428081 0.029911
C13   C     C_1   0.993383 0.521851 0.521319 0.024492
C14   C     C_1   0.006594 0.478142 0.478687 0.024853
C15   C     C_R   0.945105 0.914690 0.664283 -0.263188
C16   C     C_R   0.054890 0.085304 0.335710 -0.262667
C17   C     C_R   0.860041 0.035123 0.663807 0.572163
C18   C     C_R   0.139906 0.964865 0.336179 0.569737
C19   C     C_R   0.878083 0.976543 0.692867 0.551967
C20   C     C_R   0.121880 0.023448 0.307121 0.549478
C21   C     C_R   0.993750 0.911633 0.605875 -0.319963
C22   C     C_R   0.006255 0.088360 0.394118 -0.319654
C23   C     C_R   0.972845 0.970355 0.574617 0.028866
C24   C     C_R   0.027136 0.029634 0.425372 0.028708
C25   C     C_R   0.905130 0.032520 0.605035 -0.096717
C26   C     C_R   0.094830 0.967468 0.394951 -0.094844
C27   C     C_R   0.013748 0.969400 0.514312 0.116784
C28   C     C_R   0.986228 0.030589 0.485676 0.116314
C29   C     C_R   0.919438 0.090728 0.518346 -0.201374
C30   C     C_R   0.080522 0.909258 0.481642 -0.201628
C31   C     C_R   0.880474 0.091519 0.576532 -0.095507
C32   C     C_R   0.119474 0.908467 0.423454 -0.097353
H1    H     H_    0.828903 0.139216 0.599310 0.192000
H2    H     H_    0.171026 0.860768 0.400674 0.191085
H3    H     H_    0.958143 0.137687 0.413936 0.139642
H4    H     H_    0.041891 0.862307 0.586060 0.139288
H5    H     H_    0.894713 0.138649 0.500258 0.125302
H6    H     H_    0.105231 0.861336 0.499728 0.124964
C33   C     C_R   0.494410 0.585301 0.836492 -0.271640
C34   C     C_R   0.517769 0.414984 0.163763 -0.277856
C35   C     C_R   0.669252 0.476903 0.838677 -0.205529
C36   C     C_R   0.446895 0.537122 0.168535 -0.207171
C37   C     C_R   0.598482 0.530039 0.808342 0.558770
C38   C     C_R   0.461229 0.476609 0.195176 0.545656
C39   C     C_R   0.458045 0.585272 0.895956 0.465672
C40   C     C_R   0.557043 0.414540 0.104529 0.436249
C41   C     C_R   0.554315 0.536681 0.929176 -0.028904
C42   C     C_R   0.558693 0.477061 0.077782 -0.041698
C43   C     C_R   0.651765 0.480311 0.898693 -0.071040
C44   C     C_R   0.493861 0.537872 0.110341 -0.058679
C45   C     C_R   0.554885 0.540643 0.991147 0.050002
C46   C     C_R   0.612656 0.481173 0.019127 0.018932
C47   C     C_R   0.738439 0.432608 0.988603 0.195165
C48   C     C_R   0.528463 0.603189 0.027396 0.206094
C49   C     C_R   0.743647 0.429955 0.928430 -0.128900
C50   C     C_R   0.486738 0.600036 0.085694 -0.168778
H7    H     H_    0.830608 0.390318 0.904804 0.139747
H8    H     H_    0.457829 0.647138 0.113094 0.136778
H9    H     H_    0.747682 0.434640 0.815470 0.173124
H10   H     H_    0.401249 0.583961 0.193857 0.173296
C51   C     C_1   0.467277 0.882712 0.885305 -0.156681
C52   C     C_1   0.532791 0.117144 0.114786 -0.142398
C53   C     C_1   0.478733 0.926200 0.928147 0.038719
C54   C     C_1   0.521377 0.073593 0.071986 0.045850
C55   C     C_1   0.493648 0.978006 0.978764 0.034197
C56   C     C_1   0.506489 0.021748 0.021393 0.036359
C57   C     C_3   0.897013 0.393163 0.018336 -0.289073
C58   C     C_3   0.097558 0.415013 0.002802 -0.764311
H11   H     H_    0.126046 0.401269 0.956337 0.237768
H12   H     H_    0.112398 0.471259 0.013314 0.238425
H13   H     H_    0.207865 0.388282 0.028116 0.260144
H14   H     H_    0.892272 0.402715 0.065918 0.208094
H15   H     H_    0.882496 0.337243 0.005914 0.227184
C59   C     C_3   0.597276 0.672082 0.011360 -0.364038
C60   C     C_3   0.810495 0.668292 0.996508 -0.696484
H16   H     H_    0.835165 0.634000 0.956309 0.238552
H17   H     H_    0.859823 0.720253 0.989694 0.227781
H18   H     H_    0.897436 0.648993 0.032349 0.238905
H19   H     H_    0.514176 0.692675 0.976028 0.242548
H20   H     H_    0.580567 0.712253 0.048322 0.181881
F1    F     F_    0.171337 0.020002 0.250813 -0.644907
F2    F     F_    0.828610 0.979988 0.749174 -0.640752
F3    F     F_    0.794673 0.094400 0.693050 -0.628295
F4    F     F_    0.205243 0.905585 0.306931 -0.633340
F5    F     F_    0.578616 0.352821 0.072834 -0.716098
F6    F     F_    0.317625 0.628045 0.919182 -0.709698
F7    F     F_    0.419684 0.478185 0.251974 -0.675727
F8    F     F_    0.634692 0.528186 0.751147 -0.672974

loop_
_geom_bond_atom_site_label_1
_geom_bond_atom_site_label_2
_ccdc_geom_bond_type
C36   C38   A    
C21   H4    S    
C51   C53   T    
C22   H3    S    
O13   V3    S    
O4    C2    A    
V1    O19   S    
C23   C25   A    
C20   F1    S    
C7    C9    S    
C16   C22   A    
O9    V1    S    
C34   C38   A    
C11   C13   S    
O3    C1    A    
C9    C11   T    
C48   C50   A    
C35   H9    S    
O12   V4    S    
C59   H19   S    
C36   C44   A    
C35   C43   A    
C21   C23   A    
C39   C41   A    
O7    C3    A    
C6    C16   S    
C57   H14   S    
O5    C7    A    
C29   H5    S    
O7    V1    S    
O6    C8    A    
C33   C39   A    
O8    V2    S    
C35   C37   A    
C48   C59   S    
O3    V1    S    
O14   V4    S    
C34   C40   A    
V4    O20   S    
C17   F3    S    
C10   C12   T    
C42   C46   A    
C15   C21   A    
C24   C26   A    
C8    C10   S    
C2    O12   A    
C44   C50   A    
C17   C19   A    
C18   C20   A    
C17   C25   A    
O11   V3    S    
C22   C24   A    
C29   C31   A    
O17   V3    S    
C33   C37   A    
C59   H20   S    
C52   C54   T    
C27   C28   A    
C46   C47   A    
C4    C52   S    
C42   C44   A    
O8    C4    A    
C57   C58   S    
C49   H7    S    
C15   C19   A    
C1    O11   A    
C30   H6    S    
C25   C31   A    
O15   V3    S    
C58   H13   S    
C26   C32   A    
C19   F2    S    
C45   C46   A    
C13   C14   T    
C40   F5    S    
C39   F6    S    
C60   H16   S    
C16   C20   A    
O10   V2    S    
C58   H12   S    
C43   C49   A    
C47   C49   A    
C57   H15   S    
C1    C33   S    
C18   C26   A    
C50   H8    S    
C60   H17   S    
C2    C34   S    
O18   V4    S    
O15   C5    A    
O16   C6    A    
O1    C3    A    
C12   C14   S    
C28   C29   A    
C41   C43   A    
V2    O20   S    
C47   C57   S    
O16   V4    S    
C54   C56   S    
C23   C27   A    
C30   C32   A    
O5    V1    S    
O17   C7    A    
O6    V2    S    
O10   C6    A    
O18   C8    A    
O2    V4    S    
C27   C30   A    
C31   H1    S    
V3    O19   S    
C41   C45   A    
O1    V3    S    
C5    C15   S    
O9    C5    A    
C58   H11   S    
O13   V1    S    
C32   H2    S    
O14   V2    S    
O2    C4    A    
C45   C48   A    
C36   H10   S    
O4    V2    S    
C37   F8    S    
C24   C28   A    
C60   H18   S    
C59   C60   S    
C3    C51   S    
C53   C55   S    
C40   C42   A    
C55   C56   T    
C18   F4    S    
C38   F7    S    
