data_mof_unit_13024.cif
_audit_creation_date              2012-12-11T17:02:20-0500
_audit_creation_method            fapswitch 2.2
_symmetry_space_group_name_H-M    P1
_symmetry_Int_Tables_number       1
_space_group_crystal_system       triclinic
_cell_length_a                    21.642693
_cell_length_b                    7.071873
_cell_length_c                    14.827018
_cell_angle_alpha                 89.888754
_cell_angle_beta                  106.183315
_cell_angle_gamma                 89.94745
_cell_volume                      2179.41052324

loop_
_atom_site_label
_atom_site_type_symbol
_atom_type_description
_atom_site_fract_x
_atom_site_fract_y
_atom_site_fract_z
_atom_type_partial_charge
O1    O     O_R   0.585850 0.505770 0.002130 -0.533999
O2    O     O_R   0.414150 0.005770 0.997870 -0.539509
O3    O     O_R   0.467530 0.173560 0.861970 -0.541013
O4    O     O_R   0.532470 0.673560 0.138030 -0.535313
C1    C     C_R   0.455830 0.344558 0.825179 0.785930
C2    C     C_R   0.544207 0.844403 0.174811 0.786815
O5    O     O_R   0.588690 0.175900 0.993250 -0.548042
O6    O     O_R   0.411310 0.675900 0.006750 -0.543178
O7    O     O_R   0.536170 0.007950 0.130090 -0.537708
O8    O     O_R   0.463830 0.507950 0.869910 -0.527979
C3    C     C_R   0.615039 0.344581 0.997631 0.713187
C4    C     C_R   0.384928 0.844758 0.002149 0.700608
O9    O     O_3   0.482630 0.339970 0.044740 -0.382139
O10   O     O_3   0.517370 0.839970 0.955260 -0.379468
V1    V     V_3+5 0.503220 0.064200 0.991700 1.481761
V2    V     V_3+5 0.496780 0.564200 0.008300 1.496078
C5    C     C_R   0.277766 0.011051 0.961153 0.097980
C6    C     C_R   0.707190 0.508245 0.956657 0.003971
C7    C     C_R   0.315706 0.853244 0.998175 -0.079230
C8    C     C_R   0.682914 0.352506 0.994402 -0.096890
C9    C     C_R   0.284929 0.700349 0.028594 -0.156888
C10   C     C_R   0.725432 0.200524 0.027369 -0.107927
H1    H     H_    0.312123 0.575792 0.057941 0.145765
H2    H     H_    0.708989 0.076622 0.056608 0.156840
C11   C     C_R   0.219729 0.711865 0.027513 -0.169849
C12   C     C_R   0.790859 0.212664 0.029399 -0.047217
H3    H     H_    0.198649 0.595696 0.055795 0.189872
H4    H     H_    0.822657 0.096820 0.059347 0.150367
C13   C     C_R   0.183267 0.876580 0.996314 -0.067328
C14   C     C_R   0.815812 0.377274 0.998673 -0.169603
C15   C     C_R   0.213333 0.022881 0.960899 0.075323
C16   C     C_R   0.771812 0.519985 0.958388 0.082636
C17   C     C_3   0.219919 0.226012 0.988274 0.438401
C18   C     C_3   0.773944 0.726520 0.978345 0.469369
C19   C     C_3   0.289648 0.214017 0.986807 -0.442653
C20   C     C_3   0.703413 0.713906 0.976180 -0.439014
H5    H     H_    0.189527 0.321686 0.934272 0.087208
H6    H     H_    0.806926 0.763818 0.047944 0.065371
H7    H     H_    0.324800 0.233034 0.056921 0.183198
H8    H     H_    0.670617 0.790792 0.916187 0.195188
H9    H     H_    0.299821 0.297904 0.929087 0.202736
H10   H     H_    0.694900 0.740266 0.045659 0.180068
C21   C     C_R   0.927173 0.889030 0.722982 -0.168414
C22   C     C_R   0.073101 0.380103 0.276700 -0.164002
C23   C     C_R   0.570910 0.854259 0.277015 -0.178043
C24   C     C_R   0.429291 0.350935 0.722846 -0.178415
C25   C     C_R   0.936528 0.953961 0.567417 -0.173579
C26   C     C_R   0.062288 0.315773 0.431499 -0.175110
C27   C     C_R   0.965047 0.932882 0.663369 0.602985
C28   C     C_R   0.034248 0.344489 0.335877 0.601994
C29   C     C_R   0.860690 0.865258 0.686347 -0.269526
C30   C     C_R   0.140019 0.388095 0.313284 -0.262893
C31   C     C_R   0.830104 0.894224 0.589589 0.078877
C32   C     C_R   0.169862 0.353846 0.409760 0.081600
C33   C     C_R   0.869593 0.937656 0.530339 -0.054040
C34   C     C_R   0.129485 0.318552 0.468668 -0.056920
C35   C     C_R   0.761809 0.886699 0.550231 -0.001689
C36   C     C_R   0.238169 0.350169 0.449253 -0.000021
C37   C     C_R   0.734788 0.906767 0.450945 -0.054906
C38   C     C_R   0.264691 0.327428 0.548479 -0.056162
C39   C     C_R   0.775752 0.965877 0.396540 0.695949
C40   C     C_R   0.222585 0.275825 0.602467 0.695516
C41   C     C_R   0.841898 0.975472 0.435453 -0.226671
C42   C     C_R   0.156341 0.276764 0.563337 -0.227381
C43   C     C_R   0.719414 0.870495 0.607164 -0.128843
C44   C     C_R   0.280840 0.358379 0.392456 -0.127444
C45   C     C_R   0.653158 0.873353 0.568457 -0.148939
C46   C     C_R   0.346930 0.345511 0.431232 -0.150283
C47   C     C_R   0.626494 0.877501 0.471414 0.022308
C48   C     C_R   0.373411 0.338345 0.528251 0.023522
C49   C     C_R   0.667024 0.881475 0.411088 -0.013210
C50   C     C_R   0.332835 0.342223 0.588527 -0.013815
C51   C     C_R   0.559383 0.874431 0.434388 -0.182539
C52   C     C_R   0.440452 0.329549 0.565301 -0.182881
C53   C     C_R   0.530996 0.868656 0.337390 0.066518
C54   C     C_R   0.468841 0.329238 0.662323 0.065801
C55   C     C_R   0.638041 0.852323 0.313943 0.599695
C56   C     C_R   0.362372 0.366871 0.685868 0.599227
H11   H     H_    0.871612 0.020590 0.391377 0.187024
H12   H     H_    0.125734 0.237598 0.607120 0.190719
H13   H     H_    0.622469 0.867643 0.615066 0.120136
H14   H     H_    0.377717 0.345142 0.384699 0.118361
H15   H     H_    0.966633 0.989193 0.522355 0.148612
H16   H     H_    0.031447 0.287004 0.476310 0.150170
H17   H     H_    0.834279 0.829107 0.735737 0.170134
H18   H     H_    0.167177 0.419638 0.264247 0.146592
H19   H     H_    0.735738 0.864528 0.682667 0.160335
H20   H     H_    0.264688 0.365314 0.316962 0.147457
H21   H     H_    0.528808 0.877077 0.481267 0.141677
H22   H     H_    0.470941 0.321200 0.518422 0.141555
O11   O     O_R   0.036080 0.231270 0.130120 -0.534492
O12   O     O_R   0.963920 0.731270 0.869880 -0.541323
O13   O     O_R   0.911300 0.558970 0.006750 -0.538014
O14   O     O_R   0.088700 0.058970 0.993250 -0.523415
C57   C     C_R   0.884865 0.389987 0.001914 0.729005
C58   C     C_R   0.115241 0.889899 0.998587 0.727885
O15   O     O_R   0.032450 0.561140 0.138040 -0.545535
O16   O     O_R   0.967550 0.061140 0.861960 -0.536215
O17   O     O_R   0.085870 0.728910 0.002130 -0.552444
O18   O     O_R   0.914130 0.228910 0.997870 -0.535848
C59   C     C_R   0.044907 0.392119 0.175097 0.785219
C60   C     C_R   0.955150 0.892962 0.824837 0.795647
O19   O     O_3   0.017320 0.394650 0.955270 -0.379790
O20   O     O_3   0.982680 0.894650 0.044730 -0.378963
V3    V     V_3+5 0.996780 0.670490 0.008300 1.516485
V4    V     V_3+5 0.003220 0.170490 0.991700 1.553706
F1    F     F_    0.029440 0.958996 0.698451 -0.695828
F2    F     F_    0.969320 0.334340 0.300736 -0.694552
F3    F     F_    0.752410 0.039443 0.309062 -0.632681
F4    F     F_    0.244415 0.199787 0.689647 -0.633378
F5    F     F_    0.214176 0.252383 0.078179 -0.708937
F6    F     F_    0.783245 0.830514 0.904027 -0.700303
F7    F     F_    0.673606 0.801431 0.255473 -0.651411
F8    F     F_    0.327923 0.423349 0.744886 -0.649182
C61   C     C_3   0.458537 0.872109 0.302121 -0.740641
H23   H     H_    0.440410 0.866838 0.224478 0.177210
H24   H     H_    0.438541 0.748787 0.331000 0.209688
H25   H     H_    0.440086 0.003907 0.326064 0.209654
C62   C     C_3   0.541087 0.311995 0.697516 -0.734685
H26   H     H_    0.559432 0.317803 0.775120 0.180265
H27   H     H_    0.556498 0.175434 0.673810 0.207834
H28   H     H_    0.563760 0.429312 0.668353 0.210272

loop_
_geom_bond_atom_site_label_1
_geom_bond_atom_site_label_2
_ccdc_geom_bond_type
C44   C46   A    
C2    C23   S    
C18   F6    S    
C20   H10   S    
O1    C3    A    
O2    C4    A    
C29   H17   S    
C2    O7    A    
C24   C54   A    
C25   C27   A    
C41   H11   S    
O5    C3    A    
C52   C54   A    
C7    C9    A    
C26   C28   A    
C44   H20   S    
C17   C19   S    
C35   C37   A    
C38   C50   A    
C36   C38   A    
C61   H23   S    
C58   O17   A    
C38   C40   A    
C47   C49   A    
C40   C42   A    
O13   V3    S    
C42   H12   S    
C36   C44   A    
C61   H24   S    
C33   C41   A    
C48   C52   A    
C50   C56   A    
C34   C42   A    
C47   C51   A    
C17   F5    S    
C22   C59   S    
C25   H15   S    
C18   C20   S    
O12   C60   A    
O15   V3    S    
C22   C30   A    
C31   C33   A    
C39   F3    S    
O6    V2    S    
C28   F2    S    
C51   C53   A    
O11   V4    S    
C56   F8    S    
O11   C59   A    
C55   F7    S    
O20   V4    S    
O20   V3    S    
C30   C32   A    
C43   H19   S    
C62   H27   S    
C11   C13   A    
O17   V3    S    
C32   C34   A    
C3    C8    S    
C37   C39   A    
C54   C62   S    
C20   H8    S    
C27   F1    S    
C24   C56   A    
C31   C35   A    
C57   O18   A    
C21   C27   A    
C43   C45   A    
O16   C60   A    
C17   H5    S    
C26   H16   S    
C29   C31   A    
C16   C18   S    
O4    V2    S    
C19   H7    S    
C14   C57   S    
C40   F4    S    
O6    C4    A    
C61   H25   S    
C15   C17   S    
O19   V3    S    
O1    V2    S    
O14   C58   A    
O2    V1    S    
O4    C2    A    
C8    C10   A    
C45   H13   S    
C9    H1    S    
C5    C15   A    
C10   H2    S    
C6    C16   A    
C49   C55   A    
O3    V1    S    
C25   C33   A    
C32   C36   A    
C62   H28   S    
C22   C28   A    
C26   C34   A    
C9    C11   A    
O14   V4    S    
C18   H6    S    
O18   V4    S    
C39   C41   A    
C35   C43   A    
O3    C1    A    
C13   C58   S    
C48   C50   A    
C62   H26   S    
C12   C14   A    
C11   H3    S    
C1    C24   S    
C12   H4    S    
O16   V4    S    
C23   C53   A    
C46   H14   S    
C52   H22   S    
C30   H18   S    
O7    V1    S    
C21   C60   S    
C51   H21   S    
C1    O8    A    
C13   C15   A    
O8    V2    S    
C14   C16   A    
C21   C29   A    
C4    C7    S    
O5    V1    S    
C5    C7    A    
O19   V4    S    
C6    C8    A    
C19   H9    S    
O12   V3    S    
C53   C61   S    
O13   C57   A    
C10   C12   A    
O9    V2    S    
C46   C48   A    
O10   V1    S    
C23   C55   A    
C5    C19   S    
C45   C47   A    
C6    C20   S    
O15   C59   A    
C37   C49   A    
