data_mof_unit_53206.cif
_audit_creation_date              2012-10-26T19:24:13-0400
_audit_creation_method            fapswitch 2.2
_symmetry_space_group_name_H-M    P1
_symmetry_Int_Tables_number       1
_space_group_crystal_system       triclinic
_cell_length_a                    27.833549
_cell_length_b                    10.889228
_cell_length_c                    9.559808
_cell_angle_alpha                 91.682233
_cell_angle_beta                  90.458875
_cell_angle_gamma                 92.72326
_cell_volume                      2892.79480451

loop_
_atom_site_label
_atom_site_type_symbol
_atom_type_description
_atom_site_fract_x
_atom_site_fract_y
_atom_site_fract_z
_atom_type_partial_charge
C1    C     C_R   0.502165 0.262006 0.497917 0.543850
C2    C     C_R   0.973319 0.404783 0.545927 0.018620
C3    C     C_R   0.976819 0.605803 0.432262 0.018631
C4    C     C_R   0.407581 0.497797 0.499360 0.555959
C5    C     C_R   0.949825 0.504551 0.487353 0.035287
C6    C     C_R   0.944765 0.302542 0.590660 -0.138945
C7    C     C_R   0.894884 0.301228 0.584704 -0.106673
C8    C     C_R   0.871441 0.401503 0.533816 0.029209
C9    C     C_R   0.898719 0.503170 0.484296 -0.025785
C10   C     C_R   0.874769 0.603601 0.432235 0.027138
C11   C     C_R   0.824267 0.601655 0.433577 0.410011
C12   C     C_R   0.276222 0.427008 0.403449 -0.026026
C13   C     C_R   0.821056 0.402569 0.531505 0.407945
C14   C     C_R   0.724097 0.520212 0.619843 0.041597
C15   C     C_R   0.673504 0.513693 0.626305 0.231937
C16   C     C_R   0.494880 0.736547 0.502658 0.547097
C17   C     C_R   0.669819 0.487350 0.372415 -0.197648
C18   C     C_R   0.719782 0.487986 0.367693 -0.084160
C19   C     C_R   0.747108 0.504251 0.490580 0.182680
C20   C     C_R   0.024312 0.409755 0.556810 0.018718
C21   C     C_R   0.051337 0.507812 0.495388 0.035994
C22   C     C_R   0.027877 0.604365 0.430007 0.018479
C23   C     C_R   0.254011 0.506175 0.499495 0.232137
C24   C     C_R   0.049438 0.320323 0.628524 -0.137616
C25   C     C_R   0.106456 0.694838 0.365414 -0.106029
C26   C     C_R   0.951568 0.705721 0.382171 -0.138368
C27   C     C_R   0.901616 0.704396 0.382316 -0.107009
C28   C     C_R   0.592659 0.500160 0.500638 0.542568
C29   C     C_R   0.056553 0.695979 0.363626 -0.137393
C30   C     C_R   0.542314 0.123694 0.728360 -0.104796
C31   C     C_R   0.545142 0.070527 0.858529 -0.165812
C32   C     C_R   0.519233 0.961219 0.882182 -0.077599
C33   C     C_R   0.494440 0.898240 0.772095 0.295907
C34   C     C_R   0.102436 0.509107 0.499106 -0.026279
C35   C     C_R   0.498639 0.942034 0.632891 0.000110
C36   C     C_R   0.514927 0.065221 0.617873 -0.026152
C37   C     C_R   0.503071 0.126377 0.494200 -0.031745
C38   C     C_R   0.484840 0.056684 0.376006 -0.051617
C39   C     C_R   0.476942 0.929342 0.383931 -0.068815
C40   C     C_R   0.176707 0.418991 0.569497 0.429240
C41   C     C_R   0.487476 0.870052 0.509106 -0.037026
C42   C     C_R   0.565499 0.660972 0.150479 -0.090104
C43   C     C_R   0.597352 0.739150 0.080765 -0.179715
C44   C     C_R   0.596865 0.739631 0.936718 -0.135522
C45   C     C_R   0.126253 0.416605 0.568044 0.026515
C46   C     C_R   0.564488 0.661998 0.861608 -0.015192
C47   C     C_R   0.532069 0.579009 0.928189 0.170119
C48   C     C_R   0.532346 0.578540 0.078011 0.156799
C49   C     C_R   0.468119 0.429026 0.070723 0.028841
C50   C     C_R   0.468556 0.427533 0.922664 0.020871
C51   C     C_R   0.180249 0.600504 0.435632 0.425339
C52   C     C_R   0.281813 0.581638 0.593511 0.317047
C53   C     C_R   0.332007 0.574556 0.594161 -0.145827
C54   C     C_R   0.326669 0.421789 0.402949 -0.060525
C55   C     C_1   0.348973 0.332813 0.311790 0.229206
C56   C     C_R   0.099357 0.323867 0.633784 -0.104974
C57   C     C_3   0.273500 0.778822 0.677007 -0.083755
C58   C     C_1   0.476106 0.111434 0.242162 0.244329
C59   C     C_1   0.246752 0.350923 0.306321 0.254796
C60   C     C_3   0.415689 0.840894 0.800136 -0.089745
C61   C     C_1   0.455290 0.860791 0.264312 0.234410
C62   C     C_3   0.648112 0.414870 0.820271 -0.091127
C63   C     C_1   0.752400 0.546022 0.745708 0.268118
C64   C     C_R   0.129838 0.602594 0.433436 0.027081
C65   C     C_R   0.354698 0.497428 0.498029 -0.053719
C66   C     C_R   0.645940 0.500314 0.500798 -0.001568
Cu1   Cu    Cu3+1 0.500000 0.499990 0.640660 0.972079
Cu2   Cu    Cu3+1 0.500000 0.500010 0.359340 0.964665
H1    H     H_    0.126691 0.766941 0.312632 0.171719
H2    H     H_    0.441524 0.372812 0.123656 0.169882
H3    H     H_    0.568330 0.670865 0.260945 0.186315
H4    H     H_    0.622244 0.800894 0.139323 0.135905
H5    H     H_    0.621321 0.801779 0.882463 0.142176
H6    H     H_    0.566287 0.671723 0.751712 0.193739
H7    H     H_    0.442838 0.367929 0.864607 0.137143
H8    H     H_    0.116816 0.252842 0.689527 0.170504
H9    H     H_    0.874718 0.220962 0.621054 0.170434
H10   H     H_    0.959825 0.220355 0.628472 0.112693
H11   H     H_    0.031598 0.247261 0.684668 0.114005
H12   H     H_    0.969313 0.788288 0.344874 0.112371
H13   H     H_    0.353475 0.629468 0.669624 0.125239
H14   H     H_    0.274047 0.806374 0.565644 0.153502
H15   H     H_    0.309181 0.799120 0.727241 0.089897
H16   H     H_    0.247376 0.836391 0.732227 0.168277
H17   H     H_    0.404070 0.852059 0.689843 0.100109
H18   H     H_    0.411445 0.927707 0.862591 0.138314
H19   H     H_    0.391505 0.769329 0.846181 0.154185
H20   H     H_    0.684062 0.387635 0.855943 0.132225
H21   H     H_    0.631140 0.340994 0.750956 0.110098
H22   H     H_    0.625234 0.423887 0.914162 0.137175
H23   H     H_    0.649859 0.475847 0.274807 0.145545
H24   H     H_    0.884092 0.783464 0.343317 0.169537
H25   H     H_    0.737421 0.476048 0.267963 0.154778
H26   H     H_    0.041592 0.768888 0.306166 0.114522
H27   H     H_    0.562062 0.210174 0.714736 0.138914
H28   H     H_    0.565339 0.117496 0.943075 0.126183
H29   H     H_    0.517669 0.925941 0.986865 0.153717
N1    N     N_R   0.202501 0.509341 0.502655 -0.370428
N2    N     N_R   0.798606 0.502501 0.483876 -0.395321
N3    N     N_R   0.500460 0.501210 0.147910 -0.246928
N4    N     N_R   0.500480 0.501290 0.852040 -0.244958
N5    N     N_1   0.366369 0.260768 0.239397 -0.284559
N6    N     N_1   0.469275 0.151965 0.133742 -0.316606
N7    N     N_1   0.223164 0.290220 0.228812 -0.249880
N8    N     N_1   0.438062 0.806555 0.169190 -0.263428
N9    N     N_1   0.775073 0.566667 0.846403 -0.272825
O1    O     O_R   0.500000 0.319640 0.618810 -0.513444
O2    O     O_R   0.569730 0.499970 0.618800 -0.492514
O3    O     O_R   0.569740 0.499990 0.381230 -0.540039
O4    O     O_2   0.199884 0.331343 0.636235 -0.479517
O5    O     O_3   0.258700 0.654067 0.691113 -0.532538
O6    O     O_3   0.463154 0.801618 0.806519 -0.535402
O7    O     O_3   0.651265 0.529138 0.754106 -0.566436
O8    O     O_2   0.794620 0.304873 0.577235 -0.498281
O9    O     O_2   0.206829 0.688086 0.370395 -0.497891
O10   O     O_2   0.800996 0.698476 0.386534 -0.485819
O11   O     O_R   0.500000 0.319660 0.381240 -0.486737
O12   O     O_R   0.430260 0.500010 0.618770 -0.492897
O13   O     O_R   0.430270 0.500030 0.381200 -0.484716
O14   O     O_R   0.500000 0.680340 0.618760 -0.474293
O15   O     O_R   0.500000 0.680360 0.381190 -0.519717

loop_
_geom_bond_atom_site_label_1
_geom_bond_atom_site_label_2
_ccdc_geom_bond_type
C10   C27   A    
C8    C13   A    
C56   H8    S    
C22   C29   A    
C35   C36   A    
C17   H23   S    
C16   O15   A    
C7    C8    A    
C39   C41   A    
C54   C65   A    
C31   C32   A    
C12   C23   A    
C26   C27   A    
C30   H27   S    
C47   N4    A    
C59   N7    T    
C11   N2    A    
C36   C37   A    
C16   O14   A    
Cu2   O13   S    
C40   N1    A    
C30   C31   A    
Cu1   O2    S    
C6    H10   S    
C31   H28   S    
C62   H21   S    
C32   H29   S    
C53   H13   S    
C18   C19   A    
C46   C47   A    
C4    C65   S    
C38   C58   S    
C12   C59   S    
C20   C24   A    
C45   C56   A    
C8    C9    A    
C57   H15   S    
C4    O13   A    
C53   C65   A    
C9    C10   A    
C13   O8    S    
C1    C37   S    
C7    H9    S    
C51   N1    A    
C21   C22   A    
C4    O12   A    
C2    C6    A    
C48   N3    A    
C60   H19   S    
C44   C46   A    
C25   C29   A    
C40   C45   A    
C39   C61   S    
C2    C20   A    
Cu1   Cu2   S    
C38   C39   A    
C62   O7    S    
C33   O6    S    
C19   N2    S    
C40   O4    S    
C21   C34   A    
C52   O5    S    
C15   C66   A    
C62   H20   S    
C26   H12   S    
C25   C64   A    
C13   N2    A    
C28   C66   S    
C43   C44   A    
Cu2   N3    S    
C5    C9    A    
C37   C38   A    
C60   O6    S    
Cu2   O11   S    
C24   H11   S    
C47   C48   A    
C55   N5    T    
C34   C64   A    
C17   C18   A    
C17   C66   A    
C57   H16   S    
C27   H24   S    
C34   C45   A    
C42   C48   A    
C63   N9    T    
C11   O10   S    
C1    O1    A    
C49   H2    S    
C29   H26   S    
C2    C5    A    
C25   H1    S    
C42   C43   A    
C46   H6    S    
C61   N8    T    
C52   C53   A    
Cu1   N4    S    
Cu1   O14   S    
C43   H4    S    
C54   C55   S    
C60   H18   S    
C15   O7    S    
C14   C15   A    
C14   C19   A    
C3    C26   A    
C51   C64   A    
C3    C5    A    
Cu2   O15   S    
C60   H17   S    
C6    C7    A    
C28   O3    A    
C24   C56   A    
C30   C36   A    
C32   C33   A    
C50   H7    S    
C49   N3    A    
Cu1   O1    S    
C23   C52   A    
C57   O5    S    
C28   O2    A    
C14   C63   S    
C62   H22   S    
C42   H3    S    
C33   C35   A    
Cu2   O3    S    
C44   H5    S    
C35   C41   A    
Cu1   O12   S    
C51   O9    S    
C10   C11   A    
C23   N1    S    
C20   C21   A    
C50   N4    A    
C49   C50   A    
C18   H25   S    
C57   H14   S    
C3    C22   A    
C58   N6    T    
C1    O11   A    
C16   C41   S    
C12   C54   A    
