data_mof_unit_53532.cif
_audit_creation_date              2012-12-10T17:45:28-0500
_audit_creation_method            fapswitch 2.2
_symmetry_space_group_name_H-M    P1
_symmetry_Int_Tables_number       1
_space_group_crystal_system       triclinic
_cell_length_a                    11.539415
_cell_length_b                    10.76658
_cell_length_c                    9.924073
_cell_angle_alpha                 89.994708
_cell_angle_beta                  89.354405
_cell_angle_gamma                 92.824756
_cell_volume                      1231.3906089

loop_
_atom_site_label
_atom_site_type_symbol
_atom_type_description
_atom_site_fract_x
_atom_site_fract_y
_atom_site_fract_z
_atom_type_partial_charge
Br1   Br    Br    0.569457 0.136663 0.204006 -0.557004
C1    C     C_R   0.498731 0.258533 0.499645 0.886359
C2    C     C_R   0.543460 0.871174 0.503027 -0.191211
C3    C     C_R   0.337025 0.346216 0.142805 -0.264244
C4    C     C_R   0.282123 0.500941 0.500658 0.891424
C5    C     C_R   0.248306 0.277411 0.074765 0.517089
C6    C     C_R   0.245771 0.285433 0.935527 -0.262828
C7    C     C_R   0.328355 0.358369 0.864928 -0.278384
C8    C     C_R   0.415768 0.429756 0.929796 0.191520
C9    C     C_R   0.417785 0.426771 0.073736 0.153197
C10   C     C_R   0.580020 0.568377 0.070416 -0.089768
C11   C     C_R   0.581005 0.566878 0.927427 -0.107164
C12   C     C_R   0.461879 0.041210 0.864120 -0.082919
C13   C     C_R   0.517153 0.738655 0.500389 0.891327
C14   C     C_R   0.717971 0.500223 0.499388 0.898649
C15   C     C_1   0.161653 0.501726 0.501876 -0.194474
C16   C     C_1   0.059450 0.501568 0.501152 -0.000548
C17   C     C_1   0.940752 0.500970 0.499356 0.004969
C18   C     C_1   0.838521 0.500526 0.498469 -0.170892
C19   C     C_R   0.445846 0.098346 0.740043 -0.143989
C20   C     C_3   0.142869 0.214831 0.271643 0.089244
C21   C     C_3   0.206337 0.125155 0.361388 -0.343013
C22   C     C_3   0.183731 0.149077 0.510650 -0.976832
C23   C     C_R   0.529849 0.938400 0.870692 -0.117590
C24   C     C_R   0.568639 0.885320 0.751387 -0.135695
C25   C     C_R   0.540826 0.936885 0.625278 0.105604
C26   C     C_R   0.498571 0.055573 0.621542 0.058478
C27   C     C_R   0.507053 0.123582 0.498585 -0.203792
C28   C     C_R   0.539579 0.061676 0.378313 0.260817
C29   C     C_R   0.549784 0.934816 0.381030 -0.233347
H1    H     H_    0.181495 0.229953 0.880174 0.183907
H2    H     H_    0.344975 0.331843 0.247767 0.208405
H3    H     H_    0.048144 0.195217 0.286313 0.181887
H4    H     H_    0.158293 0.313536 0.302065 0.126712
H5    H     H_    0.176428 0.028097 0.337075 0.241180
H6    H     H_    0.300931 0.134337 0.340730 0.230844
H7    H     H_    0.221763 0.241609 0.539950 0.246144
H8    H     H_    0.224756 0.077174 0.571640 0.269103
H9    H     H_    0.089067 0.144726 0.532899 0.277810
H10   H     H_    0.324972 0.349892 0.759028 0.213274
H11   H     H_    0.648124 0.620286 0.873245 0.131935
H12   H     H_    0.385965 0.169736 0.734594 0.146262
H13   H     H_    0.422030 0.076950 0.954401 0.183504
H14   H     H_    0.547342 0.896178 0.966895 0.153067
H15   H     H_    0.619400 0.804004 0.757839 0.141713
H16   H     H_    0.561085 0.885572 0.286879 0.190047
H17   H     H_    0.645333 0.624419 0.123159 0.139007
N1    N     N_R   0.498930 0.498800 0.142780 -0.100410
N2    N     N_R   0.498900 0.498720 0.857170 -0.108149
O1    O     O_R   0.500000 0.316780 0.614690 -0.629085
O2    O     O_R   0.499990 0.316750 0.385360 -0.584843
O3    O     O_R   0.334450 0.500030 0.614670 -0.626786
O4    O     O_R   0.334440 0.500000 0.385330 -0.633322
O5    O     O_R   0.500010 0.683250 0.614640 -0.619479
O6    O     O_R   0.500000 0.683220 0.385310 -0.618132
O7    O     O_R   0.665560 0.500000 0.614670 -0.615656
O8    O     O_R   0.665550 0.499970 0.385330 -0.600925
O9    O     O_3   0.169115 0.191466 0.134668 -0.639845
Zn1   Zn    Zn3+2 0.500010 0.500020 0.653130 0.948719
Zn2   Zn    Zn3+2 0.499990 0.499980 0.346870 0.968129

loop_
_geom_bond_atom_site_label_1
_geom_bond_atom_site_label_2
_ccdc_geom_bond_type
C2    C29   A    
C19   H12   S    
C10   C11   A    
C4    O3    A    
N1    Zn2   S    
C11   H11   S    
O2    Zn2   S    
C19   C26   A    
C22   H7    S    
C22   H8    S    
C21   H6    S    
C8    C9    A    
C5    O9    S    
C10   H17   S    
C7    H10   S    
N2    Zn1   S    
O7    Zn1   S    
C12   H13   S    
C14   O7    A    
Br1   C28   S    
C11   N2    A    
C25   C26   A    
C6    C7    A    
C3    H2    S    
C20   C21   S    
C14   C18   S    
C21   H5    S    
C14   O8    A    
C10   N1    A    
C28   C29   A    
C2    C13   S    
C22   H9    S    
O1    Zn1   S    
C4    O4    A    
C27   C28   A    
O3    Zn1   S    
O4    Zn2   S    
C13   O6    A    
C5    C6    A    
O5    Zn1   S    
C2    C25   A    
C9    N1    A    
C23   H14   S    
C3    C5    A    
C20   H3    S    
C1    O2    A    
C3    C9    A    
C24   H15   S    
C20   O9    S    
C8    N2    A    
C23   C24   A    
C16   C17   S    
C17   C18   T    
C26   C27   A    
C21   C22   S    
C15   C16   T    
O8    Zn2   S    
C1    C27   S    
C20   H4    S    
C1    O1    A    
C12   C19   A    
C13   O5    A    
C24   C25   A    
O6    Zn2   S    
C29   H16   S    
C6    H1    S    
C12   C23   A    
C7    C8    A    
C4    C15   S    
