data_mof_unit_13803.cif
_audit_creation_date              2012-10-26T18:50:04-0400
_audit_creation_method            fapswitch 2.2
_symmetry_space_group_name_H-M    P1
_symmetry_Int_Tables_number       1
_space_group_crystal_system       triclinic
_cell_length_a                    10.835938
_cell_length_b                    13.004325
_cell_length_c                    11.648505
_cell_angle_alpha                 99.8603
_cell_angle_beta                  93.734829
_cell_angle_gamma                 90.332926
_cell_volume                      1613.51628561

loop_
_atom_site_label
_atom_site_type_symbol
_atom_type_description
_atom_site_fract_x
_atom_site_fract_y
_atom_site_fract_z
_atom_type_partial_charge
C1    C     C_R   0.498180 0.299006 0.478619 0.549784
C2    C     C_R   0.495519 0.860668 0.433550 -0.128804
C3    C     C_R   0.503931 0.031313 0.556077 0.048630
C4    C     C_R   0.496069 0.968687 0.443923 0.048630
C5    C     C_R   0.374845 0.409884 0.022630 -0.132910
C6    C     C_R   0.625155 0.590116 0.977370 -0.132910
C7    C     C_R   0.387902 0.417451 0.144718 0.067094
C8    C     C_R   0.612097 0.582549 0.855282 0.067094
C9    C     C_R   0.555352 0.537637 0.156591 0.040234
C10   C     C_R   0.444648 0.462363 0.843409 0.040234
C11   C     C_R   0.545830 0.532360 0.033875 0.002014
C12   C     C_R   0.501820 0.700994 0.521381 0.549784
C13   C     C_R   0.454170 0.467640 0.966125 0.002014
C14   C     C_R   0.262554 0.512953 0.501524 0.545262
C15   C     C_R   0.737446 0.487047 0.498476 0.545262
C16   C     C_R   0.127729 0.574720 0.717800 -0.171554
C17   C     C_R   0.872271 0.425279 0.282200 -0.171553
C18   C     C_R   0.074579 0.565996 0.821542 -0.070326
C19   C     C_R   0.925420 0.434003 0.178458 -0.070325
C20   C     C_R   0.963428 0.511324 0.817893 0.407194
C21   C     C_R   0.036571 0.488675 0.182107 0.407194
C22   C     C_R   0.901597 0.472075 0.710978 -0.076707
C23   C     C_R   0.502689 0.814383 0.533759 0.000433
C24   C     C_R   0.098402 0.527924 0.289022 -0.076707
C25   C     C_R   0.946502 0.491789 0.605267 -0.045770
C26   C     C_R   0.053498 0.508211 0.394732 -0.045770
C27   C     C_R   0.068479 0.530639 0.608208 -0.003126
C28   C     C_R   0.931520 0.469360 0.391792 -0.003126
C29   C     C_R   0.873375 0.474143 0.497803 -0.021548
C30   C     C_R   0.126625 0.525856 0.502197 -0.021548
C31   C     C_R   0.497311 0.185617 0.466241 0.000434
C32   C     C_R   0.488859 0.015029 0.343896 -0.135505
C33   C     C_R   0.511141 0.984970 0.656104 -0.135505
C34   C     C_R   0.489462 0.123130 0.354989 -0.135094
C35   C     C_R   0.510538 0.876870 0.645011 -0.135094
C36   C     C_R   0.504481 0.139332 0.566450 -0.128804
Cu1   Cu    Cu3+1 0.509250 0.507730 0.615930 0.928655
Cu2   Cu    Cu3+1 0.490750 0.492270 0.384070 0.928655
F1    F     F_    0.087821 0.500717 0.082245 -0.623700
F2    F     F_    0.912178 0.499282 0.917754 -0.623700
H1    H     H_    0.303190 0.359430 0.972995 0.122467
H2    H     H_    0.483842 0.157671 0.276583 0.129312
H3    H     H_    0.482791 0.967819 0.257433 0.105565
H4    H     H_    0.517209 0.032181 0.742567 0.105565
H5    H     H_    0.374847 0.412429 0.790328 0.127111
H6    H     H_    0.625153 0.587571 0.209672 0.127111
H7    H     H_    0.673807 0.627171 0.812514 0.137986
H8    H     H_    0.326193 0.372828 0.187485 0.137986
H9    H     H_    0.489507 0.812874 0.347332 0.122796
H10   H     H_    0.510493 0.187126 0.652667 0.122796
H11   H     H_    0.696810 0.640569 0.027004 0.122467
H12   H     H_    0.212911 0.619682 0.724447 0.148043
H13   H     H_    0.787089 0.380317 0.275554 0.148043
H14   H     H_    0.120883 0.600290 0.904502 0.184629
H15   H     H_    0.879115 0.399709 0.095498 0.184629
H16   H     H_    0.819270 0.425150 0.712476 0.160637
H17   H     H_    0.180729 0.574848 0.287524 0.160638
H18   H     H_    0.516158 0.842329 0.723416 0.129312
N1    N     N_R   0.523180 0.519350 0.790130 -0.241932
N2    N     N_R   0.476820 0.480650 0.209870 -0.241932
O1    O     O_R   0.506570 0.354460 0.582000 -0.508881
O2    O     O_R   0.493430 0.645540 0.418000 -0.508881
O3    O     O_R   0.490940 0.341410 0.386200 -0.511494
O4    O     O_R   0.509060 0.658590 0.613800 -0.511494
O5    O     O_R   0.327470 0.506520 0.597900 -0.505931
O6    O     O_R   0.672530 0.493480 0.402100 -0.505931
O7    O     O_R   0.311840 0.493460 0.402100 -0.514565
O8    O     O_R   0.688160 0.506540 0.597900 -0.514565

loop_
_geom_bond_atom_site_label_1
_geom_bond_atom_site_label_2
_ccdc_geom_bond_type
Cu1   O1    S    
C14   O7    A    
C10   C13   A    
C15   C29   S    
Cu1   Cu2   S    
C2    H9    S    
Cu2   O2    S    
C6    H11   S    
C25   C27   A    
C11   C13   A    
C5    C13   A    
C34   H2    S    
C20   C22   A    
C9    N2    A    
C7    H8    S    
C10   H5    S    
C6    C8    A    
C10   N1    A    
C8    H7    S    
C14   C30   S    
C9    H6    S    
C3    C33   A    
C4    C32   A    
C15   O6    A    
C27   C30   A    
C9    C11   A    
C12   C23   S    
Cu1   N1    S    
C3    C36   A    
C16   C27   A    
C35   H18   S    
Cu2   N2    S    
C2    C4    A    
C1    O3    A    
Cu1   O5    S    
C28   C29   A    
C33   C35   A    
C14   O5    A    
C24   C26   A    
C26   C30   A    
C18   H14   S    
C23   C35   A    
C6    C11   A    
C8    N1    A    
C25   C29   A    
C20   F2    S    
C31   C34   A    
C12   O2    A    
C15   O8    A    
C3    C4    A    
Cu1   O8    S    
C17   H13   S    
C7    N2    A    
C1    C31   S    
Cu1   O4    S    
C36   H10   S    
Cu2   O7    S    
Cu2   O6    S    
C18   C20   A    
C16   C18   A    
Cu2   O3    S    
C21   C24   A    
C19   H15   S    
C2    C23   A    
C5    C7    A    
C12   O4    A    
C5    H1    S    
C31   C36   A    
C22   H16   S    
C17   C19   A    
C19   C21   A    
C17   C28   A    
C26   C28   A    
C21   F1    S    
C32   H3    S    
C16   H12   S    
C32   C34   A    
C24   H17   S    
C33   H4    S    
C22   C25   A    
C1    O1    A    
