data_mof_unit_51388.cif
_audit_creation_date              2012-12-11T17:17:07-0500
_audit_creation_method            fapswitch 2.2
_symmetry_space_group_name_H-M    P1
_symmetry_Int_Tables_number       1
_space_group_crystal_system       triclinic
_cell_length_a                    8.567247
_cell_length_b                    16.297449
_cell_length_c                    18.891221
_cell_angle_alpha                 97.882384
_cell_angle_beta                  93.183394
_cell_angle_gamma                 93.672757
_cell_volume                      2601.86044422

loop_
_atom_site_label
_atom_site_type_symbol
_atom_type_description
_atom_site_fract_x
_atom_site_fract_y
_atom_site_fract_z
_atom_type_partial_charge
Ba1   Ba    Ba6+2 0.843980 0.537940 0.465850 1.577206
Ba2   Ba    Ba6+2 0.345840 0.462130 0.534150 1.589455
C1    C     C_3   0.705345 0.817329 0.243415 -0.165484
C2    C     C_3   0.618630 0.747987 0.277659 0.375747
C3    C     C_3   0.603664 0.330150 0.308814 0.249240
C4    C     C_3   0.552316 0.317829 0.228752 -0.196414
C5    C     C_3   0.105461 0.259454 0.725806 0.330470
C6    C     C_3   0.196225 0.241502 0.794289 -0.196075
C7    C     C_3   0.535807 0.236215 0.665327 0.342866
C8    C     C_3   0.516571 0.144994 0.675390 -0.369693
C9    C     C_2   0.311090 0.494072 0.291233 -0.260749
C10   C     C_3   0.431163 0.509199 0.238481 0.010972
C11   C     C_2   0.361793 0.523718 0.166182 -0.134673
C12   C     C_3   0.056564 0.693709 0.269876 0.313744
C13   C     C_2   0.208543 0.501605 0.146184 -0.072368
C14   C     C_2   0.104846 0.474502 0.202469 -0.161962
C15   C     C_1   0.163032 0.471404 0.269298 0.030086
C16   C     C_R   0.048239 0.494261 0.927375 0.450580
C17   C     C_R   0.148426 0.501674 0.069181 0.441227
C18   C     C_R   0.089063 0.519136 0.797966 -0.138792
C19   C     C_R   0.043456 0.505363 0.723617 0.119333
C20   C     C_R   0.806614 0.427160 0.749607 0.021792
C21   C     C_R   0.852209 0.441258 0.823095 -0.144205
C22   C     C_R   0.996701 0.484805 0.848562 -0.087784
C23   C     C_3   0.027129 0.702999 0.189886 -0.208936
C24   C     C_R   0.909693 0.452500 0.700097 -0.248846
C25   C     C_R   0.388202 0.726532 0.462246 -0.194105
C26   C     C_R   0.533333 0.754393 0.500276 0.087973
C27   C     C_R   0.578302 0.839944 0.512452 -0.139962
C28   C     C_R   0.475702 0.898570 0.492365 0.241516
C29   C     C_R   0.323851 0.870342 0.464064 -0.195393
C30   C     C_R   0.279455 0.785304 0.448099 0.012862
C31   C     C_R   0.611957 0.146657 0.484907 -0.151364
C32   C     C_R   0.671629 0.227037 0.477786 -0.001155
C33   C     C_R   0.705661 0.092893 0.518964 0.249172
C34   C     C_3   0.165202 0.736900 0.656042 0.289226
C35   C     C_R   0.828162 0.253106 0.501998 -0.210513
C36   C     C_R   0.914791 0.204435 0.543168 0.026187
C37   C     C_R   0.854588 0.123957 0.550188 -0.166063
C38   C     C_3   0.180683 0.825111 0.704008 -0.024807
C39   C     C_3   0.133116 0.284949 0.292272 0.247023
C40   C     C_3   0.107316 0.190985 0.290909 -0.174534
C41   C     C_3   0.719253 0.681844 0.696014 0.291080
C42   C     C_3   0.652938 0.704777 0.770683 -0.184772
H1    H     H_    0.675277 0.748447 0.332237 0.059722
H2    H     H_    0.259927 0.819296 0.751566 0.098149
H3    H     H_    0.249010 0.306936 0.319047 0.078224
H4    H     H_    0.126807 0.299520 0.236409 -0.014377
H5    H     H_    0.122179 0.175815 0.346408 0.120106
H6    H     H_    0.985498 0.170147 0.269709 0.107624
H7    H     H_    0.846023 0.698231 0.699621 0.066694
H8    H     H_    0.830419 0.809275 0.248225 0.138238
H9    H     H_    0.731694 0.683813 0.812408 0.075243
H10   H     H_    0.536454 0.670668 0.771688 0.110941
H11   H     H_    0.694975 0.879781 0.273735 0.078239
H12   H     H_    0.587979 0.395795 0.330445 0.055992
H13   H     H_    0.727680 0.316491 0.315266 0.081072
H14   H     H_    0.422948 0.319250 0.222542 0.066815
H15   H     H_    0.602777 0.370852 0.204091 0.094959
H16   H     H_    0.079897 0.651219 0.157583 0.078851
H17   H     H_    0.126928 0.326632 0.721706 0.061871
H18   H     H_    0.153506 0.180149 0.808185 0.097309
H19   H     H_    0.321180 0.237816 0.783861 0.164382
H20   H     H_    0.634636 0.244495 0.630962 -0.040166
H21   H     H_    0.429324 0.252900 0.636977 0.134094
H22   H     H_    0.481101 0.106503 0.623249 0.117229
H23   H     H_    0.424702 0.134248 0.712748 0.129875
H24   H     H_    0.966772 0.646272 0.281506 0.108974
H25   H     H_    0.628675 0.124666 0.696794 0.100467
H26   H     H_    0.441730 0.542761 0.127879 0.111927
H27   H     H_    0.982617 0.454821 0.187723 0.113053
H28   H     H_    0.194373 0.558257 0.816334 0.105151
H29   H     H_    0.773049 0.419364 0.860296 0.105574
H30   H     H_    0.357857 0.480470 0.342544 0.045034
H31   H     H_    0.873792 0.440750 0.643684 0.053858
H32   H     H_    0.494381 0.126204 0.462858 0.110325
H33   H     H_    0.242378 0.914890 0.450730 0.091045
H34   H     H_    0.690724 0.860618 0.540179 0.104727
H35   H     H_    0.171703 0.668207 0.277473 -0.044809
H36   H     H_    0.925029 0.084716 0.578792 0.087330
H37   H     H_    0.899570 0.693685 0.175419 0.136311
H38   H     H_    0.073089 0.734002 0.612017 0.059726
N1    N     N_R   0.193017 0.528856 0.952275 -0.246137
N2    N     N_R   0.241626 0.532396 0.021240 -0.251228
N3    N     N_R   0.002990 0.467811 0.044489 -0.248174
N4    N     N_R   0.954461 0.464101 0.975418 -0.249301
N5    N     N_2   0.520636 0.985374 0.496624 -0.238362
N6    N     N_2   0.658248 0.007236 0.520622 -0.238715
O1    O     O_2   0.875590 0.454550 0.328720 -0.461236
O2    O     O_3   0.647206 0.727178 0.646754 -0.651980
O3    O     O_3   0.046156 0.768441 0.316732 -0.629997
O4    O     O_2   0.314110 0.545480 0.671320 -0.490196
O5    O     O_3   0.061730 0.544170 0.583900 -0.502897
O6    O     O_3   0.555240 0.398120 0.628310 -0.484452
O7    O     O_3   0.131816 0.675062 0.699745 -0.665163
O8    O     O_3   0.629280 0.402460 0.464250 -0.487367
O9    O     O_3   0.140510 0.356300 0.593010 -0.492256
O10   O     O_2   0.231781 0.209447 0.535439 -0.487238
O11   O     O_3   0.161095 0.209923 0.666532 -0.614503
O12   O     O_3   0.127960 0.455900 0.416100 -0.482245
O13   O     O_3   0.560420 0.597610 0.535760 -0.509244
O14   O     O_2   0.379340 0.302240 0.465940 -0.429134
O15   O     O_3   0.512102 0.275936 0.343661 -0.669194
O16   O     O_2   0.482041 0.440073 0.761415 -0.482881
O17   O     O_3   0.560113 0.286407 0.732255 -0.619907
O18   O     O_3   0.634460 0.601950 0.371690 -0.496694
O19   O     O_2   0.744206 0.537351 0.251254 -0.480316
O20   O     O_3   0.015595 0.322664 0.330608 -0.656313
O21   O     O_3   0.633285 0.671609 0.233942 -0.616626
O22   O     O_2   0.810360 0.697790 0.534100 -0.464180
O23   O     O_3   0.049190 0.643760 0.407000 -0.488333
O24   O     O_2   0.949048 0.791173 0.448374 -0.480511
P1    P     P_3+3 0.048660 0.430750 0.339650 0.955223
P2    P     P_3+3 0.638170 0.686040 0.555200 0.955689
P3    P     P_3+3 0.080257 0.750085 0.406054 0.938978
P4    P     P_3+3 0.141040 0.569320 0.660360 0.954809
P5    P     P_3+3 0.109659 0.246482 0.585472 0.920590
P6    P     P_3+3 0.601793 0.583262 0.277207 0.912444
P7    P     P_3+3 0.548950 0.299647 0.436617 0.930806
P8    P     P_3+3 0.601439 0.389426 0.718300 0.927603
C43   C     C_3   0.257284 0.896910 0.668747 -0.444764
H39   H     H_    0.386506 0.894214 0.669280 0.115815
H40   H     H_    0.208235 0.894715 0.612781 0.129648
H41   H     H_    0.237738 0.958395 0.699092 0.134354
C44   C     C_3   0.025710 0.852091 0.734166 -0.191307
C45   C     C_3   0.909167 0.877314 0.677721 -0.381925
H42   H     H_    0.953636 0.935230 0.658479 0.123909
H43   H     H_    0.888123 0.827958 0.631293 0.157994
H44   H     H_    0.796052 0.889893 0.701144 0.127469
H45   H     H_    0.974307 0.802418 0.761704 0.114356
H46   H     H_    0.051478 0.906434 0.776640 0.096514
C46   C     C_3   0.220744 0.143610 0.244159 -0.491396
H47   H     H_    0.342278 0.157071 0.267918 0.171824
H48   H     H_    0.190484 0.075836 0.240705 0.131981
H49   H     H_    0.213418 0.160771 0.189218 0.126198
C47   C     C_3   0.696126 0.588779 0.676132 -0.262561
H50   H     H_    0.774799 0.567214 0.633964 0.079199
H51   H     H_    0.720604 0.561691 0.725116 0.003161
H52   H     H_    0.574909 0.569075 0.657434 0.183508
C48   C     C_3   0.630966 0.796986 0.792669 -0.397313
H53   H     H_    0.744955 0.832802 0.806807 0.116171
H54   H     H_    0.564926 0.823340 0.750022 0.147891
H55   H     H_    0.562731 0.804247 0.841150 0.111426
C49   C     C_3   0.444785 0.762862 0.282907 -0.189513
C50   C     C_3   0.407339 0.854131 0.300894 -0.477061
H56   H     H_    0.284556 0.858352 0.314978 0.167465
H57   H     H_    0.420527 0.888265 0.254528 0.127471
H58   H     H_    0.485591 0.885858 0.346431 0.139325
H59   H     H_    0.382556 0.734312 0.232002 0.114136
H60   H     H_    0.401789 0.728454 0.324584 0.053403
C51   C     C_3   0.600502 0.235663 0.188577 -0.200742
C52   C     C_3   0.762245 0.245725 0.159425 -0.435081
H61   H     H_    0.759901 0.287577 0.117707 0.144946
H62   H     H_    0.849966 0.272388 0.203027 0.144468
H63   H     H_    0.797714 0.184284 0.135238 0.122095
H64   H     H_    0.599896 0.186495 0.223940 0.132884
H65   H     H_    0.514049 0.214362 0.142621 0.111859
C53   C     C_3   0.655450 0.817273 0.164107 -0.394907
H66   H     H_    0.529595 0.827766 0.156296 0.123481
H67   H     H_    0.724747 0.867683 0.143371 0.107060
H68   H     H_    0.676360 0.757248 0.131948 0.158947
C54   C     C_3   0.930438 0.237312 0.729977 -0.356035
H69   H     H_    0.866348 0.261551 0.686113 0.051128
H70   H     H_    0.906311 0.168883 0.724321 0.111761
H71   H     H_    0.886375 0.265638 0.781024 0.095743
C55   C     C_3   0.186961 0.309396 0.858464 -0.249004
C56   C     C_3   0.285350 0.291480 0.923680 -0.388487
H72   H     H_    0.410575 0.289288 0.911584 0.146230
H73   H     H_    0.275624 0.341483 0.969149 0.146295
H74   H     H_    0.242972 0.231306 0.939736 0.122541
H75   H     H_    0.063950 0.313792 0.873188 0.124747
H76   H     H_    0.231994 0.370013 0.844186 0.154814
C57   C     C_3   0.343309 0.635534 0.437669 -0.241865
H77   H     H_    0.301061 0.627569 0.380922 0.036791
H78   H     H_    0.432006 0.591976 0.434801 0.160974
H79   H     H_    0.258641 0.610877 0.472930 0.142295
C58   C     C_3   0.908705 0.329077 0.479477 -0.214309
H80   H     H_    0.031468 0.318521 0.467347 0.148908
H81   H     H_    0.855609 0.342587 0.428743 0.114544
H82   H     H_    0.903635 0.383406 0.521266 0.125641
C59   C     C_3   0.091177 0.785130 0.166630 -0.187675
C60   C     C_3   0.048829 0.786793 0.087263 -0.441106
H83   H     H_    0.101931 0.735471 0.054137 0.154917
H84   H     H_    0.919996 0.780199 0.075818 0.135920
H85   H     H_    0.094603 0.846739 0.071935 0.122358
H86   H     H_    0.045878 0.839759 0.198374 0.138536
H87   H     H_    0.219614 0.792687 0.173666 0.119556
C61   C     C_3   0.318779 0.721369 0.625555 -0.263015
H88   H     H_    0.396258 0.709345 0.670681 0.142868
H89   H     H_    0.307593 0.666491 0.584328 0.068581
H90   H     H_    0.364617 0.774358 0.601551 0.023704

loop_
_geom_bond_atom_site_label_1
_geom_bond_atom_site_label_2
_ccdc_geom_bond_type
C53   H67   S    
N5    N6    D    
C3    O15   S    
C55   H76   S    
C45   H42   S    
C39   O20   S    
C32   C35   A    
C39   C40   S    
C4    H14   S    
C3    H12   S    
C33   C37   A    
C48   H55   S    
C19   C24   A    
C25   C57   S    
C50   H56   S    
C59   H87   S    
C15   P1    S    
C5    C6    S    
C56   H73   S    
C57   H77   S    
C38   H2    S    
C38   C43   S    
C49   H59   S    
C5    O11   S    
C61   H90   S    
C16   C22   S    
C51   H65   S    
C18   H28   S    
C26   C27   A    
C35   C36   A    
C48   H54   S    
C47   H52   S    
N3    N4    A    
C3    C4    S    
C11   H26   S    
Ba2   O14   S    
C7    O17   S    
C13   C14   S    
C7    H20   S    
C61   H89   S    
Ba1   Ba2   S    
C60   H83   S    
C5    H17   S    
C43   H41   S    
C49   H60   S    
O8    P7    S    
C53   H68   S    
C36   P5    S    
C1    H11   S    
C44   H45   S    
C27   H34   S    
C18   C22   A    
Ba2   O9    S    
C34   H38   S    
C46   H47   S    
C58   H81   S    
C1    C53   S    
Ba1   O1    S    
C51   C52   S    
O17   P8    S    
C23   H16   S    
C7    C8    S    
O22   P2    D    
O19   P6    D    
Ba1   O18   S    
C57   H78   S    
Ba2   O12   S    
C55   H75   S    
C42   C48   S    
O18   P6    S    
C23   H37   S    
O13   P2    S    
C55   C56   S    
C14   H27   S    
Ba1   P1    S    
C21   H29   S    
C19   P4    S    
C42   H9    S    
Ba1   O12   S    
C50   H57   S    
C23   C59   S    
O21   P6    S    
C29   H33   S    
C56   H74   S    
C54   H70   S    
C2    H1    S    
C8    H22   S    
C36   C37   A    
C5    C54   S    
O1    P1    D    
C41   O2    S    
C46   H49   S    
C34   C38   S    
C59   H86   S    
C48   H53   S    
C47   H51   S    
C56   H72   S    
C14   C15   D    
C40   H5    S    
C45   H44   S    
C59   C60   S    
C61   H88   S    
C34   C61   S    
C60   H85   S    
O20   P1    S    
C13   C17   S    
C41   C42   S    
C27   C28   A    
Ba1   O22   S    
O11   P5    S    
C54   H71   S    
C33   N6    S    
C44   H46   S    
C31   H32   S    
C29   C30   A    
C52   H63   S    
Ba2   O6    S    
O7    P4    S    
C21   C22   A    
C58   H82   S    
C7    H21   S    
C16   N1    A    
C39   H3    S    
C16   N4    A    
C51   H64   S    
C52   H61   S    
Ba2   O4    S    
O4    P4    D    
C43   H39   S    
C26   P2    S    
C40   H6    S    
C46   H48   S    
C10   P6    S    
C4    C51   S    
Ba1   O5    S    
C52   H62   S    
C11   C13   D    
C53   H66   S    
N1    N2    A    
Ba1   P2    S    
C17   N2    A    
Ba1   O13   S    
C50   H58   S    
O10   P5    D    
C54   H69   S    
C57   H79   S    
C32   P7    S    
C28   C29   A    
C9    C15   D    
C45   H43   S    
C25   C30   A    
C4    H15   S    
Ba2   O5    S    
O15   P7    S    
O12   P1    S    
C49   C50   S    
C17   N3    A    
C9    H30   S    
C20   P8    S    
C2    C49   S    
O23   P3    S    
C1    H8    S    
C2    O21   S    
C35   C58   S    
O6    P8    S    
Ba2   O13   S    
C3    H13   S    
C37   H36   S    
Ba2   O8    S    
C8    H23   S    
C12   C23   S    
Ba1   O23   S    
C34   O7    S    
C41   H7    S    
C44   C45   S    
Ba1   O8    S    
C38   C44   S    
C6    C55   S    
C31   C33   A    
C39   H4    S    
C31   C32   A    
Ba2   P4    S    
O2    P2    S    
C30   P3    S    
O9    P5    S    
C41   C47   S    
C60   H84   S    
C12   O3    S    
C43   H40   S    
C12   H35   S    
C6    H19   S    
C8    H25   S    
C42   H10   S    
O3    P3    S    
C18   C19   A    
C24   H31   S    
C58   H80   S    
C20   C24   A    
C25   C26   A    
C12   H24   S    
C20   C21   A    
C47   H50   S    
C40   C46   S    
C10   C11   S    
C28   N5    S    
O5    P4    S    
O24   P3    D    
O14   P7    D    
C1    C2    S    
C9    C10   S    
C6    H18   S    
O16   P8    D    
