data_mof_unit_23152.cif
_audit_creation_date              2012-10-26T20:48:41-0400
_audit_creation_method            fapswitch 2.2
_symmetry_space_group_name_H-M    P1
_symmetry_Int_Tables_number       1
_space_group_crystal_system       triclinic
_cell_length_a                    15.176299
_cell_length_b                    13.834945
_cell_length_c                    9.091935
_cell_angle_alpha                 90.203227
_cell_angle_beta                  90.996395
_cell_angle_gamma                 90.379544
_cell_volume                      1908.62899605

loop_
_atom_site_label
_atom_site_type_symbol
_atom_type_description
_atom_site_fract_x
_atom_site_fract_y
_atom_site_fract_z
_atom_type_partial_charge
C1    C     C_R   0.329600 0.499350 0.493537 0.584984
C2    C     C_R   0.554868 0.892613 0.597282 -0.153193
C3    C     C_R   0.499890 0.499891 0.220440 0.549468
C4    C     C_R   0.500100 0.500100 0.779559 0.552161
C5    C     C_R   0.499767 0.054278 0.500206 0.022339
C6    C     C_R   0.499848 0.945079 0.500272 0.023997
C7    C     C_1   0.499957 0.499837 0.065477 -0.065818
C8    C     C_1   0.500031 0.500123 0.934537 -0.066393
C9    C     C_R   0.097959 0.570366 0.382458 0.268410
C10   C     C_R   0.899357 0.419995 0.396798 0.249373
C11   C     C_R   0.909306 0.582730 0.497921 0.231852
C12   C     C_R   0.670398 0.500332 0.495391 0.580532
C13   C     C_R   0.091997 0.414716 0.506150 0.234673
C14   C     C_R   0.188019 0.577767 0.416540 0.190829
C15   C     C_R   0.810053 0.415802 0.432575 0.186351
C16   C     C_R   0.817024 0.586906 0.497662 0.196973
C17   C     C_R   0.184300 0.411177 0.502485 0.185631
C18   C     C_R   0.232852 0.496755 0.473575 -0.087132
C19   C     C_R   0.766969 0.500826 0.477874 -0.086662
C20   C     C_R   0.048190 0.493963 0.442064 -0.012112
C21   C     C_R   0.950960 0.499251 0.444166 -0.020194
C22   C     C_3   0.037074 0.600578 0.155249 0.006062
C23   C     C_R   0.519374 0.209370 0.626263 0.041015
C24   C     C_3   0.116557 0.599998 0.052440 -0.255605
C25   C     C_3   0.105095 0.523926 0.931517 -0.507178
C26   C     C_3   0.909858 0.352142 0.167179 0.027143
C27   C     C_3   0.868763 0.256423 0.114980 -0.236912
C28   C     C_3   0.830973 0.264508 0.958854 -0.502504
C29   C     C_3   0.961145 0.680069 0.687349 0.031770
C30   C     C_3   0.939853 0.785880 0.719754 -0.248633
C31   C     C_3   0.951943 0.809893 0.882714 -0.498446
C32   C     C_3   0.056492 0.321320 0.706377 0.026760
C33   C     C_3   0.040906 0.214504 0.741363 -0.243035
C34   C     C_R   0.446363 0.789859 0.404360 0.035160
C35   C     C_3   0.073627 0.189419 0.895900 -0.492715
C36   C     C_3   0.215396 0.736508 0.475660 0.049220
C37   C     C_3   0.196201 0.828654 0.388892 -0.246775
C38   C     C_3   0.186303 0.915470 0.491146 -0.499590
C39   C     C_3   0.781619 0.266656 0.525722 0.033884
C40   C     C_3   0.746635 0.165919 0.485527 -0.252221
C41   C     C_3   0.755832 0.096185 0.614404 -0.495068
C42   C     C_3   0.754825 0.719790 0.388650 0.038593
C43   C     C_3   0.828412 0.787628 0.337526 -0.262469
C44   C     C_3   0.797525 0.849554 0.208222 -0.509220
C45   C     C_R   0.480918 0.208475 0.373667 0.018699
C46   C     C_3   0.247786 0.275183 0.407066 0.046623
C47   C     C_3   0.172232 0.210462 0.350281 -0.262001
C48   C     C_3   0.202724 0.145797 0.225012 -0.516193
C49   C     C_R   0.553556 0.791042 0.595844 0.035438
C50   C     C_R   0.518848 0.107822 0.628978 -0.149831
C51   C     C_R   0.444902 0.891397 0.403206 -0.152949
C52   C     C_R   0.480802 0.106904 0.371292 -0.161920
Cu1   Cu    Cu3+1 0.500000 0.596430 0.500000 0.947570
Cu2   Cu    Cu3+1 0.500000 0.403570 0.500000 0.955476
H1    H     H_    0.535713 0.248032 0.726479 0.125101
H2    H     H_    0.007569 0.527166 0.163529 0.115202
H3    H     H_    0.124419 0.672560 0.002270 0.144414
H4    H     H_    0.178293 0.583632 0.114227 0.201988
H5    H     H_    0.111104 0.450495 0.979602 0.136643
H6    H     H_    0.156904 0.533354 0.847866 0.145141
H7    H     H_    0.039394 0.529987 0.877155 0.120218
H8    H     H_    0.969477 0.366492 0.101533 0.108535
H9    H     H_    0.862696 0.412010 0.142356 0.110963
H10   H     H_    0.919215 0.198669 0.119342 0.150901
H11   H     H_    0.814540 0.235224 0.188223 0.209711
H12   H     H_    0.403962 0.749754 0.328932 0.155022
H13   H     H_    0.772724 0.312695 0.957481 0.150904
H14   H     H_    0.810185 0.191922 0.918591 0.138266
H15   H     H_    0.880815 0.294395 0.883660 0.135094
H16   H     H_    0.029476 0.665705 0.726400 0.124132
H17   H     H_    0.915587 0.632749 0.750803 0.116986
H18   H     H_    0.983584 0.833606 0.654831 0.158624
H19   H     H_    0.870470 0.800649 0.686915 0.194217
H20   H     H_    0.907976 0.763724 0.949415 0.143697
H21   H     H_    0.934864 0.886763 0.902075 0.140858
H22   H     H_    0.021472 0.798724 0.918167 0.143686
H23   H     H_    0.464988 0.246495 0.273306 0.123569
H24   H     H_    0.007763 0.365714 0.765842 0.098673
H25   H     H_    0.123488 0.342264 0.747778 0.168587
H26   H     H_    0.969608 0.197063 0.729939 0.140098
H27   H     H_    0.076552 0.168611 0.662113 0.181688
H28   H     H_    0.146690 0.194129 0.901102 0.155776
H29   H     H_    0.053181 0.114509 0.923504 0.139993
H30   H     H_    0.046338 0.239960 0.977931 0.145069
H31   H     H_    0.274672 0.748452 0.547049 0.147656
H32   H     H_    0.158735 0.722479 0.549890 0.136087
H33   H     H_    0.250587 0.843121 0.311628 0.151273
H34   H     H_    0.596341 0.751872 0.670691 0.142472
H35   H     H_    0.134310 0.818754 0.323320 0.207385
H36   H     H_    0.133233 0.901993 0.571264 0.144158
H37   H     H_    0.168696 0.980110 0.425472 0.146070
H38   H     H_    0.249237 0.930200 0.551612 0.153895
H39   H     H_    0.748215 0.292676 0.626411 0.132779
H40   H     H_    0.853663 0.260432 0.549894 0.167972
H41   H     H_    0.676212 0.170555 0.451502 0.195674
H42   H     H_    0.784061 0.136785 0.391537 0.151901
H43   H     H_    0.825936 0.090781 0.650498 0.138503
H44   H     H_    0.732229 0.023312 0.579801 0.148539
H45   H     H_    0.532755 0.071940 0.732225 0.087281
H46   H     H_    0.715706 0.121102 0.708045 0.139755
H47   H     H_    0.695013 0.763602 0.406947 0.164353
H48   H     H_    0.736979 0.667225 0.299246 0.116270
H49   H     H_    0.849496 0.836119 0.429291 0.176774
H50   H     H_    0.885854 0.744524 0.302493 0.210817
H51   H     H_    0.775580 0.802930 0.114665 0.144945
H52   H     H_    0.852700 0.896259 0.171681 0.148096
H53   H     H_    0.742189 0.896566 0.241514 0.149579
H54   H     H_    0.304576 0.228256 0.435029 0.168198
H55   H     H_    0.269823 0.324336 0.317557 0.117019
H56   H     H_    0.399964 0.927205 0.327921 0.084895
H57   H     H_    0.148477 0.164085 0.440694 0.178451
H58   H     H_    0.116878 0.255749 0.309456 0.208801
H59   H     H_    0.227951 0.190531 0.133574 0.144650
H60   H     H_    0.146557 0.101035 0.183505 0.150716
H61   H     H_    0.255926 0.096945 0.264214 0.144442
H62   H     H_    0.466960 0.070311 0.268045 0.088786
H63   H     H_    0.599722 0.929296 0.672828 0.086851
H64   H     H_    0.984737 0.645789 0.104577 0.125706
N1    N     N_R   0.500000 0.258690 0.500000 -0.219028
N2    N     N_R   0.500000 0.741310 0.500000 -0.233122
O1    O     O_R   0.371460 0.581430 0.500010 -0.473529
O2    O     O_3   0.936278 0.345218 0.317393 -0.527039
O3    O     O_3   0.958278 0.664663 0.533439 -0.533158
O4    O     O_3   0.044296 0.335158 0.553413 -0.529168
O5    O     O_3   0.233529 0.660244 0.376219 -0.553542
O6    O     O_3   0.763848 0.330567 0.407832 -0.541719
O7    O     O_3   0.777341 0.674949 0.524370 -0.555705
O8    O     O_3   0.225419 0.324982 0.537745 -0.546071
O9    O     O_R   0.628540 0.418570 0.499990 -0.457988
O10   O     O_R   0.628540 0.581430 0.499990 -0.483393
O11   O     O_R   0.371460 0.418570 0.500010 -0.474674
O12   O     O_R   0.500000 0.581420 0.288390 -0.506285
O13   O     O_R   0.500000 0.418580 0.711610 -0.513378
O14   O     O_R   0.500000 0.581420 0.711610 -0.502966
O15   O     O_R   0.500000 0.418580 0.288390 -0.514338
O16   O     O_3   0.059444 0.640774 0.294669 -0.525615

loop_
_geom_bond_atom_site_label_1
_geom_bond_atom_site_label_2
_ccdc_geom_bond_type
C38   H38   S    
C32   O4    S    
C36   O5    S    
C4    C8    S    
C34   H12   S    
Cu1   N2    S    
C7    C8    T    
C44   H51   S    
C15   C19   A    
Cu2   O11   S    
C34   C51   A    
C29   C30   S    
C14   O5    S    
C12   O10   A    
C46   O8    S    
C36   C37   S    
C28   H14   S    
C3    C7    S    
C10   C15   A    
C23   N1    A    
C30   C31   S    
C47   H57   S    
C49   N2    A    
C47   H58   S    
C50   H45   S    
C22   H64   S    
C14   C18   A    
C43   H50   S    
C39   H39   S    
C48   H60   S    
C35   H28   S    
C28   H15   S    
C24   H3    S    
C15   O6    S    
C46   H54   S    
C5    C52   A    
C25   H6    S    
C6    C51   A    
C3    O15   A    
C45   N1    A    
C39   O6    S    
Cu2   N1    S    
C49   H34   S    
C2    C6    A    
C40   H42   S    
C42   H48   S    
C2    H63   S    
C43   H49   S    
C52   H62   S    
C10   C21   A    
C34   N2    A    
C12   O9    A    
C3    O12   A    
C28   H13   S    
C24   C25   S    
C39   C40   S    
C13   O4    S    
C35   H29   S    
C31   H20   S    
C22   H2    S    
C45   C52   A    
C36   H32   S    
Cu1   Cu2   S    
Cu2   O13   S    
C38   H37   S    
C11   C21   A    
C22   O16   S    
C26   H9    S    
C39   H40   S    
C37   C38   S    
C27   H11   S    
C2    C49   A    
C11   C16   A    
C9    C20   A    
C31   H21   S    
C47   C48   S    
C17   C18   A    
C26   C27   S    
C41   H46   S    
C33   H26   S    
Cu1   O12   S    
C25   H7    S    
C42   O7    S    
C48   H61   S    
C10   O2    S    
C40   C41   S    
C51   H56   S    
C43   C44   S    
C22   C24   S    
C5    C50   A    
C42   C43   S    
C40   H41   S    
C42   H47   S    
C4    O14   A    
C29   H16   S    
C44   H53   S    
C30   H19   S    
Cu2   O9    S    
C46   C47   S    
C13   C20   A    
C37   H33   S    
C11   O3    S    
Cu1   O14   S    
C23   C50   A    
C30   H18   S    
C35   H30   S    
C17   O8    S    
C23   H1    S    
C1    C18   S    
C44   H52   S    
C36   H31   S    
C25   H5    S    
C38   H36   S    
C37   H35   S    
C32   C33   S    
C26   H8    S    
Cu1   O1    S    
C32   H25   S    
C31   H22   S    
C5    C6    S    
C16   C19   A    
C1    O11   A    
Cu2   O15   S    
C29   O3    S    
C12   C19   S    
C33   C35   S    
C9    C14   A    
C41   H43   S    
C16   O7    S    
C1    O1    A    
C27   H10   S    
C32   H24   S    
C13   C17   A    
C9    O16   S    
C20   C21   S    
C24   H4    S    
C46   H55   S    
C27   C28   S    
C41   H44   S    
C4    O13   A    
C45   H23   S    
Cu1   O10   S    
C26   O2    S    
C33   H27   S    
C48   H59   S    
C29   H17   S    
