data_mof_unit_19542.cif
_audit_creation_date              2012-12-10T17:24:14-0500
_audit_creation_method            fapswitch 2.2
_symmetry_space_group_name_H-M    P1
_symmetry_Int_Tables_number       1
_space_group_crystal_system       triclinic
_cell_length_a                    10.204372
_cell_length_b                    10.600522
_cell_length_c                    16.756205
_cell_angle_alpha                 92.675007
_cell_angle_beta                  76.950828
_cell_angle_gamma                 94.108914
_cell_volume                      1760.3346482

loop_
_atom_site_label
_atom_site_type_symbol
_atom_type_description
_atom_site_fract_x
_atom_site_fract_y
_atom_site_fract_z
_atom_type_partial_charge
Br1   Br    Br    0.581088 0.260315 0.719461 -0.462377
Br2   Br    Br    0.854685 0.638296 0.588838 -0.436950
Br3   Br    Br    0.245171 0.594538 0.294074 -0.480051
Br4   Br    Br    0.394581 0.798142 0.925083 -0.580030
Br5   Br    Br    0.852585 0.561542 0.045463 -0.622868
Br6   Br    Br    0.687091 0.137771 0.368188 -0.456818
Br7   Br    Br    0.410016 0.849151 0.366684 -0.419247
Br8   Br    Br    0.248714 0.053581 0.529528 -0.407796
Br9   Br    Br    0.705027 0.954123 0.542728 -0.363256
Br10  Br    Br    0.135391 0.339776 0.427364 -0.402889
C1    C     C_R   0.554999 0.733709 0.492854 0.895973
C2    C     C_R   0.518011 0.500255 0.344151 0.924336
C3    C     C_R   0.475180 0.510987 0.742170 -0.196657
C4    C     C_R   0.533949 0.533633 0.257129 -0.217141
C5    C     C_R   0.528654 0.416246 0.779102 0.217665
C6    C     C_R   0.432062 0.599349 0.233610 0.277679
C7    C     C_R   0.540802 0.433958 0.860437 -0.076345
C8    C     C_R   0.462761 0.665824 0.160776 -0.086907
C9    C     C_R   0.505095 0.548833 0.902907 -0.004077
C10   C     C_R   0.585707 0.650248 0.104699 -0.025322
C11   C     C_R   0.449430 0.642407 0.866421 0.280122
C12   C     C_R   0.446580 0.266282 0.498882 0.923307
C13   C     C_R   0.684966 0.581608 0.125068 0.251370
C14   C     C_R   0.429597 0.621240 0.786943 -0.123396
C15   C     C_R   0.658952 0.520687 0.200190 -0.123027
C16   C     C_2   0.510744 0.562696 0.988874 -0.154175
C17   C     C_2   0.584901 0.655249 0.017912 -0.085886
C18   C     C_R   0.752714 0.425195 0.209681 0.188399
C19   C     C_R   0.868843 0.460156 0.239195 -0.060039
C20   C     C_R   0.965251 0.371964 0.237265 -0.135819
C21   C     C_R   0.948169 0.250036 0.204217 -0.052857
C22   C     C_R   0.833571 0.215235 0.173866 -0.093393
C23   C     C_2   0.583357 0.868242 0.482441 0.025528
C24   C     C_R   0.735502 0.302072 0.177205 -0.098885
C25   C     C_R   0.355350 0.712842 0.753372 0.153548
C26   C     C_R   0.420939 0.825276 0.719572 -0.099274
C27   C     C_R   0.346010 0.918640 0.698397 -0.085796
C28   C     C_R   0.205844 0.899695 0.710623 -0.055484
C29   C     C_R   0.140755 0.786268 0.741916 -0.138292
C30   C     C_R   0.215129 0.693113 0.763583 -0.077801
C31   C     C_R   0.365420 0.751761 0.142179 0.194123
C32   C     C_R   0.245923 0.703778 0.120198 -0.061289
C33   C     C_R   0.151364 0.786437 0.108716 -0.052777
C34   C     C_2   0.423769 0.131652 0.483587 0.029163
C35   C     C_R   0.176259 0.917110 0.117711 -0.070349
C36   C     C_R   0.295902 0.965464 0.138120 -0.122348
C37   C     C_R   0.390537 0.883221 0.149986 -0.072171
C38   C     C_R   0.593621 0.333318 0.900570 0.144659
C39   C     C_R   0.508346 0.229719 0.933457 -0.119963
C40   C     C_R   0.557985 0.135823 0.972395 -0.111630
C41   C     C_R   0.692498 0.144993 0.978916 -0.139503
C42   C     C_R   0.777777 0.248073 0.946337 -0.096183
C43   C     C_R   0.728661 0.342011 0.907092 -0.051372
C44   C     C_2   0.515398 0.929799 0.437696 0.204836
C45   C     C_2   0.524519 0.065683 0.437785 0.224188
C46   C     C_2   0.925549 0.510012 0.508595 0.254653
C47   C     C_2   0.071421 0.482949 0.496772 0.290795
C48   C     C_R   0.481951 0.501661 0.654674 0.941368
H1    H     H_    0.647653 0.725222 0.978691 0.195149
H2    H     H_    0.528869 0.841988 0.712263 0.187150
H3    H     H_    0.396276 0.006473 0.673858 0.192522
H4    H     H_    0.147155 0.973129 0.696505 0.190288
H5    H     H_    0.032405 0.771615 0.750935 0.171150
H6    H     H_    0.163332 0.607112 0.790328 0.147557
H7    H     H_    0.225404 0.602684 0.113178 0.144686
H8    H     H_    0.058929 0.749359 0.092691 0.179995
H9    H     H_    0.103055 0.980841 0.108579 0.120650
H10   H     H_    0.315202 0.066697 0.144930 0.131991
H11   H     H_    0.482281 0.921792 0.166616 0.144728
H12   H     H_    0.457752 0.488795 0.029192 0.149637
H13   H     H_    0.403786 0.222018 0.929042 0.147342
H14   H     H_    0.492255 0.055993 0.997522 0.176730
H15   H     H_    0.730536 0.072312 0.009269 0.133384
H16   H     H_    0.881840 0.255290 0.951623 0.157396
H17   H     H_    0.795412 0.421529 0.881975 0.164434
H18   H     H_    0.118175 0.628812 0.568460 0.196640
H19   H     H_    0.885727 0.381484 0.423706 0.211082
H20   H     H_    0.885377 0.555669 0.262399 0.159868
H21   H     H_    0.054148 0.398183 0.260416 0.195657
H22   H     H_    0.023682 0.182573 0.202212 0.142469
H23   H     H_    0.820539 0.120923 0.148012 0.129699
H24   H     H_    0.648138 0.274795 0.152228 0.132496
N1    N     N_2   0.846390 0.448330 0.467170 -0.183922
N2    N     N_2   0.153610 0.551670 0.532830 -0.183895
O1    O     O_R   0.430310 0.692580 0.506610 -0.583258
O2    O     O_R   0.569690 0.307420 0.493390 -0.566078
O3    O     O_R   0.652740 0.659410 0.485540 -0.556791
O4    O     O_R   0.347260 0.340590 0.514460 -0.550682
O5    O     O_R   0.375640 0.518570 0.627580 -0.628331
O6    O     O_R   0.624360 0.481430 0.372420 -0.620901
O7    O     O_R   0.598070 0.485390 0.606510 -0.538033
O8    O     O_R   0.401930 0.514610 0.393490 -0.525412
Zn1   Zn    Zn3+2 0.351480 0.522150 0.514070 1.064818
Zn2   Zn    Zn3+2 0.648520 0.477850 0.485930 1.068512

loop_
_geom_bond_atom_site_label_1
_geom_bond_atom_site_label_2
_ccdc_geom_bond_type
C31   C32   A    
C25   C26   A    
C7    C38   S    
Br6   C45   S    
H18   N2    S    
C21   H22   S    
C35   C36   A    
C15   C18   S    
C22   H23   S    
C16   C17   D    
C19   C20   A    
C2    O6    A    
C18   C19   A    
C9    C11   A    
C42   H16   S    
C28   C29   A    
H19   N1    S    
O3    Zn2   S    
C46   C47   S    
C9    C16   S    
C40   H14   S    
C37   H11   S    
O2    Zn2   S    
C44   C45   S    
O1    Zn1   S    
C12   C34   S    
C19   H20   S    
C1    O3    A    
C35   H9    S    
C32   H7    S    
Br1   C5    S    
C12   O4    A    
C48   O7    A    
C12   O2    A    
C18   C24   A    
Br9   C23   S    
C43   H17   S    
O6    Zn2   S    
C38   C43   A    
C14   C25   S    
C41   C42   A    
C41   H15   S    
C1    C23   S    
Br10  C47   S    
C8    C31   S    
C29   C30   A    
O4    Zn1   S    
C3    C48   S    
N1    Zn2   S    
C3    C14   A    
C22   C24   A    
C36   H10   S    
C27   C28   A    
C21   C22   A    
Br5   C13   S    
C10   C13   A    
C40   C41   A    
C31   C37   A    
C47   N2    D    
C33   C35   A    
C20   H21   S    
C38   C39   A    
C2    C4    S    
C3    C5    A    
C16   H12   S    
C4    C6    A    
C32   C33   A    
C42   C43   A    
C46   N1    D    
C23   C44   D    
C5    C7    A    
C36   C37   A    
C26   C27   A    
C2    O8    A    
Br8   C34   S    
C26   H2    S    
C27   H3    S    
C10   C17   S    
C29   H5    S    
C30   H6    S    
C25   C30   A    
C17   H1    S    
O7    Zn2   S    
Br4   C11   S    
C34   C45   D    
C20   C21   A    
C1    O1    A    
C33   H8    S    
O8    Zn1   S    
C7    C9    A    
C8    C10   A    
N2    Zn1   S    
C13   C15   A    
C4    C15   A    
O5    Zn1   S    
C48   O5    A    
C6    C8    A    
C39   C40   A    
C39   H13   S    
C11   C14   A    
Br2   C46   S    
C24   H24   S    
Br7   C44   S    
Br3   C6    S    
C28   H4    S    
