data_mof_unit_9133.cif
_audit_creation_date              2013-03-05T16:05:40-0500
_audit_creation_method            fapswitch 2.2
_symmetry_space_group_name_H-M    P1
_symmetry_Int_Tables_number       1
_space_group_crystal_system       triclinic
_cell_length_a                    10.643812
_cell_length_b                    14.984758
_cell_length_c                    15.472614
_cell_angle_alpha                 82.554186
_cell_angle_beta                  89.555291
_cell_angle_gamma                 104.320431
_cell_volume                      2368.92411304

loop_
_atom_site_label
_atom_site_type_symbol
_atom_site_description
_atom_site_fract_x
_atom_site_fract_y
_atom_site_fract_z
_atom_type_partial_charge
O1    O     O_R   0.462770 0.383110 0.605620 -0.622556
O2    O     O_R   0.510160 0.531900 0.639510 -0.622108
C1    C     C_R   0.484968 0.442096 0.662125 0.856361
O3    O     O_R   0.661510 0.425600 0.483070 -0.629209
O4    O     O_R   0.708900 0.574390 0.516960 -0.628837
C2    C     C_R   0.741891 0.500299 0.501080 0.841177
Zn1   Zn    Zn3+2 0.468350 0.400660 0.477370 0.963634
Zn2   Zn    Zn3+2 0.531650 0.599340 0.522630 0.930000
O5    O     O_R   0.489840 0.468100 0.360490 -0.607695
O6    O     O_R   0.537230 0.616890 0.394380 -0.624981
O7    O     O_R   0.291100 0.425610 0.483040 -0.579907
O8    O     O_R   0.338490 0.574400 0.516930 -0.633506
C3    C     C_R   0.521622 0.558020 0.337817 0.892474
C4    C     C_R   0.257774 0.499547 0.500062 0.851175
C5    C     C_3   0.896983 0.414306 0.561369 -0.388426
H1    H     H_    0.841691 0.349286 0.537830 0.199726
H2    H     H_    0.859565 0.413939 0.628860 0.155314
C6    C     C_3   0.041240 0.414853 0.562591 -0.371378
H3    H     H_    0.075254 0.419144 0.630163 0.153614
H4    H     H_    0.054723 0.348255 0.544858 0.224337
H5    H     H_    0.867356 0.435386 0.381489 0.218334
C7    C     C_3   0.925808 0.498348 0.406775 -0.441739
C8    C     C_3   0.959332 0.589891 0.534717 -0.406449
C9    C     C_3   0.878454 0.500993 0.501148 0.124868
H6    H     H_    0.925438 0.593414 0.602206 0.181851
C10   C     C_3   0.120844 0.499566 0.499971 0.049253
C11   C     C_3   0.071222 0.500011 0.405115 0.190484
C12   C     C_3   0.101976 0.589108 0.534351 -0.449954
H7    H     H_    0.137267 0.592406 0.601754 0.200076
H8    H     H_    0.158570 0.652689 0.492362 0.181221
H9    H     H_    0.910733 0.559541 0.362881 0.135131
H10   H     H_    0.124608 0.566862 0.366266 0.082531
C13   C     C_R   0.497387 0.408623 0.753873 -0.060361
C14   C     C_R   0.554395 0.592400 0.245616 -0.055338
C15   C     C_R   0.504680 0.286887 0.871423 -0.202710
C16   C     C_R   0.483870 0.314316 0.784166 -0.203375
C17   C     C_R   0.534723 0.474781 0.810474 -0.266398
C18   C     C_R   0.561849 0.449513 0.896778 0.091608
C19   C     C_R   0.541151 0.353732 0.928344 0.174805
C20   C     C_R   0.599320 0.517098 0.953806 0.071942
C21   C     C_R   0.590391 0.487193 0.044402 0.070180
C22   C     C_R   0.575725 0.391597 0.074361 -0.214402
C23   C     C_R   0.554158 0.326155 0.016592 -0.229388
C24   C     C_R   0.642911 0.613398 0.923536 -0.228741
C25   C     C_R   0.661115 0.678780 0.981285 -0.232231
C26   C     C_R   0.631295 0.650161 0.069927 0.177688
C27   C     C_R   0.593993 0.553960 0.101744 0.086692
C28   C     C_R   0.635165 0.716253 0.127043 -0.201006
C29   C     C_R   0.597723 0.687450 0.214860 -0.202853
C30   C     C_R   0.551653 0.527010 0.188791 -0.228965
H11   H     H_    0.541887 0.253411 0.041670 0.148524
H12   H     H_    0.602177 0.739188 0.258319 0.159960
H13   H     H_    0.693044 0.752010 0.955984 0.143542
H14   H     H_    0.490885 0.213576 0.894621 0.136592
H15   H     H_    0.457028 0.262099 0.740785 0.157425
H16   H     H_    0.538168 0.546289 0.786938 0.162535
H17   H     H_    0.583233 0.365904 0.142120 0.152369
H18   H     H_    0.666136 0.639817 0.855482 0.141186
H19   H     H_    0.665617 0.789979 0.103580 0.137190
N1    N     N_R   0.573860 0.731700 0.552730 -0.098559
N2    N     N_R   0.426060 0.268290 0.447230 -0.112393
C31   C     C_R   0.692212 0.842770 0.637471 -0.316955
C32   C     C_R   0.660814 0.753585 0.614923 0.011467
C33   C     C_R   0.514635 0.793654 0.510613 -0.064850
C34   C     C_R   0.541954 0.885572 0.530426 -0.003072
C35   C     C_R   0.633177 0.909184 0.595341 0.181897
C36   C     C_R   0.482680 0.954051 0.488416 0.081184
C37   C     C_R   0.516546 0.045755 0.512135 0.084643
C38   C     C_R   0.608291 0.065891 0.577026 -0.230140
C39   C     C_R   0.665041 0.998702 0.617706 -0.206852
C40   C     C_R   0.390815 0.933876 0.423606 -0.238911
C41   C     C_R   0.334197 0.001076 0.382836 -0.204864
C42   C     C_R   0.366301 0.090650 0.405031 0.168814
C43   C     C_R   0.457449 0.114275 0.469987 0.002000
C44   C     C_R   0.307600 0.157113 0.362655 -0.305765
C45   C     C_R   0.339304 0.246381 0.384951 0.045227
C46   C     C_R   0.484941 0.206264 0.489629 -0.064845
H20   H     H_    0.734834 0.017143 0.667170 0.143256
H21   H     H_    0.551920 0.231337 0.537879 0.125671
H22   H     H_    0.294922 0.298600 0.352771 0.198078
H23   H     H_    0.264377 0.982615 0.333391 0.144744
H24   H     H_    0.761931 0.859697 0.687257 0.141390
H25   H     H_    0.705588 0.701390 0.646850 0.125666
H26   H     H_    0.447543 0.768574 0.462435 0.125633
H27   H     H_    0.639094 0.133190 0.598325 0.135163
H28   H     H_    0.359821 0.866541 0.402417 0.134670
H29   H     H_    0.237939 0.140169 0.312840 0.159199
H30   H     H_    0.511819 0.454587 0.212838 0.168137
N3    N     N_R   0.095228 0.423769 0.361807 0.213133
O9    O     O_R   0.033601 0.337771 0.387552 -0.420158
O10   O     O_R   0.173820 0.442606 0.293353 -0.422653
H31   H     H_    0.948071 0.653259 0.492384 0.188761

loop_
_geom_bond_atom_site_label_1
_geom_bond_atom_site_label_2
_geom_bond_distance
_ccdc_geom_bond_type
C5    C6    1.533713 S    
C20   C21   1.410252 A    
C39   H20   1.084456 S    
C42   C43   1.419192 A    
C15   C16   1.395208 A    
C6    C10   1.550641 S    
C35   C39   1.389682 A    
C25   C26   1.392555 A    
Zn1   O7    2.015355 S    
C10   C11   1.563430 S    
C17   C18   1.392444 A    
N1    C32   1.354843 A    
C12   H7    1.114196 S    
C18   C19   1.416782 A    
O7    C4    1.300491 A    
C1    C13   1.461322 S    
C37   C43   1.423901 A    
C5    H1    1.113520 S    
C13   C16   1.401472 A    
Zn1   O5    1.936388 S    
C6    H3    1.113594 S    
C21   C22   1.416832 A    
O5    C3    1.305081 A    
Zn1   N2    2.038581 S    
C17   H16   1.077655 S    
C33   H26   1.074710 S    
C24   H18   1.079858 S    
C37   C38   1.414462 A    
C34   C36   1.423823 A    
C43   C46   1.410137 A    
C8    C9    1.550598 S    
N3    O10   1.301234 A    
C36   C40   1.414419 A    
C41   H23   1.084469 S    
C30   H30   1.077599 S    
C31   H24   1.083892 S    
C25   H13   1.083984 S    
H5    C7    1.113261 S    
C15   H14   1.083690 S    
C42   C44   1.398967 A    
O3    Zn1   2.001418 S    
C22   H17   1.079669 S    
C27   C30   1.392758 A    
C46   H21   1.074814 S    
N2    C45   1.354576 A    
C26   C28   1.403826 A    
C14   C30   1.394113 A    
C7    H9    1.113950 S    
C31   C35   1.399196 A    
C36   C37   1.428511 A    
O3    C2    1.293595 A    
N2    C46   1.350373 A    
C19   C23   1.392595 A    
C13   C17   1.393994 A    
C32   H25   1.082026 S    
O1    C1    1.304473 A    
C15   C19   1.404017 A    
C44   C45   1.385755 A    
C31   C32   1.386037 A    
C40   H28   1.075706 S    
Zn2   O8    2.001418 S    
C29   H12   1.083001 S    
C2    C9    1.451015 S    
C21   C27   1.414648 A    
C8    C12   1.521190 S    
C4    C10   1.457538 S    
C44   H29   1.083863 S    
C5    C9    1.552528 S    
O8    C4    1.291114 A    
C7    C11   1.541751 S    
C7    C9    1.549597 S    
C22   C23   1.390064 A    
C38   H27   1.075792 S    
C24   C25   1.389775 A    
C28   H19   1.083707 S    
C5    H2    1.113598 S    
C26   C27   1.417028 A    
C28   C29   1.394934 A    
C14   C29   1.401339 A    
C11   H10   1.115676 S    
O1    Zn1   1.966108 S    
O2    Zn2   1.936387 S    
C45   H22   1.081158 S    
C41   C42   1.389498 A    
O6    C3    1.304440 A    
O4    Zn2   2.015354 S    
C10   C12   1.562130 S    
N1    C33   1.350184 A    
C33   C34   1.410093 A    
C12   H8    1.114566 S    
O2    C1    1.305070 A    
C3    C14   1.461221 S    
C16   H15   1.083012 S    
Zn2   N1    2.038232 S    
C18   C20   1.414405 A    
C23   H11   1.083966 S    
O4    C2    1.295571 A    
C11   N3    1.469584 S    
C6    H4    1.110404 S    
C8    H6    1.114100 S    
C38   C39   1.384635 A    
C20   C24   1.416769 A    
C40   C41   1.384404 A    
Zn2   O6    1.966108 S    
C34   C35   1.419186 A    
C8    H31   1.114162 S    
N3    O9    1.301657 A    
