data_mof_unit_33486.cif
_audit_creation_date              2012-12-10T17:38:19-0500
_audit_creation_method            fapswitch 2.2
_symmetry_space_group_name_H-M    P1
_symmetry_Int_Tables_number       1
_space_group_crystal_system       triclinic
_cell_length_a                    12.314991
_cell_length_b                    13.152592
_cell_length_c                    19.321494
_cell_angle_alpha                 77.597005
_cell_angle_beta                  101.380189
_cell_angle_gamma                 116.564698
_cell_volume                      2715.42972103

loop_
_atom_site_label
_atom_site_type_symbol
_atom_type_description
_atom_site_fract_x
_atom_site_fract_y
_atom_site_fract_z
_atom_type_partial_charge
C1    C     C_R   0.854897 0.286532 0.505413 0.779959
C2    C     C_R   0.998879 0.498976 0.146049 0.052516
C3    C     C_R   0.268741 0.031710 0.422654 0.293261
C4    C     C_R   0.000410 0.500720 0.632391 0.793561
C5    C     C_R   0.228152 0.835903 0.476982 -0.087731
C6    C     C_R   0.816900 0.082883 0.543656 -0.188489
C7    C     C_R   0.738919 0.966981 0.553144 -0.143748
C8    C     C_R   0.615037 0.930405 0.529345 -0.169638
C9    C     C_R   0.566595 0.009803 0.492856 0.100826
C10   C     C_R   0.649359 0.125362 0.475235 0.061387
C11   C     C_R   0.439154 0.978631 0.473668 0.017838
C12   C     C_R   0.004089 0.505304 0.708167 -0.057432
C13   C     C_R   0.396625 0.060670 0.432477 0.048826
C14   C     C_R   0.483543 0.167803 0.402753 -0.051928
C15   C     C_R   0.607569 0.198462 0.424864 -0.260951
C16   C     C_R   0.145215 0.713777 0.489981 0.820693
C17   C     C_R   0.352737 0.868244 0.496175 -0.241867
C18   C     C_R   0.186023 0.918257 0.442439 -0.258697
C19   C     C_R   0.773137 0.163515 0.506225 -0.093827
C20   C     C_R   0.346835 0.328188 0.613455 -0.293293
C21   C     C_R   0.759286 0.645479 0.403792 0.092931
C22   C     C_R   0.662525 0.677062 0.382692 -0.228028
C23   C     C_R   0.000477 0.501348 0.069735 0.411888
C24   C     C_R   0.559093 0.622111 0.418799 -0.165141
C25   C     C_R   0.551208 0.534348 0.476908 0.011906
C26   C     C_R   0.652944 0.504991 0.496653 0.313124
C27   C     C_R   0.446960 0.475011 0.516242 -0.038669
C28   C     C_R   0.000012 0.499827 0.367566 0.780967
C29   C     C_R   0.446926 0.387973 0.574079 0.161964
C30   C     C_R   0.546579 0.360694 0.592342 -0.293005
C31   C     C_R   0.647229 0.418052 0.554729 -0.191906
C32   C     C_R   0.341903 0.497771 0.501082 0.013402
C33   C     C_R   0.246828 0.354830 0.595875 0.074651
C34   C     C_R   0.009722 0.511320 0.929377 0.448372
C35   C     C_R   0.109253 0.513544 0.755245 -0.217824
C36   C     C_R   0.116854 0.521700 0.827256 -0.004979
C37   C     C_R   0.013924 0.516117 0.853133 -0.017570
C38   C     C_R   0.909595 0.509336 0.805454 -0.161404
C39   C     C_R   0.904872 0.504579 0.733603 -0.181946
C40   C     C_2   0.450725 0.246524 0.344282 0.892490
C41   C     C_3   0.238887 0.188728 0.447948 -0.661739
C42   C     C_2   0.235656 0.542306 0.871961 0.851781
C43   C     C_R   0.074020 0.459291 0.197903 -0.142352
C44   C     C_R   0.074739 0.459806 0.270042 -0.183253
C45   C     C_R   0.999553 0.499103 0.291570 -0.037948
C46   C     C_R   0.923557 0.537690 0.239811 -0.173440
C47   C     C_R   0.923594 0.538063 0.167694 -0.145222
Cu1   Cu    Cu3+1 0.098280 0.475420 0.516260 0.933772
Cu2   Cu    Cu3+1 0.901720 0.524580 0.483740 0.936037
H1    H     H_    0.187725 0.517971 0.735199 0.186441
H2    H     H_    0.333889 0.562288 0.458104 0.126084
H3    H     H_    0.839205 0.688650 0.375465 0.120683
H4    H     H_    0.487047 0.650123 0.400190 0.133928
H5    H     H_    0.667730 0.744422 0.338198 0.148163
H6    H     H_    0.718872 0.391256 0.573610 0.205866
H7    H     H_    0.830155 0.505153 0.824176 0.158336
H8    H     H_    0.822818 0.498536 0.698237 0.154446
H9    H     H_    0.133361 0.428991 0.182799 0.160428
H10   H     H_    0.133916 0.429159 0.308876 0.156367
H11   H     H_    0.864640 0.568511 0.254910 0.158736
H12   H     H_    0.379794 0.804406 0.528849 0.158043
H13   H     H_    0.864410 0.568780 0.128967 0.159040
H14   H     H_    0.088698 0.894788 0.431142 0.149036
H15   H     H_    0.350914 0.264622 0.250147 0.336570
H16   H     H_    0.134121 0.084574 0.371052 0.256935
H17   H     H_    0.207213 0.256251 0.422029 0.233821
H18   H     H_    0.336904 0.231675 0.468588 0.242728
H19   H     H_    0.185124 0.136946 0.493183 0.217492
H20   H     H_    0.389312 0.516587 0.891630 0.343188
H21   H     H_    0.911447 0.109490 0.566632 0.152697
H22   H     H_    0.560878 0.839119 0.539302 0.127586
H23   H     H_    0.773997 0.905194 0.581148 0.146387
H24   H     H_    0.671911 0.278179 0.398734 0.193721
H25   H     H_    0.169190 0.309013 0.626021 0.129871
H26   H     H_    0.547121 0.294239 0.636566 0.160540
H27   H     H_    0.346006 0.261255 0.657570 0.147897
N1    N     N_R   0.952031 0.564635 0.950263 -0.227930
N2    N     N_R   0.947730 0.559918 0.019179 -0.233422
N3    N     N_R   0.056198 0.446330 0.048676 -0.223340
N4    N     N_R   0.060113 0.450685 0.979786 -0.196652
N5    N     N_R   0.246290 0.438200 0.540910 -0.181958
N6    N     N_R   0.754310 0.561190 0.459520 -0.203183
N7    N     N_2   0.222203 0.116138 0.396473 -0.414517
O1    O     O_R   0.972510 0.318130 0.520450 -0.582386
O2    O     O_R   0.364817 0.202411 0.286748 -0.739572
O3    O     O_2   0.270874 0.603487 0.918675 -0.569608
O4    O     O_R   0.310038 0.495416 0.858458 -0.763981
O5    O     O_R   0.806530 0.359650 0.492990 -0.595907
O6    O     O_R   0.083010 0.479220 0.613590 -0.579076
O7    O     O_R   0.917030 0.520740 0.586130 -0.601236
O8    O     O_R   0.193470 0.640350 0.507010 -0.586742
O9    O     O_R   0.027490 0.681870 0.479550 -0.588013
O10   O     O_R   0.082970 0.479260 0.413870 -0.586661
O11   O     O_R   0.916990 0.520780 0.386410 -0.586179
O12   O     O_2   0.502076 0.350298 0.345164 -0.604795

loop_
_geom_bond_atom_site_label_1
_geom_bond_atom_site_label_2
_ccdc_geom_bond_type
C40   O2    S    
C27   C29   A    
C34   C37   S    
C36   C42   S    
C35   C36   A    
Cu2   O7    S    
C47   H13   S    
C7    C8    A    
C22   H5    S    
N1    N2    A    
C1    O1    A    
C6    C19   A    
C29   C30   A    
C36   C37   A    
C10   C15   A    
C34   N1    A    
C30   C31   A    
C18   H14   S    
H16   N7    S    
C5    C17   A    
C44   H10   S    
C39   H8    S    
Cu1   N5    S    
C20   H27   S    
C3    C18   A    
C28   O11   A    
C5    C16   S    
C43   H9    S    
C17   H12   S    
C8    C9    A    
Cu1   O8    S    
C42   O3    D    
Cu2   O11   S    
C4    C12   S    
C9    C10   A    
C2    C43   A    
C3    C13   A    
C34   N4    A    
C1    O5    A    
C26   C31   A    
C26   N6    A    
C13   C14   A    
Cu2   O5    S    
C41   H19   S    
C4    O7    A    
C20   C29   A    
C28   C45   S    
C1    C19   S    
Cu1   O10   S    
C24   C25   A    
C41   H18   S    
C7    H23   S    
C5    C18   A    
C24   H4    S    
C45   C46   A    
Cu1   O1    S    
C28   O10   A    
Cu2   N6    S    
C43   C44   A    
C32   H2    S    
C37   C38   A    
C32   N5    A    
C10   C19   A    
C35   H1    S    
C12   C35   A    
C9    C11   A    
C6    C7    A    
C20   C33   A    
Cu1   Cu2   S    
C15   H24   S    
C16   O9    A    
Cu1   O6    S    
C3    N7    S    
C22   C24   A    
Cu2   O9    S    
H15   O2    S    
C44   C45   A    
C4    O6    A    
C6    H21   S    
C46   C47   A    
C11   C17   A    
C8    H22   S    
C46   H11   S    
C27   C32   A    
H20   O4    S    
C41   H17   S    
C2    C47   A    
C25   C27   A    
C31   H6    S    
C12   C39   A    
C25   C26   A    
C30   H26   S    
C11   C13   A    
C38   C39   A    
C23   N2    A    
C14   C40   S    
N3    N4    A    
C33   H25   S    
C38   H7    S    
C21   N6    A    
C16   O8    A    
C2    C23   S    
C14   C15   A    
C42   O4    S    
C40   O12   D    
C23   N3    A    
C21   C22   A    
C33   N5    A    
C21   H3    S    
C41   N7    S    
