data_mof_unit_25424.cif
_audit_creation_date              2012-12-10T19:48:30-0500
_audit_creation_method            fapswitch 2.2
_symmetry_space_group_name_H-M    P1
_symmetry_Int_Tables_number       1
_space_group_crystal_system       triclinic
_cell_length_a                    11.068455
_cell_length_b                    10.581904
_cell_length_c                    9.539409
_cell_angle_alpha                 89.553045
_cell_angle_beta                  91.747657
_cell_angle_gamma                 90.296602
_cell_volume                      1116.73906988

loop_
_atom_site_label
_atom_site_type_symbol
_atom_type_description
_atom_site_fract_x
_atom_site_fract_y
_atom_site_fract_z
_atom_type_partial_charge
C1    C     C_R   0.500153 0.259861 0.500508 0.781120
C2    C     C_R   0.500011 0.740148 0.499468 0.785938
C3    C     C_R   0.872546 0.509541 0.505964 -0.097694
C4    C     C_R   0.128962 0.515569 0.496718 -0.060909
C5    C     C_R   0.944393 0.535149 0.627120 0.069165
C6    C     C_R   0.057435 0.515322 0.373675 0.027659
C7    C     C_3   0.503661 0.039328 0.633598 -0.150363
C8    C     C_3   0.496560 0.960698 0.366154 -0.127780
C9    C     C_3   0.601218 0.957717 0.565880 -0.187200
C10   C     C_3   0.399147 0.042375 0.433823 -0.155767
C11   C     C_3   0.500078 0.877313 0.498385 0.036466
C12   C     C_3   0.500172 0.122696 0.501414 0.024199
C13   C     C_3   0.402534 0.956672 0.565885 -0.149272
C14   C     C_3   0.597585 0.043406 0.433766 -0.184691
C15   C     C_3   0.500388 0.613874 0.048338 -0.034528
C16   C     C_3   0.499127 0.386213 0.950923 -0.078852
C17   C     C_3   0.406658 0.557144 0.944303 -0.018474
C18   C     C_3   0.593630 0.442948 0.054318 -0.032569
C19   C     C_3   0.593725 0.557056 0.951391 -0.056816
C20   C     C_3   0.405302 0.443190 0.047158 -0.001562
C21   C     C_R   0.262831 0.506246 0.498253 0.793480
C22   C     C_R   0.737777 0.503042 0.502335 0.771014
C23   C     C_R   0.139741 0.754824 0.101152 -0.218305
C24   C     C_R   0.864415 0.508117 0.001246 -0.217022
C25   C     C_R   0.116504 0.701665 0.232660 0.490526
C26   C     C_R   0.883755 0.472935 0.863151 0.482296
C27   C     C_R   0.103028 0.569419 0.245190 0.071143
C28   C     C_R   0.894954 0.567801 0.761436 0.051837
C29   C     C_R   0.116398 0.491837 0.130351 -0.213195
C30   C     C_R   0.882899 0.695750 0.796222 -0.236169
C31   C     C_R   0.137954 0.545344 0.000666 -0.135037
C32   C     C_R   0.863437 0.729804 0.934673 -0.168535
C33   C     C_R   0.145385 0.677069 0.984459 -0.187835
C34   C     C_R   0.854974 0.636059 0.037786 -0.181963
C35   C     C_R   0.932063 0.500955 0.380035 -0.275724
C36   C     C_R   0.070582 0.533722 0.621621 -0.179065
Cu1   Cu    Cu3+1 0.500030 0.499990 0.643150 0.927991
Cu2   Cu    Cu3+1 0.499970 0.500010 0.356850 0.944181
H1    H     H_    0.158797 0.718972 0.882256 0.137647
H2    H     H_    0.839785 0.663113 0.144743 0.140381
H3    H     H_    0.500940 0.710843 0.091911 0.113241
H4    H     H_    0.497281 0.289647 0.906418 0.111562
H5    H     H_    0.660691 0.615117 0.898078 0.159376
H6    H     H_    0.329940 0.387727 0.090651 0.114232
H7    H     H_    0.150796 0.855991 0.089153 0.130319
H8    H     H_    0.862435 0.434771 0.079227 0.120557
H9    H     H_    0.105473 0.390314 0.140025 0.139565
H10   H     H_    0.894678 0.768899 0.717642 0.137320
H11   H     H_    0.148912 0.481914 0.914538 0.153011
H12   H     H_    0.857021 0.828344 0.962405 0.148799
H13   H     H_    0.879078 0.495092 0.285439 0.158706
H14   H     H_    0.124255 0.555935 0.713215 0.136233
H15   H     H_    0.683971 0.919777 0.619444 0.120796
H16   H     H_    0.317156 0.081185 0.379748 0.119351
H17   H     H_    0.322665 0.917777 0.619505 0.130300
H18   H     H_    0.676194 0.083034 0.378722 0.137286
N1    N     N_3   0.500090 0.499970 0.858290 -0.173492
N2    N     N_3   0.499910 0.500030 0.141710 -0.156824
O1    O     O_R   0.500060 0.316850 0.620870 -0.591871
O2    O     O_R   0.499940 0.683150 0.379130 -0.587274
O3    O     O_R   0.500000 0.316860 0.379090 -0.582075
O4    O     O_R   0.500000 0.683140 0.620910 -0.587771
O5    O     O_R   0.319670 0.500010 0.620890 -0.593227
O6    O     O_R   0.680330 0.499990 0.379110 -0.589450
O7    O     O_R   0.319620 0.500010 0.379110 -0.575366
O8    O     O_R   0.680380 0.499990 0.620890 -0.589823
H19   H     H_    0.339130 0.613410 0.885283 0.126992
H20   H     H_    0.667423 0.387477 0.105280 0.116611
O9    O     O_3   0.112780 0.776701 0.350745 -0.634213
C37   C     C_3   0.010578 0.856809 0.344563 0.034925
H21   H     H_    0.948263 0.825399 0.427317 0.160084
H22   H     H_    0.957935 0.855295 0.242751 0.117811
C38   C     C_3   0.051721 0.992389 0.374343 -0.325537
H23   H     H_    0.105619 0.994814 0.474575 0.225549
H24   H     H_    0.109952 0.025591 0.288499 0.202563
C39   C     C_3   0.944628 0.081628 0.384786 -0.948850
H25   H     H_    0.889120 0.080584 0.285849 0.252173
H26   H     H_    0.977998 0.179472 0.403114 0.266106
H27   H     H_    0.887817 0.052992 0.473752 0.252918
O10   O     O_3   0.913719 0.349396 0.831606 -0.633053
C40   C     C_3   0.812324 0.268076 0.841486 0.065392
H28   H     H_    0.801156 0.217352 0.740287 0.165225
H29   H     H_    0.725447 0.317726 0.857033 0.139780
C41   C     C_3   0.835293 0.170442 0.958597 -0.357726
H30   H     H_    0.917284 0.114963 0.935640 0.225711
H31   H     H_    0.851610 0.218949 0.060144 0.207512
C42   C     C_3   0.728280 0.080237 0.972749 -0.973623
H32   H     H_    0.645403 0.133360 0.997066 0.252765
H33   H     H_    0.747386 0.012253 0.059771 0.249622
H34   H     H_    0.712692 0.026598 0.874201 0.257777
H35   H     H_    0.506312 0.074386 0.743031 0.134243
H36   H     H_    0.493692 0.925886 0.256596 0.130044

loop_
_geom_bond_atom_site_label_1
_geom_bond_atom_site_label_2
_ccdc_geom_bond_type
C14   H18   S    
C42   H32   S    
C4    C36   A    
C23   H7    S    
C27   C29   A    
C38   H23   S    
C41   C42   S    
Cu1   O4    S    
C19   N1    S    
C15   C19   S    
C33   H1    S    
C29   H9    S    
C34   H2    S    
C30   H10   S    
C39   H26   S    
C1    O1    A    
C2    O2    A    
C18   H20   S    
C5    C36   A    
C17   C20   S    
C6    C35   A    
C7    C9    S    
C18   C19   S    
C22   O8    A    
Cu1   O5    S    
Cu2   N2    S    
C18   N2    S    
C23   C33   A    
C31   C33   A    
C37   H21   S    
C8    H36   S    
C36   H14   S    
Cu2   O3    S    
C38   H24   S    
C1    C12   S    
C31   H11   S    
C2    C11   S    
C20   H6    S    
C19   H5    S    
C40   H28   S    
Cu2   O6    S    
C7    C12   S    
C17   H19   S    
C39   H25   S    
C15   H3    S    
C4    C6    A    
C24   C34   A    
C32   C34   A    
C9    C14   S    
Cu1   Cu2   S    
C5    C28   S    
C6    C27   S    
Cu2   O7    S    
C3    C35   A    
C16   C20   S    
C7    H35   S    
Cu1   O8    S    
C37   C38   S    
C41   H30   S    
C9    C11   S    
C32   H12   S    
Cu1   O1    S    
C10   C12   S    
Cu2   O2    S    
C16   C18   S    
C12   C14   S    
C42   H33   S    
C35   H13   S    
C38   C39   S    
C25   O9    S    
C20   N2    S    
C16   H4    S    
C40   C41   S    
C15   C17   S    
C8    C14   S    
C21   O7    A    
C24   C26   A    
C41   H31   S    
O10   C40   S    
C3    C5    A    
C10   C13   S    
C1    O3    A    
C40   H29   S    
C25   C27   A    
C26   C28   A    
C24   H8    S    
C28   C30   A    
C29   C31   A    
C30   C32   A    
C4    C21   S    
C11   C13   S    
C8    C11   S    
C15   N2    S    
C16   N1    S    
C23   C25   A    
O9    C37   S    
C10   H16   S    
C26   O10   S    
C21   O5    A    
C22   O6    A    
C7    C13   S    
C39   H27   S    
C9    H15   S    
C8    C10   S    
C42   H34   S    
C3    C22   S    
C37   H22   S    
Cu1   N1    S    
C2    O4    A    
C17   N1    S    
C13   H17   S    
