data_mof_unit_8083.cif
_audit_creation_date              2012-12-10T18:11:36-0500
_audit_creation_method            fapswitch 2.2
_symmetry_space_group_name_H-M    P1
_symmetry_Int_Tables_number       1
_space_group_crystal_system       triclinic
_cell_length_a                    10.514386
_cell_length_b                    12.657667
_cell_length_c                    12.992631
_cell_angle_alpha                 82.984474
_cell_angle_beta                  91.916437
_cell_angle_gamma                 102.606208
_cell_volume                      1674.79837265

loop_
_atom_site_label
_atom_site_type_symbol
_atom_type_description
_atom_site_fract_x
_atom_site_fract_y
_atom_site_fract_z
_atom_type_partial_charge
C1    C     C_R   0.470097 0.439800 0.690659 0.873935
C2    C     C_R   0.402028 0.454638 0.967483 0.089735
C3    C     C_R   0.400166 0.481970 0.860691 0.065819
C4    C     C_R   0.742437 0.501151 0.498350 0.882590
C5    C     C_R   0.439712 0.538461 0.030843 0.004798
C6    C     C_R   0.428699 0.646400 0.991763 0.022515
C7    C     C_R   0.373774 0.662615 0.890853 -0.041691
C8    C     C_R   0.368792 0.582376 0.823795 -0.267779
C9    C     C_R   0.499188 0.518522 0.127622 -0.075057
C10   C     C_R   0.519134 0.707183 0.155955 -0.075764
C11   C     C_R   0.417575 0.403385 0.796910 -0.190288
C12   C     C_3   0.067523 0.590009 0.532101 -0.155541
C13   C     C_R   0.298544 0.083948 0.357083 -0.304608
C14   C     C_R   0.668484 0.808745 0.621751 0.123760
C15   C     C_R   0.705079 0.916277 0.642446 -0.294992
C16   C     C_R   0.516874 0.560614 0.307669 0.870840
C17   C     C_R   0.640036 0.992665 0.596310 -0.186300
C18   C     C_R   0.538535 0.963861 0.525124 0.022002
C19   C     C_R   0.503892 0.853361 0.504126 0.182922
C20   C     C_R   0.471558 0.041394 0.474068 -0.036656
C21   C     C_R   0.368511 0.007642 0.403579 0.115310
C22   C     C_R   0.338212 0.898862 0.381195 -0.056420
C23   C     C_3   0.962867 0.501620 0.593078 -0.223047
C24   C     C_R   0.407164 0.824317 0.429865 -0.241009
C25   C     C_R   0.502664 0.152165 0.491189 -0.018749
C26   C     C_R   0.331266 0.190659 0.380382 -0.014105
C27   C     C_R   0.257769 0.499629 0.497784 0.842592
C28   C     C_3   0.931567 0.409110 0.457686 -0.172004
C29   C     C_3   0.019214 0.411846 0.554509 0.028122
C30   C     C_3   0.122223 0.498650 0.495015 -0.008079
C31   C     C_3   0.036931 0.497373 0.397183 -0.193293
C32   C     C_3   0.979698 0.588822 0.434405 -0.142764
C33   C     C_1   0.043992 0.315408 0.620221 0.143731
C34   C     C_3   0.877686 0.501080 0.495533 0.008305
C35   C     C_R   0.591288 0.442577 0.141374 0.149462
C36   C     C_R   0.723538 0.484905 0.117855 -0.183949
C37   C     C_R   0.814363 0.418555 0.133825 -0.145906
C38   C     C_R   0.774578 0.309505 0.175089 -0.119303
C39   C     C_R   0.644213 0.267079 0.201378 -0.151404
C40   C     C_R   0.553280 0.333303 0.185314 -0.079212
C41   C     C_1   0.393506 0.204548 0.778833 0.225903
C42   C     C_1   0.268417 0.155857 0.979735 0.140097
C43   C     C_1   0.237351 0.860861 0.307513 0.123145
C44   C     C_R   0.745001 0.734634 0.677396 0.186552
C45   C     C_R   0.479361 0.733097 0.052429 -0.055712
C46   C     C_R   0.877440 0.747724 0.653644 -0.155041
C47   C     C_R   0.959887 0.700503 0.722806 -0.146790
C48   C     C_R   0.910668 0.636923 0.814061 -0.138253
C49   C     C_R   0.779662 0.623819 0.838094 -0.171647
C50   C     C_R   0.699447 0.676242 0.772201 -0.136165
C51   C     C_1   0.583003 0.793696 0.215906 0.206058
C52   C     C_R   0.311063 0.755337 0.856506 0.131391
C53   C     C_R   0.335655 0.813917 0.757658 -0.172449
C54   C     C_R   0.268958 0.895808 0.722918 -0.128064
C55   C     C_R   0.177695 0.920413 0.786777 -0.090508
C56   C     C_R   0.514089 0.597463 0.195740 -0.174753
C57   C     C_R   0.152190 0.862333 0.885083 -0.101462
C58   C     C_R   0.218304 0.780043 0.919907 -0.156755
C59   C     C_R   0.509060 0.849966 0.006818 0.124853
C60   C     C_R   0.599150 0.885337 0.925666 -0.135216
C61   C     C_R   0.642700 0.996638 0.893417 -0.115668
C62   C     C_R   0.599796 0.073631 0.943686 -0.102598
C63   C     C_R   0.511394 0.039410 0.024955 -0.112969
C64   C     C_R   0.462961 0.928341 0.054338 -0.115767
C65   C     C_R   0.383121 0.291385 0.838562 -0.055271
C66   C     C_R   0.336700 0.264455 0.940968 0.015516
C67   C     C_R   0.353878 0.345686 0.006602 -0.256341
H1    H     H_    0.320234 0.325542 0.085639 0.132986
H2    H     H_    0.071542 0.495518 0.317752 0.134993
H3    H     H_    0.958682 0.661466 0.385667 0.151780
H4    H     H_    0.129221 0.664453 0.558989 0.145951
H5    H     H_    0.926779 0.497133 0.672886 0.155928
H6    H     H_    0.756646 0.570121 0.088850 0.128474
H7    H     H_    0.915846 0.452052 0.115181 0.128528
H8    H     H_    0.845048 0.258333 0.188023 0.132204
H9    H     H_    0.613771 0.183184 0.235450 0.141302
H10   H     H_    0.454662 0.299916 0.210295 0.118986
H11   H     H_    0.917963 0.798755 0.584325 0.132451
H12   H     H_    0.334097 0.596079 0.744911 0.176272
H13   H     H_    0.062207 0.713082 0.706186 0.150466
H14   H     H_    0.974377 0.599147 0.866532 0.137518
H15   H     H_    0.740949 0.576377 0.909219 0.143590
H16   H     H_    0.603301 0.675561 0.796952 0.147124
H17   H     H_    0.405686 0.795509 0.707548 0.141518
H18   H     H_    0.287223 0.939662 0.646184 0.153893
H19   H     H_    0.125680 0.983562 0.759615 0.143270
H20   H     H_    0.079641 0.879859 0.933716 0.151390
H21   H     H_    0.195604 0.734357 0.995521 0.132707
H22   H     H_    0.639317 0.827249 0.890130 0.123296
H23   H     H_    0.276517 0.249385 0.346148 0.130084
H24   H     H_    0.713231 0.023641 0.831932 0.128574
H25   H     H_    0.636449 0.159794 0.920701 0.131052
H26   H     H_    0.482274 0.099023 0.066626 0.137923
H27   H     H_    0.394903 0.903355 0.117895 0.143134
H28   H     H_    0.218477 0.061903 0.303781 0.165437
H29   H     H_    0.579878 0.185867 0.541695 0.128623
H30   H     H_    0.872673 0.335098 0.427597 0.153060
H31   H     H_    0.673333 0.073494 0.617998 0.142559
H32   H     H_    0.785079 0.941060 0.695280 0.150706
H33   H     H_    0.385610 0.744369 0.406150 0.216752
N1    N     N_R   0.432930 0.222190 0.444670 -0.099591
N2    N     N_R   0.566370 0.776980 0.554790 -0.145088
N3    N     N_1   0.063728 0.239485 0.672006 -0.219515
N4    N     N_1   0.403214 0.135499 0.731001 -0.208787
N5    N     N_1   0.212746 0.069344 0.011519 -0.220944
N6    N     N_1   0.156797 0.830270 0.248579 -0.230155
N7    N     N_1   0.634872 0.862939 0.263008 -0.203930
O1    O     O_R   0.467970 0.366730 0.627150 -0.599314
O2    O     O_R   0.510820 0.544830 0.662520 -0.618984
O3    O     O_R   0.664630 0.410960 0.482340 -0.625883
O4    O     O_R   0.707470 0.589060 0.517710 -0.607730
O5    O     O_R   0.489180 0.455170 0.337480 -0.611933
O6    O     O_R   0.532030 0.633270 0.372850 -0.622664
O7    O     O_R   0.292530 0.410940 0.482290 -0.615762
O8    O     O_R   0.335370 0.589040 0.517660 -0.659516
Zn1   Zn    Zn3+2 0.471390 0.381080 0.476380 0.948803
Zn2   Zn    Zn3+2 0.528610 0.618920 0.523620 0.927858

loop_
_geom_bond_atom_site_label_1
_geom_bond_atom_site_label_2
_ccdc_geom_bond_type
C28   H30   S    
C37   H7    S    
C6    C45   A    
C35   C36   A    
C1    C11   S    
C16   O6    A    
O2    Zn2   S    
C7    C8    A    
C53   C54   A    
C12   C23   S    
C59   C64   A    
C29   C30   S    
C13   H28   S    
C53   H17   S    
C23   C29   S    
C36   C37   A    
C37   C38   A    
C7    C52   S    
C26   N1    A    
C30   C31   S    
C19   N2    A    
C9    C35   S    
C14   N2    A    
C20   C25   A    
C29   C33   S    
C48   H14   S    
C18   C19   A    
C1    O2    A    
C46   C47   A    
C45   C59   S    
C22   C43   S    
O8    Zn2   S    
C62   H25   S    
C8    H12   S    
C10   C56   A    
C17   H31   S    
C66   C67   A    
C28   C34   S    
C59   C60   A    
C24   H33   S    
C21   C22   A    
C12   C32   S    
C27   C30   S    
C47   H13   S    
C10   C51   S    
C44   C46   A    
C50   H16   S    
C38   H8    S    
C28   C31   S    
C38   C39   A    
C4    C34   S    
C35   C40   A    
C67   H1    S    
C2    C67   A    
C39   C40   A    
C46   H11   S    
C32   H3    S    
C60   H22   S    
C57   H20   S    
C60   C61   A    
C43   N6    T    
C32   C34   S    
C49   H15   S    
C16   C56   S    
C5    C9    A    
C62   C63   A    
C47   C48   A    
C14   C15   A    
C23   C34   S    
C10   C45   A    
C17   C18   A    
C13   C21   A    
C9    C56   A    
C39   H9    S    
N2    Zn2   S    
C52   C58   A    
O6    Zn2   S    
C48   C49   A    
C12   H4    S    
C3    C8    A    
C55   C57   A    
C22   C24   A    
C13   C26   A    
C2    C5    A    
O3    Zn1   S    
O5    Zn1   S    
C52   C53   A    
C16   O5    A    
C14   C44   S    
C44   C50   A    
C15   C17   A    
C4    O3    A    
C54   C55   A    
C28   C29   S    
C12   C30   S    
C33   N3    T    
C23   H5    S    
C4    O4    A    
C31   C32   S    
C15   H32   S    
C58   H21   S    
C54   H18   S    
O7    Zn1   S    
C6    C7    A    
C26   H23   S    
C63   H26   S    
C41   N4    T    
O4    Zn2   S    
O1    Zn1   S    
C55   H19   S    
C19   C24   A    
C64   H27   S    
C25   N1    A    
C57   C58   A    
C5    C6    A    
C2    C3    A    
C18   C20   A    
C65   C66   A    
C41   C65   S    
C61   C62   A    
C42   N5    T    
C3    C11   A    
C36   H6    S    
C1    O1    A    
C63   C64   A    
C27   O7    A    
C11   C65   A    
C31   H2    S    
C20   C21   A    
C25   H29   S    
C51   N7    T    
C49   C50   A    
C42   C66   S    
N1    Zn1   S    
C40   H10   S    
C61   H24   S    
C27   O8    A    
