data_mof_unit_16465.cif
_audit_creation_date              2012-10-26T20:09:44-0400
_audit_creation_method            fapswitch 2.2
_symmetry_space_group_name_H-M    P1
_symmetry_Int_Tables_number       1
_space_group_crystal_system       triclinic
_cell_length_a                    10.736175
_cell_length_b                    9.526034
_cell_length_c                    15.859142
_cell_angle_alpha                 90.011622
_cell_angle_beta                  88.045956
_cell_angle_gamma                 89.747443
_cell_volume                      1621.00566999

loop_
_atom_site_label
_atom_site_type_symbol
_atom_type_description
_atom_site_fract_x
_atom_site_fract_y
_atom_site_fract_z
_atom_type_partial_charge
C1    C     C_R   0.259887 0.500173 0.498089 0.557638
C2    C     C_3   0.931152 0.367601 0.448189 -0.236637
C3    C     C_3   0.073517 0.631899 0.448676 -0.236137
C4    C     C_3   0.121417 0.500197 0.495597 0.058945
C5    C     C_3   0.877508 0.499751 0.494180 0.053974
C6    C     C_R   0.500109 0.499982 0.340471 0.542135
C7    C     C_3   0.930077 0.631719 0.447831 -0.230893
C8    C     C_3   0.605433 0.082396 0.549438 -0.098499
C9    C     C_3   0.603676 0.916859 0.551135 -0.095280
C10   C     C_3   0.380818 0.084355 0.538871 0.027819
C11   C     C_3   0.380092 0.916951 0.538009 0.020828
C12   C     C_3   0.634483 0.489695 0.947908 -0.217473
C13   C     C_3   0.514359 0.082522 0.413830 0.094507
C14   C     C_3   0.513883 0.914873 0.414436 0.134803
C15   C     C_R   0.739603 0.499819 0.495847 0.538219
C16   C     C_R   0.499508 0.500010 0.659601 0.565810
C17   C     C_3   0.439352 0.636888 0.050344 -0.216440
C18   C     C_3   0.424601 0.373246 0.050643 -0.216859
C19   C     C_3   0.424374 0.373279 0.952920 -0.210345
C20   C     C_3   0.439123 0.636911 0.952623 -0.209651
C21   C     C_1   0.499236 0.500020 0.749333 0.003856
C22   C     C_3   0.499625 0.499926 0.082840 0.074552
C23   C     C_3   0.634702 0.489667 0.045620 -0.213442
C24   C     C_3   0.499253 0.499973 0.917192 0.063803
C25   C     C_2   0.342005 0.145926 0.624559 0.641511
C26   C     C_2   0.336861 0.853996 0.622386 0.636918
C27   C     C_1   0.499134 0.500003 0.824963 -0.059011
C28   C     C_1   0.499855 0.499915 0.175086 -0.087075
C29   C     C_1   0.500018 0.499937 0.250723 -0.051137
C30   C     C_3   0.064471 0.500195 0.586708 -0.236331
C31   C     C_3   0.074601 0.368031 0.448867 -0.231778
C32   C     C_3   0.921260 0.500274 0.585933 -0.241161
Cu1   Cu    Cu3+1 0.499860 0.642410 0.500040 0.943915
Cu2   Cu    Cu3+1 0.499860 0.357590 0.500040 0.908383
H1    H     H_    0.341638 0.646702 0.931524 0.118818
H2    H     H_    0.599582 0.879618 0.617142 0.168081
H3    H     H_    0.696307 0.116136 0.520995 0.118831
H4    H     H_    0.695252 0.876943 0.527237 0.112581
H5    H     H_    0.432607 0.117634 0.377517 0.104089
H6    H     H_    0.431429 0.881521 0.378619 0.100229
H7    H     H_    0.304562 0.116825 0.497052 0.075692
H8    H     H_    0.304681 0.887203 0.494922 0.069297
H9    H     H_    0.341972 0.646680 0.076138 0.108976
H10   H     H_    0.326954 0.378261 0.076442 0.108849
H11   H     H_    0.466226 0.273335 0.073060 0.109033
H12   H     H_    0.326623 0.378321 0.931827 0.115517
H13   H     H_    0.491755 0.729655 0.072543 0.110141
H14   H     H_    0.465876 0.273382 0.928440 0.131400
H15   H     H_    0.491405 0.729692 0.927927 0.129902
H16   H     H_    0.690624 0.579776 0.067736 0.110382
H17   H     H_    0.680102 0.391853 0.067949 0.109288
H18   H     H_    0.690308 0.579815 0.923142 0.112522
H19   H     H_    0.679787 0.391896 0.923354 0.114395
H20   H     H_    0.095545 0.592979 0.621842 0.156170
H21   H     H_    0.113575 0.366064 0.382932 0.100868
H22   H     H_    0.095976 0.407097 0.621644 0.159812
H23   H     H_    0.884121 0.594735 0.619859 0.118354
H24   H     H_    0.106539 0.270744 0.480552 0.160270
H25   H     H_    0.884707 0.406299 0.620243 0.119574
H26   H     H_    0.896342 0.270334 0.479743 0.128887
H27   H     H_    0.203353 0.229151 0.697334 0.320389
H28   H     H_    0.192681 0.778033 0.692460 0.320608
H29   H     H_    0.606971 0.151798 0.304789 0.212343
H30   H     H_    0.665688 0.221151 0.392513 0.291152
H31   H     H_    0.618327 0.875485 0.305033 0.208733
H32   H     H_    0.706954 0.894778 0.390104 0.235442
H33   H     H_    0.900198 0.365266 0.381933 0.105198
H34   H     H_    0.104492 0.729398 0.480255 0.163347
H35   H     H_    0.112628 0.633609 0.382778 0.099461
H36   H     H_    0.894308 0.729239 0.479027 0.128128
H37   H     H_    0.899257 0.633379 0.381531 0.113926
H38   H     H_    0.606816 0.124472 0.614382 0.168187
N1    N     N_3   0.500250 0.143650 0.501830 -0.263696
N2    N     N_3   0.500250 0.856350 0.501830 -0.251903
N3    N     N_3   0.627628 0.131319 0.367622 -0.664709
N4    N     N_3   0.623477 0.853289 0.369430 -0.554295
O1    O     O_R   0.317570 0.620260 0.500050 -0.504610
O2    O     O_R   0.221194 0.197921 0.636968 -0.736208
O3    O     O_2   0.403391 0.854869 0.683412 -0.507716
O4    O     O_R   0.214016 0.808372 0.632415 -0.738205
O5    O     O_R   0.317570 0.379740 0.500050 -0.502277
O6    O     O_R   0.499890 0.620310 0.379470 -0.473149
O7    O     O_R   0.499890 0.379690 0.379470 -0.524322
O8    O     O_R   0.682190 0.620260 0.500020 -0.501630
O9    O     O_R   0.682190 0.379740 0.500020 -0.543309
O10   O     O_R   0.499870 0.620210 0.620600 -0.472282
O11   O     O_R   0.499870 0.379790 0.620600 -0.470721
O12   O     O_2   0.410785 0.139954 0.684336 -0.509310

loop_
_geom_bond_atom_site_label_1
_geom_bond_atom_site_label_2
_ccdc_geom_bond_type
C9    N2    S    
C16   C21   S    
C6    O6    A    
C1    O1    A    
C3    H34   S    
C24   C27   S    
C7    H36   S    
C19   H12   S    
C30   H20   S    
C12   C23   S    
H31   N4    S    
C14   N2    S    
C31   H24   S    
H28   O4    S    
C28   C29   T    
C3    H35   S    
C3    C7    S    
C7    H37   S    
C10   N1    S    
C2    H26   S    
C1    O5    A    
C17   C20   S    
C11   H8    S    
C18   C19   S    
C9    H4    S    
C20   H1    S    
C20   C24   S    
C8    C9    S    
C9    H2    S    
Cu2   O5    S    
Cu1   O6    S    
C12   H19   S    
C15   O9    A    
C5    C32   S    
C21   C27   T    
C22   C28   S    
C13   C14   S    
C10   H7    S    
C16   O10   A    
C32   H23   S    
C12   H18   S    
C8    H38   S    
C5    C15   S    
C25   O2    S    
C13   N3    S    
C2    H33   S    
C5    C7    S    
C19   H14   S    
C23   H16   S    
C11   C26   S    
C30   H22   S    
C25   O12   D    
C26   O4    S    
C2    C31   S    
Cu2   O9    S    
C14   N4    S    
Cu1   O10   S    
C17   H9    S    
C20   H15   S    
C18   H10   S    
C16   O11   A    
C23   H17   S    
H27   O2    S    
H32   N4    S    
Cu1   Cu2   S    
C10   C25   S    
C13   N1    S    
C2    C5    S    
Cu2   O7    S    
C3    C4    S    
C18   H11   S    
C6    O7    A    
C18   C22   S    
C17   H13   S    
C11   N2    S    
C15   O8    A    
C12   C24   S    
C26   O3    D    
C1    C4    S    
C19   C24   S    
C30   C32   S    
Cu1   O1    S    
H29   N3    S    
C8    N1    S    
H30   N3    S    
Cu2   O11   S    
Cu1   O8    S    
C13   H5    S    
C4    C31   S    
C10   C11   S    
Cu2   N1    S    
C14   H6    S    
Cu1   N2    S    
C6    C29   S    
C17   C22   S    
C8    H3    S    
C22   C23   S    
C32   H25   S    
C31   H21   S    
C4    C30   S    
