data_mof_unit_51802.cif
_audit_creation_date              2012-12-10T19:16:26-0500
_audit_creation_method            fapswitch 2.2
_symmetry_space_group_name_H-M    P1
_symmetry_Int_Tables_number       1
_space_group_crystal_system       triclinic
_cell_length_a                    10.624393
_cell_length_b                    9.676734
_cell_length_c                    27.738311
_cell_angle_alpha                 90.097773
_cell_angle_beta                  89.983435
_cell_angle_gamma                 90.013239
_cell_volume                      2851.75545646

loop_
_atom_site_label
_atom_site_type_symbol
_atom_type_description
_atom_site_fract_x
_atom_site_fract_y
_atom_site_fract_z
_atom_type_partial_charge
C1    C     C_R   0.257552 0.500270 0.499947 0.846847
C2    C     C_R   0.383334 0.498512 0.974509 0.046786
C3    C     C_R   0.615737 0.486006 0.974463 0.046924
C4    C     C_R   0.500166 0.499857 0.405934 0.876963
C5    C     C_R   0.499539 0.492664 0.949265 0.069094
C6    C     C_R   0.270115 0.495602 0.947669 -0.216160
C7    C     C_R   0.271236 0.494513 0.897701 -0.138352
C8    C     C_R   0.385025 0.495540 0.872629 -0.018765
C9    C     C_R   0.499543 0.493872 0.898206 -0.052059
C10   C     C_R   0.614060 0.493645 0.872601 -0.018711
C11   C     C_R   0.611874 0.496309 0.822214 0.491005
C12   C     C_R   0.490636 0.623103 0.277730 -0.102160
C13   C     C_R   0.387235 0.497634 0.822238 0.490868
C14   C     C_R   0.499940 0.629915 0.722375 0.206820
C15   C     C_R   0.500078 0.627238 0.671801 -0.210727
C16   C     C_R   0.742676 0.500290 0.499924 0.846875
C17   C     C_R   0.499583 0.376138 0.672119 -0.228125
C18   C     C_R   0.499425 0.377186 0.722038 -0.117428
C19   C     C_R   0.499603 0.502554 0.747061 0.267493
C20   C     C_R   0.383900 0.506317 0.025504 0.046563
C21   C     C_R   0.499584 0.492781 0.050702 0.070378
C22   C     C_R   0.615183 0.478430 0.025457 0.046588
C23   C     C_R   0.500174 0.497711 0.252945 0.326769
C24   C     C_R   0.272528 0.528952 0.052367 -0.216350
C25   C     C_R   0.725236 0.455086 0.102263 -0.137215
C26   C     C_R   0.728962 0.488774 0.947597 -0.215924
C27   C     C_R   0.727841 0.492213 0.897646 -0.138496
C28   C     C_R   0.500056 0.500182 0.594048 0.890236
C29   C     C_R   0.726576 0.456216 0.052298 -0.216356
C30   C     C_3   0.071574 0.652311 0.499323 -0.398067
C31   C     C_3   0.072270 0.427867 0.545801 -0.398255
C32   C     C_3   0.928714 0.652325 0.499325 -0.398258
C33   C     C_3   0.927824 0.427870 0.545793 -0.398042
C34   C     C_R   0.499705 0.493865 0.101767 -0.052070
C35   C     C_3   0.072373 0.424753 0.454493 -0.398103
C36   C     C_3   0.121303 0.501250 0.499889 0.178308
C37   C     C_3   0.878921 0.501277 0.499878 0.178357
C38   C     C_3   0.927909 0.424784 0.454482 -0.398276
C39   C     C_3   0.387842 0.081269 0.473656 -0.234101
C40   C     C_3   0.387820 0.918464 0.473674 -0.233752
C41   C     C_3   0.612732 0.081309 0.474353 -0.234181
C42   C     C_3   0.612740 0.918541 0.474363 -0.233885
C43   C     C_3   0.498662 0.081478 0.548650 -0.230778
C44   C     C_3   0.498673 0.918952 0.548652 -0.232541
C45   C     C_R   0.386615 0.513627 0.127377 -0.020855
C46   C     C_R   0.389000 0.515061 0.177783 0.503059
C47   C     C_R   0.610923 0.476901 0.177753 0.502961
C48   C     C_R   0.509759 0.373148 0.278050 -0.102744
C49   C     C_R   0.509599 0.373705 0.328109 -0.226568
C50   C     C_R   0.490868 0.624116 0.327814 -0.227385
C51   C     C_3   0.500179 0.764039 0.751214 -0.382370
C52   C     C_3   0.500644 0.897496 0.721679 -0.903166
C53   C     C_R   0.274115 0.532245 0.102322 -0.137112
C54   C     C_R   0.612946 0.475374 0.127346 -0.020811
C55   C     C_R   0.500228 0.499291 0.353312 -0.044897
C56   C     C_R   0.499915 0.501033 0.646715 -0.096292
H1    H     H_    0.483401 0.722189 0.346480 0.150541
H2    H     H_    0.106880 0.319332 0.547138 0.171495
H3    H     H_    0.105940 0.709893 0.531556 0.171443
H4    H     H_    0.107528 0.481721 0.578635 0.165981
H5    H     H_    0.894334 0.709875 0.531567 0.171368
H6    H     H_    0.892515 0.481706 0.578626 0.165960
H7    H     H_    0.483329 0.719419 0.258108 0.135513
H8    H     H_    0.894338 0.707554 0.466668 0.170001
H9    H     H_    0.893167 0.319333 0.547120 0.171485
H10   H     H_    0.107733 0.476346 0.421292 0.165811
H11   H     H_    0.106944 0.316136 0.453926 0.170208
H12   H     H_    0.517007 0.276206 0.258683 0.135368
H13   H     H_    0.892671 0.476411 0.421280 0.165837
H14   H     H_    0.893259 0.316181 0.453901 0.170184
H15   H     H_    0.385252 0.119895 0.435920 0.146404
H16   H     H_    0.385106 0.879384 0.435951 0.145410
H17   H     H_    0.300313 0.119018 0.491277 0.145050
H18   H     H_    0.300339 0.881004 0.491349 0.144435
H19   H     H_    0.616996 0.119974 0.436642 0.145069
H20   H     H_    0.617079 0.879461 0.436661 0.146617
H21   H     H_    0.582125 0.119898 0.568851 0.146128
H22   H     H_    0.582134 0.880753 0.568851 0.145173
H23   H     H_    0.813114 0.438220 0.121177 0.190756
H24   H     H_    0.414357 0.119904 0.568339 0.145902
H25   H     H_    0.414391 0.880633 0.568348 0.145106
H26   H     H_    0.699482 0.119054 0.492524 0.145256
H27   H     H_    0.699449 0.881130 0.492571 0.144439
H28   H     H_    0.186300 0.549739 0.121250 0.190861
H29   H     H_    0.500329 0.722522 0.651564 0.163692
H30   H     H_    0.182026 0.493091 0.878778 0.190178
H31   H     H_    0.178400 0.491239 0.964123 0.137936
H32   H     H_    0.182393 0.547936 0.035932 0.139586
H33   H     H_    0.517075 0.276152 0.346987 0.150768
H34   H     H_    0.820729 0.491777 0.964021 0.137836
H35   H     H_    0.586445 0.903324 0.698877 0.258495
H36   H     H_    0.415026 0.903854 0.698814 0.258335
H37   H     H_    0.500813 0.987722 0.746477 0.259923
H38   H     H_    0.415618 0.765791 0.774790 0.223983
H39   H     H_    0.584566 0.765294 0.774867 0.223623
H40   H     H_    0.499440 0.277654 0.653493 0.156356
H41   H     H_    0.817059 0.494210 0.878717 0.190166
H42   H     H_    0.499186 0.280308 0.741543 0.139816
H43   H     H_    0.816589 0.436346 0.035852 0.139591
H44   H     H_    0.106015 0.707502 0.466657 0.169841
N1    N     N_R   0.500058 0.496753 0.201646 -0.358829
N2    N     N_R   0.499566 0.499145 0.798393 -0.360391
N3    N     N_3   0.499750 0.138610 0.498940 -0.032677
N4    N     N_3   0.499750 0.861390 0.498940 -0.031922
O1    O     O_R   0.314910 0.616040 0.499990 -0.635168
O2    O     O_2   0.278392 0.498827 0.797140 -0.557014
O3    O     O_2   0.718687 0.459542 0.202800 -0.554749
O4    O     O_2   0.720727 0.496479 0.797092 -0.556908
O5    O     O_R   0.314910 0.383960 0.499990 -0.634279
O6    O     O_R   0.500140 0.616020 0.428740 -0.627628
O7    O     O_R   0.500140 0.383980 0.428740 -0.627577
O8    O     O_R   0.685320 0.616040 0.499970 -0.635121
O9    O     O_R   0.685320 0.383960 0.499970 -0.634667
O10   O     O_R   0.500090 0.616050 0.571230 -0.632880
O11   O     O_R   0.500090 0.383950 0.571230 -0.628037
O12   O     O_2   0.281394 0.533709 0.202862 -0.554764
Zn1   Zn    Zn3+2 0.500150 0.654960 0.499980 0.904970
Zn2   Zn    Zn3+2 0.500150 0.345040 0.499980 0.906156

loop_
_geom_bond_atom_site_label_1
_geom_bond_atom_site_label_2
_ccdc_geom_bond_type
C10   C27   A    
C38   H14   S    
C8    C13   A    
C47   N1    A    
C22   C29   A    
C41   C42   S    
C35   C36   S    
C16   O9    A    
C44   N4    S    
C33   H9    S    
C7    C8    A    
C45   C46   A    
C12   C23   A    
C26   C27   A    
C53   H28   S    
C31   H2    S    
C32   H5    S    
O8    Zn1   S    
C19   N2    S    
C7    H30   S    
C41   H19   S    
C30   H44   S    
C18   C19   A    
C1    O5    A    
C20   C24   A    
C33   H6    S    
C31   C33   S    
C9    C10   A    
C3    C22   A    
C16   C37   S    
C15   H29   S    
C38   H13   S    
C45   C53   A    
C21   C22   A    
O1    Zn1   S    
C2    C6    A    
O6    Zn1   S    
O5    Zn2   S    
C25   C29   A    
C46   N1    A    
C29   H43   S    
C2    C20   A    
C51   C52   S    
C35   C38   S    
C25   C54   A    
C32   H8    S    
C44   H25   S    
C39   C40   S    
C17   H40   S    
C12   H7    S    
C8    C9    A    
C21   C34   A    
C35   H10   S    
C24   C53   A    
C49   C55   A    
C33   C37   S    
C6    H31   S    
C41   N3    S    
C31   H4    S    
C43   C44   S    
C5    C9    A    
C37   C38   S    
C28   O11   A    
C40   N4    S    
C14   C51   S    
C14   C15   A    
C35   H11   S    
O11   Zn2   S    
C30   H3    S    
C17   C18   A    
C52   H37   S    
C34   C45   A    
C32   C37   S    
C48   H12   S    
C24   H32   S    
C17   C56   A    
C28   O10   A    
C47   C54   A    
C48   C49   A    
C4    O7    A    
C34   C54   A    
C47   O3    S    
O7    Zn2   S    
C4    C55   S    
C52   H36   S    
C2    C5    A    
C43   H21   S    
C16   O8    A    
N4    Zn1   S    
C4    O6    A    
C27   H41   S    
C23   C48   A    
C40   H16   S    
C25   H23   S    
C50   H1    S    
C14   C19   A    
C3    C26   A    
C42   H27   S    
C49   H33   S    
C13   O2    S    
C3    C5    A    
C42   N4    S    
C12   C50   A    
C39   N3    S    
C6    C7    A    
C30   C36   S    
C26   H34   S    
C42   H20   S    
C50   C55   A    
C46   O12   S    
C15   C56   A    
C44   H22   S    
C43   H24   S    
C30   C32   S    
C23   N1    S    
C28   C56   S    
C41   H26   S    
C40   H18   S    
C11   N2    A    
C39   H17   S    
C43   N3    S    
O10   Zn1   S    
C10   C11   A    
C51   H38   S    
O9    Zn2   S    
N3    Zn2   S    
C20   C21   A    
C1    O1    A    
C11   O4    S    
C39   H15   S    
C31   C36   S    
C52   H35   S    
C18   H42   S    
C13   N2    A    
C1    C36   S    
C51   H39   S    
