data_mof_unit_52348.cif
_audit_creation_date              2012-12-10T20:45:32-0500
_audit_creation_method            fapswitch 2.2
_symmetry_space_group_name_H-M    P1
_symmetry_Int_Tables_number       1
_space_group_crystal_system       triclinic
_cell_length_a                    10.680165
_cell_length_b                    10.649825
_cell_length_c                    9.852021
_cell_angle_alpha                 89.426673
_cell_angle_beta                  89.738574
_cell_angle_gamma                 90.236852
_cell_volume                      1120.50991832

loop_
_atom_site_label
_atom_site_type_symbol
_atom_type_description
_atom_site_fract_x
_atom_site_fract_y
_atom_site_fract_z
_atom_type_partial_charge
C1    C     C_R   0.508102 0.260091 0.500549 0.975688
C2    C     C_R   0.265512 0.865988 0.181156 0.747961
C3    C     C_R   0.932740 0.592499 0.423813 0.399642
C4    C     C_R   0.871984 0.498802 0.500613 -0.159190
C5    C     C_R   0.936208 0.409796 0.580229 -0.088876
C6    C     C_R   0.066372 0.414247 0.581213 0.455334
C7    C     C_R   0.127516 0.504865 0.500889 -0.199819
C8    C     C_R   0.063335 0.594570 0.421786 -0.176218
C9    C     C_R   0.822808 0.329419 0.786869 -0.327452
C10   C     C_R   0.768217 0.231326 0.862004 0.750367
C11   C     C_R   0.762826 0.110600 0.807966 -0.247210
C12   C     C_R   0.260310 0.503122 0.500127 1.004708
C13   C     C_R   0.810665 0.088117 0.678160 -0.370388
C14   C     C_R   0.863005 0.186442 0.601460 0.668686
C15   C     C_R   0.869255 0.307935 0.655481 -0.125232
C16   C     C_R   0.512206 0.061740 0.621810 0.032329
C17   C     C_R   0.536037 0.129325 0.503214 -0.320075
C18   C     C_R   0.591159 0.067397 0.390961 0.344694
C19   C     C_R   0.585665 0.935283 0.387952 0.442848
C20   C     C_R   0.533836 0.871083 0.501114 -0.214513
C21   C     C_R   0.513870 0.934459 0.621619 -0.131236
C22   C     C_3   0.412040 0.922388 0.725721 -0.499087
C23   C     C_R   0.507708 0.739939 0.499474 0.961087
C24   C     C_3   0.409029 0.064876 0.724741 1.000336
C25   C     C_R   0.439571 0.407102 0.072859 0.224799
C26   C     C_R   0.569956 0.584108 0.070719 -0.068632
C27   C     C_R   0.570123 0.584011 0.926651 -0.143675
C28   C     C_R   0.438053 0.408139 0.930052 0.284522
C29   C     C_3   0.300854 0.380754 0.926098 -0.537498
C30   C     C_3   0.302908 0.377579 0.080458 0.168933
C31   C     C_R   0.739572 0.497701 0.500005 0.955561
C32   C     C_R   0.258793 0.878983 0.322112 -0.158877
C33   C     C_R   0.193369 0.790337 0.400876 -0.266829
C34   C     C_R   0.132255 0.689453 0.338547 0.139192
C35   C     C_R   0.135419 0.679553 0.196588 -0.228530
C36   C     C_R   0.203353 0.766616 0.118383 -0.266986
H1    H     H_    0.721312 0.034400 0.866403 0.209269
H2    H     H_    0.806416 0.994457 0.636680 0.202666
H3    H     H_    0.325852 0.877636 0.685553 0.163355
H4    H     H_    0.446804 0.881509 0.822698 0.232853
H5    H     H_    0.624631 0.653369 0.124086 0.210763
H6    H     H_    0.304919 0.957214 0.370524 0.174423
H7    H     H_    0.624803 0.653337 0.871186 0.159079
H8    H     H_    0.245954 0.460635 0.884295 0.188506
H9    H     H_    0.279728 0.288656 0.879902 0.284033
H10   H     H_    0.246822 0.452301 0.128557 0.158881
H11   H     H_    0.189708 0.800270 0.510010 0.149486
H12   H     H_    0.085990 0.603996 0.146916 0.169876
H13   H     H_    0.207479 0.757159 0.009146 0.154956
H14   H     H_    0.829642 0.421935 0.831015 0.189446
N1    N     N_R   0.499160 0.499140 0.142800 -0.143503
N2    N     N_R   0.499160 0.499180 0.857150 -0.121631
O1    O     O_R   0.500020 0.316790 0.614690 -0.578008
O2    O     O_R   0.500000 0.316760 0.385350 -0.588634
O3    O     O_R   0.316770 0.500030 0.614670 -0.598311
O4    O     O_R   0.316750 0.499990 0.385330 -0.623956
O5    O     O_R   0.500000 0.683240 0.614650 -0.641109
O6    O     O_R   0.499980 0.683210 0.385310 -0.576982
O7    O     O_R   0.683250 0.500010 0.614670 -0.650982
O8    O     O_R   0.683230 0.499970 0.385330 -0.572102
Zn1   Zn    Zn3+2 0.500010 0.500020 0.653130 0.983139
Zn2   Zn    Zn3+2 0.499990 0.499980 0.346870 1.036892
F1    F     F_    0.331933 0.949845 0.105249 -0.656336
F2    F     F_    0.909891 0.162924 0.476038 -0.631555
O9    O     O_3   0.645668 0.131733 0.283508 -0.671425
H15   H     H_    0.685276 0.208853 0.319242 0.374748
O10   O     O_3   0.627513 0.867760 0.277536 -0.722648
H16   H     H_    0.657744 0.925637 0.205219 0.392897
O11   O     O_3   0.297594 0.114204 0.672759 -0.747480
H17   H     H_    0.232337 0.095274 0.742053 0.338950
F3    F     F_    0.445615 0.117923 0.846093 -0.657865
O12   O     O_3   0.277657 0.257999 0.136633 -0.658220
H18   H     H_    0.337279 0.196918 0.097098 0.418061
O13   O     O_3   0.860652 0.680728 0.355487 -0.734902
H19   H     H_    0.912830 0.752018 0.323485 0.362018
O14   O     O_3   0.137699 0.328749 0.653884 -0.717743
H20   H     H_    0.086455 0.286328 0.724571 0.335939
F4    F     F_    0.722064 0.252965 0.988017 -0.623207

loop_
_geom_bond_atom_site_label_1
_geom_bond_atom_site_label_2
_ccdc_geom_bond_type
O6    Zn2   S    
C23   O6    A    
C16   C21   A    
C11   C13   A    
C35   C36   A    
C10   F4    S    
C7    C8    A    
C27   N2    A    
C25   C28   A    
C26   C27   A    
O8    Zn2   S    
C28   C29   S    
C18   C19   A    
N2    Zn1   S    
C5    C6    A    
C2    C32   A    
C34   C35   A    
C31   O7    A    
C11   H1    S    
C3    O13   S    
C1    O1    A    
O1    Zn1   S    
C19   C20   A    
C16   C17   A    
C19   O10   S    
C9    C10   A    
C14   F2    S    
C16   C24   S    
C13   C14   A    
N1    Zn2   S    
C35   H12   S    
C24   O11   S    
C17   C18   A    
C7    C12   S    
O7    Zn1   S    
O13   H19   S    
O10   H16   S    
C12   O3    A    
O14   H20   S    
C3    C8    A    
C4    C5    A    
O2    Zn2   S    
C29   H9    S    
C18   O9    S    
C31   O8    A    
C1    O2    A    
C25   N1    A    
C29   C30   S    
C20   C23   S    
C22   H4    S    
C33   C34   A    
C8    C34   S    
C6    O14   S    
C13   H2    S    
C12   O4    A    
C29   H8    S    
C33   H11   S    
C22   C24   S    
C3    C4    A    
C2    F1    S    
C2    C36   A    
C25   C30   S    
C23   O5    A    
C30   H10   S    
C9    H14   S    
O12   H18   S    
C30   O12   S    
O5    Zn1   S    
C6    C7    A    
C1    C17   S    
C32   C33   A    
C9    C15   A    
C26   N1    A    
C28   N2    A    
C22   H3    S    
O3    Zn1   S    
O4    Zn2   S    
O11   H17   S    
C5    C15   S    
C4    C31   S    
C10   C11   A    
C27   H7    S    
C20   C21   A    
C26   H5    S    
O9    H15   S    
C32   H6    S    
C14   C15   A    
C21   C22   S    
C36   H13   S    
C24   F3    S    
