data_mof_unit_46057.cif
_audit_creation_date              2013-03-05T16:32:18-0500
_audit_creation_method            fapswitch 2.2
_symmetry_space_group_name_H-M    P1
_symmetry_Int_Tables_number       1
_space_group_crystal_system       triclinic
_cell_length_a                    15.884714
_cell_length_b                    10.805884
_cell_length_c                    9.553393
_cell_angle_alpha                 89.918371
_cell_angle_beta                  90.229654
_cell_angle_gamma                 90.243874
_cell_volume                      1639.79475057

loop_
_atom_site_label
_atom_site_type_symbol
_atom_site_description
_atom_site_fract_x
_atom_site_fract_y
_atom_site_fract_z
_atom_type_partial_charge
O1    O     O_R   0.500000 0.319640 0.618810 -0.577333
O2    O     O_R   0.500010 0.319680 0.381230 -0.589323
C1    C     C_R   0.498422 0.262356 0.500105 0.820153
O3    O     O_R   0.379430 0.499990 0.618840 -0.583892
O4    O     O_R   0.379440 0.500030 0.381260 -0.556620
C2    C     C_R   0.340266 0.499956 0.499794 0.831478
Cu1   Cu    Cu3+1 0.500000 0.499980 0.640670 1.002361
Cu2   Cu    Cu3+1 0.500000 0.500020 0.359330 0.994985
O5    O     O_R   0.499990 0.680320 0.618770 -0.587693
O6    O     O_R   0.500000 0.680360 0.381190 -0.549793
O7    O     O_R   0.620560 0.499970 0.618740 -0.524236
O8    O     O_R   0.620570 0.500010 0.381160 -0.603742
C3    C     C_R   0.495377 0.737505 0.499708 0.824465
C4    C     C_R   0.659701 0.500141 0.500081 0.813147
C5    C     C_3   0.049478 0.424266 0.625111 -0.504787
C6    C     C_3   0.047439 0.438076 0.359986 -0.044882
C7    C     C_3   0.949577 0.438325 0.363044 -0.338242
H1    H     H_    0.070738 0.326770 0.620289 0.208157
H2    H     H_    0.067953 0.493287 0.268176 0.171501
H3    H     H_    0.923667 0.343228 0.351961 0.240019
H4    H     H_    0.925781 0.490607 0.270567 0.160616
C8    C     C_1   0.749223 0.500159 0.499986 -0.077932
C9    C     C_3   0.082851 0.499843 0.497494 0.202716
C10   C     C_3   0.951930 0.432387 0.631978 0.227037
C11   C     C_3   0.916846 0.499818 0.499246 0.095655
C12   C     C_3   0.950076 0.635114 0.502106 -0.550826
C13   C     C_3   0.049060 0.637580 0.507251 0.326634
C14   C     C_1   0.824687 0.500105 0.499603 0.030847
C15   C     C_1   0.175203 0.499830 0.498428 0.008465
C16   C     C_1   0.250695 0.499922 0.499143 -0.137013
H5    H     H_    0.923254 0.684554 0.593764 0.191020
H6    H     H_    0.077324 0.458913 0.724564 0.168245
H7    H     H_    0.936065 0.490609 0.724399 0.134657
H8    H     H_    0.925964 0.685544 0.408594 0.190626
C17   C     C_R   0.500801 0.063015 0.624126 0.105409
C18   C     C_R   0.488787 0.129393 0.500840 -0.159793
C19   C     C_R   0.460003 0.066558 0.381155 -0.265200
H9    H     H_    0.442191 0.117840 0.288176 0.193199
C20   C     C_R   0.454749 0.936907 0.380392 0.322559
C21   C     C_R   0.482813 0.870510 0.500215 -0.218424
C22   C     C_R   0.498554 0.936065 0.623483 0.111038
C23   C     C_3   0.569124 0.926649 0.726777 -0.455081
C24   C     C_3   0.571667 0.067204 0.727213 -0.375533
H10   H     H_    0.548063 0.886670 0.828112 0.215784
H11   H     H_    0.626500 0.884000 0.681548 0.193476
H12   H     H_    0.552256 0.108028 0.828793 0.221017
H13   H     H_    0.630448 0.106444 0.682033 0.219972
C25   C     C_R   0.540051 0.592272 0.074284 0.226724
N1    N     N_R   0.500530 0.500930 0.147930 -0.181169
C26   C     C_R   0.453146 0.417069 0.074181 -0.020129
H14   H     H_    0.416601 0.348236 0.129769 0.129784
C27   C     C_R   0.452781 0.417497 0.925350 -0.008296
H15   H     H_    0.415804 0.349189 0.869456 0.130960
N2    N     N_R   0.500530 0.500890 0.852020 -0.169408
C28   C     C_R   0.542373 0.589663 0.927032 0.119067
C29   C     C_3   0.635056 0.619650 0.926405 0.104543
C30   C     C_3   0.631023 0.627565 0.085346 -0.164194
H16   H     H_    0.650280 0.708388 0.872921 0.114610
H17   H     H_    0.670895 0.558869 0.141090 0.219730
N3    N     N_R   0.913448 0.310036 0.654012 0.140494
O9    O     O_R   0.866820 0.290694 0.763612 -0.288587
O10   O     O_R   0.927207 0.218896 0.568413 -0.386287
N4    N     N_R   0.421175 0.875713 0.258810 0.130385
O11   O     O_R   0.363518 0.790739 0.272996 -0.335901
O12   O     O_R   0.436355 0.919706 0.134520 -0.396361
N5    N     N_R   0.688692 0.517059 0.882220 0.165595
O13   O     O_R   0.761679 0.541488 0.827318 -0.361435
O14   O     O_R   0.670595 0.403283 0.916273 -0.332736
N6    N     N_3   0.643724 0.754016 0.136534 -0.572988
H18   H     H_    0.598131 0.813056 0.094199 0.251930
H19   H     H_    0.635442 0.753394 0.244978 0.246696
N7    N     N_3   0.078927 0.312299 0.334584 -0.566461
H20   H     H_    0.058784 0.250457 0.411429 0.272051
H21   H     H_    0.144693 0.312435 0.332923 0.223774
N8    N     N_3   0.078321 0.694860 0.639230 -0.548018
H22   H     H_    0.045835 0.658183 0.724711 0.204746
H23   H     H_    0.063505 0.789087 0.638885 0.233081
N9    N     N_3   0.082384 0.712114 0.389908 -0.542436
H24   H     H_    0.068170 0.805441 0.405919 0.235179
H25   H     H_    0.052214 0.689257 0.296088 0.200162

loop_
_geom_bond_atom_site_label_1
_geom_bond_atom_site_label_2
_geom_bond_distance
_ccdc_geom_bond_type
C5    H1    1.108781 S    
N5    O14   1.302539 A    
C28   C29   1.506172 S    
N4    O12   1.301433 A    
C25   C28   1.407707 A    
C22   C23   1.494172 S    
C17   C18   1.391065 A    
C6    N7    1.471050 S    
C13   N9    1.477891 S    
C5    H6    1.111201 S    
C11   C14   1.463944 S    
Cu1   O7    1.927320 S    
C12   C13   1.573006 S    
C15   C16   1.199157 T    
C9    C15   1.466983 S    
C18   C19   1.404567 A    
O4    C2    1.294286 A    
O7    C4    1.295086 A    
N9    H25   1.044123 S    
C30   H17   1.111744 S    
C7    H3    1.110377 S    
C29   C30   1.522567 S    
N3    O10   1.300754 A    
N6    H19   1.044858 S    
O5    C3    1.295653 A    
C3    C21   1.451890 S    
C12   H8    1.113287 S    
C6    C7    1.554923 S    
C26   C27   1.421826 A    
C9    C13   1.587340 S    
C17   C24   1.493294 S    
Cu2   O8    1.925709 S    
C5    C9    1.559812 S    
N5    O13   1.300312 A    
C12   H5    1.113530 S    
C8    C14   1.198752 T    
C23   H10   1.111722 S    
O3    Cu1   1.925712 S    
C13   N8    1.477826 S    
C27   N2    1.369213 A    
C25   C30   1.496332 S    
C10   C11   1.563526 S    
N7    H21   1.044853 S    
C20   C21   1.421322 A    
N9    H24   1.045974 S    
C11   C12   1.552487 S    
C7    H4    1.113681 S    
N3    O9    1.301109 A    
O1    C1    1.292856 A    
C23   H11   1.112233 S    
N8    H22   1.044493 S    
C19   H9    1.083541 S    
C10   N3    1.469456 S    
C26   H14   1.081623 S    
C5    C10   1.554039 S    
N8    H23   1.046018 S    
O3    C2    1.294135 A    
C25   N1    1.363690 A    
C2    C16   1.422795 S    
O8    C4    1.292838 A    
C6    C9    1.575117 S    
C23   C24   1.519195 S    
C27   H15   1.081611 S    
Cu1   O5    1.959635 S    
N2    C28   1.366830 A    
C21   C22   1.396294 A    
O1    Cu1   1.960187 S    
O2    Cu2   1.959635 S    
N7    H20   1.042380 S    
O6    C3    1.292955 A    
O4    Cu2   1.927324 S    
C20   N4    1.437019 S    
C10   H7    1.115174 S    
C7    C11   1.554278 S    
C4    C8    1.422034 S    
O2    C1    1.293115 A    
C19   C20   1.403154 A    
C1    C18   1.444275 S    
C6    H2    1.109314 S    
C29   N5    1.464687 S    
C29   H16   1.112050 S    
N6    H18   1.046874 S    
C17   C22   1.372139 A    
C24   H12   1.111845 S    
Cu1   Cu2   2.687751 S    
N4    O11   1.301458 A    
Cu2   O6    1.960187 S    
N1    C26   1.369628 A    
Cu1   N2    2.019131 S    
C30   N6    1.464823 S    
C24   H13   1.112314 S    
Cu2   N1    2.019648 S    
