data_mof_unit_59405.cif
_audit_creation_date              2012-10-26T21:12:31-0400
_audit_creation_method            fapswitch 2.2
_symmetry_space_group_name_H-M    P1
_symmetry_Int_Tables_number       1
_space_group_crystal_system       triclinic
_cell_length_a                    23.555128
_cell_length_b                    10.824302
_cell_length_c                    9.616845
_cell_angle_alpha                 89.695847
_cell_angle_beta                  90.3098
_cell_angle_gamma                 94.309255
_cell_volume                      2444.98896665

loop_
_atom_site_label
_atom_site_type_symbol
_atom_type_description
_atom_site_fract_x
_atom_site_fract_y
_atom_site_fract_z
_atom_type_partial_charge
C1    C     C_R   0.504184 0.263015 0.501827 0.568000
C2    C     C_R   0.122270 0.591611 0.553671 0.416420
C3    C     C_R   0.237365 0.542749 0.391562 0.019725
C4    C     C_R   0.391070 0.501008 0.499547 0.554793
C5    C     C_R   0.297324 0.548192 0.386356 -0.055304
C6    C     C_R   0.328285 0.500850 0.499344 -0.012482
C7    C     C_R   0.298605 0.451463 0.615771 -0.144243
C8    C     C_R   0.239523 0.447147 0.620458 -0.059398
C9    C     C_R   0.208764 0.492187 0.509163 0.216463
C10   C     C_R   0.761428 0.451595 0.390552 -0.058994
C11   C     C_R   0.702274 0.453352 0.382963 -0.046149
C12   C     C_R   0.964702 0.262856 0.442411 0.006181
C13   C     C_R   0.671372 0.484417 0.502278 -0.040106
C14   C     C_R   0.700837 0.502062 0.629170 -0.120638
C15   C     C_R   0.759952 0.495778 0.638090 0.061428
C16   C     C_R   0.494464 0.736514 0.498405 0.541007
C17   C     C_R   0.790534 0.474357 0.516116 0.195746
C18   C     C_R   0.508648 0.103891 0.769394 0.030229
C19   C     C_R   0.480864 0.043099 0.881554 -0.101047
C20   C     C_R   0.447666 0.932953 0.860306 -0.087203
C21   C     C_R   0.447681 0.875808 0.730991 -0.045729
C22   C     C_R   0.477547 0.933729 0.618382 0.036397
C23   C     C_R   0.024283 0.267057 0.446877 -0.069410
C24   C     C_R   0.498967 0.058075 0.631797 0.015994
C25   C     C_R   0.508272 0.128520 0.507079 -0.023718
C26   C     C_R   0.509929 0.068027 0.379523 -0.147752
C27   C     C_R   0.500292 0.940645 0.370701 -0.010848
C28   C     C_R   0.608857 0.494913 0.500195 0.511569
C29   C     C_R   0.487483 0.870725 0.493611 0.018197
C30   C     C_R   0.585286 0.640355 0.148901 -0.069500
C31   C     C_R   0.636867 0.675118 0.087529 -0.143451
C32   C     C_R   0.642474 0.662013 0.946274 -0.103288
C33   C     C_R   0.593835 0.632359 0.865339 0.042666
C34   C     C_R   0.056867 0.375047 0.484840 0.007203
C35   C     C_R   0.544243 0.567298 0.927130 0.172188
C36   C     C_R   0.542635 0.568340 0.076515 0.159937
C37   C     C_R   0.458213 0.436382 0.071216 0.122927
C38   C     C_R   0.458276 0.438472 0.924088 -0.019548
C39   C     C_R   0.882916 0.585521 0.538938 0.375293
C40   C     C_R   0.876795 0.367941 0.496337 0.385089
C41   C     C_R   0.936572 0.368634 0.484424 0.000355
C42   C     C_R   0.969531 0.479505 0.519869 -0.038858
C43   C     C_R   0.942608 0.588408 0.554100 -0.003071
C44   C     C_2   0.934312 0.150705 0.380682 0.307752
C45   C     C_R   0.029619 0.481728 0.520397 -0.033992
C46   C     C_1   0.674962 0.414967 0.253795 0.243397
C47   C     C_2   0.789286 0.508583 0.774976 0.272645
C48   C     C_1   0.554994 0.194459 0.802449 0.246024
C49   C     C_2   0.500257 0.888718 0.228493 0.231758
C50   C     C_2   0.409276 0.365519 0.135524 0.268832
C51   C     C_2   0.592003 0.725840 0.755218 0.286355
C52   C     C_2   0.951959 0.805585 0.660412 0.316757
C53   C     C_1   0.204663 0.588575 0.276819 0.252463
C54   C     C_1   0.326228 0.606129 0.267383 0.228508
C55   C     C_R   0.062659 0.590849 0.555884 0.009596
C56   C     C_R   0.035879 0.696249 0.594739 -0.071587
C57   C     C_R   0.976442 0.696044 0.598073 0.006182
C58   C     C_R   0.116633 0.379998 0.483809 0.411821
Cu1   Cu    Cu3+1 0.500000 0.499990 0.640660 0.968034
Cu2   Cu    Cu3+1 0.500000 0.500010 0.359340 1.039786
H1    H     H_    0.677599 0.519319 0.722597 0.171962
H2    H     H_    0.424533 0.387424 0.866800 0.108680
H3    H     H_    0.061485 0.778514 0.627314 0.212110
H4    H     H_    0.321161 0.414650 0.703347 0.133407
H5    H     H_    0.217419 0.408504 0.711017 0.146139
H6    H     H_    0.785345 0.431025 0.298531 0.151809
H7    H     H_    0.895035 0.157148 0.322868 0.159713
H8    H     H_    0.834569 0.497918 0.783823 0.126207
H9    H     H_    0.533103 0.921276 0.155440 0.101273
H10   H     H_    0.366498 0.382605 0.101905 0.088009
H11   H     H_    0.614649 0.716583 0.658466 0.102281
H12   H     H_    0.517022 0.120870 0.284153 0.153149
H13   H     H_    0.911775 0.795957 0.715146 0.158986
H14   H     H_    0.486118 0.079289 0.986090 0.122177
H15   H     H_    0.424850 0.887665 0.945962 0.182014
H16   H     H_    0.423955 0.786853 0.719287 0.141555
H17   H     H_    0.045470 0.186439 0.414881 0.214447
H18   H     H_    0.580833 0.670559 0.253252 0.171411
H19   H     H_    0.671270 0.720233 0.148093 0.141499
H20   H     H_    0.681223 0.703256 0.899160 0.157331
N1    N     N_R   0.851634 0.475754 0.517915 -0.404510
N2    N     N_R   0.147841 0.487476 0.516832 -0.396594
N3    N     N_R   0.500540 0.501210 0.147910 -0.229394
N4    N     N_R   0.500560 0.501290 0.852040 -0.250867
N5    N     N_1   0.653354 0.383067 0.150340 -0.238777
N6    N     N_1   0.592187 0.266524 0.829376 -0.246528
N7    N     N_1   0.178486 0.625121 0.185249 -0.241318
N8    N     N_1   0.349059 0.652455 0.172139 -0.236846
O1    O     O_R   0.500000 0.319640 0.618810 -0.506281
O2    O     O_R   0.582120 0.500020 0.618760 -0.522670
O3    O     O_R   0.582120 0.500050 0.381190 -0.523806
O4    O     O_2   0.855947 0.691017 0.541655 -0.489518
O5    O     O_2   0.954025 0.049758 0.389513 -0.435700
O6    O     O_2   0.763133 0.529861 0.880405 -0.515455
O7    O     O_2   0.461403 0.816411 0.188577 -0.472563
O8    O     O_2   0.415702 0.281037 0.216800 -0.478758
O9    O     O_2   0.571142 0.823236 0.779387 -0.512625
O10   O     O_2   0.977584 0.907884 0.655626 -0.441592
O11   O     O_2   0.843752 0.260869 0.490503 -0.494541
O12   O     O_2   0.143417 0.278826 0.448665 -0.467687
O13   O     O_2   0.154530 0.695570 0.587462 -0.467721
O14   O     O_R   0.500000 0.319660 0.381240 -0.444090
O15   O     O_R   0.417880 0.499950 0.618810 -0.522847
O16   O     O_R   0.417880 0.499980 0.381240 -0.460241
O17   O     O_R   0.500000 0.680340 0.618760 -0.497201
O18   O     O_R   0.500000 0.680360 0.381190 -0.487430

loop_
_geom_bond_atom_site_label_1
_geom_bond_atom_site_label_2
_ccdc_geom_bond_type
C51   O9    D    
C55   C56   A    
C22   C29   A    
C27   C29   A    
C26   H12   S    
C41   C42   A    
C39   O4    S    
C19   C20   A    
C15   C47   S    
C40   O11   S    
C7    C8    A    
C12   C23   A    
C26   C27   A    
C37   C38   A    
C18   C24   A    
C21   C22   A    
C11   C46   S    
C2    C55   A    
C58   N2    A    
C30   C31   A    
Cu2   N3    S    
C10   C17   A    
C4    O15   A    
C56   C57   A    
C18   C19   A    
Cu1   O1    S    
C44   O5    D    
C35   C36   A    
C8    C9    A    
C13   C28   S    
C17   N1    S    
C16   O18   A    
C9    N2    S    
C46   N5    T    
C8    H5    S    
C49   H9    S    
C13   C14   A    
C3    C53   S    
C1    C25   S    
C51   H11   S    
Cu2   O14   S    
C10   H6    S    
C5    C54   S    
C58   O12   S    
C24   C25   A    
C39   N1    A    
C4    C6    S    
C52   H13   S    
C10   C11   A    
C39   C43   A    
C2    O13   S    
C16   C29   S    
C14   H1    S    
C49   O7    D    
C20   H15   S    
C42   C45   A    
C12   C41   A    
C3    C9    A    
C32   H20   S    
C31   C32   A    
C21   H16   S    
C23   C34   A    
C56   H3    S    
C53   N7    T    
C34   C45   A    
Cu1   O17   S    
C23   H17   S    
C16   O17   A    
C40   C41   A    
C48   N6    T    
C2    N2    A    
C42   C43   A    
C47   H8    S    
Cu2   O18   S    
Cu2   O3    S    
C15   C17   A    
C1    O1    A    
C38   N4    A    
C40   N1    A    
C19   H14   S    
C3    C5    A    
C18   C48   S    
C35   N4    A    
C31   H19   S    
C6    C7    A    
C33   C51   S    
Cu1   N4    S    
C30   C36   A    
Cu1   O15   S    
C32   C33   A    
C25   C26   A    
C12   C44   S    
C54   N8    T    
C37   C50   S    
C11   C13   A    
C50   O8    D    
C5    C6    A    
C4    O16   A    
C52   O10   D    
C33   C35   A    
C47   O6    D    
C28   O3    A    
C22   C24   A    
C50   H10   S    
C7    H4    S    
C52   C57   S    
C43   C57   A    
C30   H18   S    
Cu1   Cu2   S    
C20   C21   A    
C45   C55   A    
C34   C58   A    
C14   C15   A    
C37   N3    A    
C44   H7    S    
C28   O2    A    
C36   N3    A    
Cu2   O16   S    
C1    O14   A    
Cu1   O2    S    
C27   C49   S    
C38   H2    S    
