data_mof_unit_61084.cif
_audit_creation_date              2013-03-05T16:08:08-0500
_audit_creation_method            fapswitch 2.2
_symmetry_space_group_name_H-M    P1
_symmetry_Int_Tables_number       1
_space_group_crystal_system       triclinic
_cell_length_a                    13.134048
_cell_length_b                    14.430701
_cell_length_c                    17.30542
_cell_angle_alpha                 90.002358
_cell_angle_beta                  85.447806
_cell_angle_gamma                 90.018857
_cell_volume                      3269.61018548

loop_
_atom_site_label
_atom_site_type_symbol
_atom_site_description
_atom_site_fract_x
_atom_site_fract_y
_atom_site_fract_z
_atom_type_partial_charge
O1    O     O_R   0.421720 0.623950 0.500010 -0.545302
O2    O     O_R   0.578280 0.376050 0.499990 -0.545354
O3    O     O_R   0.578280 0.623950 0.499990 -0.566920
O4    O     O_R   0.421720 0.376050 0.500010 -0.566908
C1    C     C_R   0.500009 0.671304 0.500005 0.852673
C2    C     C_R   0.499991 0.328696 0.499995 0.852583
O5    O     O_R   0.412660 0.500000 0.613600 -0.529525
O6    O     O_R   0.587340 0.500000 0.386400 -0.529478
O7    O     O_R   0.569190 0.500000 0.613590 -0.589773
O8    O     O_R   0.430810 0.500000 0.386410 -0.589787
C3    C     C_R   0.486738 0.501856 0.652289 0.900118
C4    C     C_R   0.513261 0.498160 0.347709 0.900025
Cu1   Cu    Cu3+1 0.407320 0.500000 0.500010 1.040539
Cu2   Cu    Cu3+1 0.592680 0.500000 0.499990 1.040556
C5    C     C_R   0.477465 0.495594 0.737007 -0.223891
C6    C     C_R   0.522524 0.504487 0.262992 -0.223926
C7    C     C_R   0.558281 0.455991 0.773376 -0.286255
C8    C     C_R   0.441645 0.544019 0.226649 -0.286214
C9    C     C_R   0.551971 0.442970 0.853344 0.365202
C10   C     C_R   0.447931 0.557107 0.146691 0.365149
C11   C     C_R   0.464092 0.474006 0.898311 -0.065563
C12   C     C_R   0.535843 0.526193 0.101698 -0.065444
C13   C     C_R   0.380558 0.510926 0.862100 -0.157643
C14   C     C_R   0.619441 0.489360 0.137884 -0.157559
C15   C     C_R   0.387290 0.522595 0.781197 0.295882
C16   C     C_R   0.612741 0.477642 0.218782 0.295922
C17   C     C_2   0.463191 0.477415 0.983150 -0.072420
C18   C     C_2   0.536723 0.522812 0.016858 -0.072471
H1    H     H_    0.625630 0.432065 0.738867 0.208058
H2    H     H_    0.374262 0.567843 0.261172 0.208090
H3    H     H_    0.601512 0.551974 0.982086 0.167266
H4    H     H_    0.398403 0.448242 0.017916 0.167347
C19   C     C_1   0.500019 0.772876 0.500019 -0.164136
C20   C     C_1   0.499981 0.227123 0.499982 -0.164217
C21   C     C_1   0.500012 0.857690 0.500019 0.030931
C22   C     C_1   0.499987 0.142310 0.499982 0.030907
C23   C     C_1   0.500003 0.957594 0.500007 0.041834
C24   C     C_1   0.499996 0.042406 0.499994 0.041829
N1    N     N_1   0.731930 0.500000 0.499980 -0.117134
N2    N     N_1   0.268070 0.500000 0.500020 -0.117146
C25   C     C_1   0.826397 0.499995 0.499976 0.212225
C26   C     C_1   0.173602 0.500005 0.500024 0.212169
C27   C     C_1   0.949317 0.499997 0.499990 -0.015525
C28   C     C_1   0.050683 0.500003 0.500009 -0.015531
N3    N     N_R   0.695099 0.434311 0.255164 0.130727
O9    O     O_R   0.787258 0.467647 0.245129 -0.326601
O10   O     O_R   0.679057 0.358467 0.294959 -0.338630
N4    N     N_R   0.305028 0.566051 0.744787 0.130718
O11   O     O_R   0.321263 0.641793 0.704888 -0.338747
O12   O     O_R   0.212775 0.532945 0.754898 -0.326615
C29   C     C_1   0.290450 0.542857 0.908241 0.425469
N5    N     N_1   0.218482 0.568304 0.945090 -0.143719
C30   C     C_1   0.709597 0.457571 0.091724 0.425373
N6    N     N_1   0.781601 0.432237 0.054859 -0.143864
N7    N     N_R   0.365802 0.603695 0.112244 0.122157
O13   O     O_R   0.272740 0.597530 0.143789 -0.321340
O14   O     O_R   0.385166 0.661300 0.055096 -0.328492
N8    N     N_R   0.634041 0.396332 0.887824 0.122205
O15   O     O_R   0.614611 0.338826 0.945034 -0.328486
O16   O     O_R   0.727106 0.402354 0.856262 -0.321340

loop_
_geom_bond_atom_site_label_1
_geom_bond_atom_site_label_2
_geom_bond_distance
_ccdc_geom_bond_type
C9    N8    1.439974 S    
C19   C21   1.223915 T    
O7    Cu2   1.965618 S    
C23   C24   1.223908 T    
C8    H2    1.083804 S    
O7    C3    1.227537 A    
C13   C29   1.449434 S    
O6    C4    1.224349 A    
C2    C20   1.465759 S    
O3    C1    1.234583 A    
N7    O13   1.301496 A    
C22   C24   1.441680 S    
C11   C17   1.468096 S    
N1    C25   1.240734 T    
C12   C18   1.468131 S    
Cu1   Cu2   2.434500 S    
O5    C3    1.224330 A    
C25   C27   1.614450 S    
C15   N4    1.437411 S    
O2    C2    1.234426 A    
O3    Cu2   1.798719 S    
C26   C28   1.614450 S    
C10   N7    1.439957 S    
O1    C1    1.234427 A    
O8    C4    1.227542 A    
N4    O12   1.301132 A    
N4    O11   1.301318 A    
C9    C11   1.412828 A    
C10   C12   1.412819 A    
C20   C22   1.223917 T    
N7    O14   1.301457 A    
C27   C28   1.331374 T    
C6    C16   1.412733 A    
O2    Cu2   1.798595 S    
C12   C14   1.410601 A    
C5    C15   1.412739 A    
O4    C2    1.234585 A    
O1    Cu1   1.798595 S    
C17   H4    1.087101 S    
N8    O16   1.301497 A    
C29   N5    1.157361 T    
N3    O9    1.301133 A    
O5    Cu1   1.972527 S    
C13   C15   1.405948 A    
C7    H1    1.083808 S    
C21   C23   1.441680 S    
C8    C10   1.392494 A    
C6    C8    1.398533 A    
N3    O10   1.301318 A    
C17   C18   1.338345 D    
C5    C7    1.398522 A    
Cu1   N2    1.828901 S    
O6    Cu2   1.972530 S    
C16   N3    1.437376 S    
C7    C9    1.392511 A    
C14   C30   1.449430 S    
C30   N6    1.157361 T    
N8    O15   1.301459 A    
C3    C5    1.464267 S    
C11   C13   1.410598 A    
C18   H3    1.087104 S    
C4    C6    1.464299 S    
O4    Cu1   1.798719 S    
Cu2   N1    1.828904 S    
N2    C26   1.240735 T    
C14   C16   1.405946 A    
O8    Cu1   1.965618 S    
C1    C19   1.465759 S    
