data_mof_unit_68520.cif
_audit_creation_date              2013-03-05T16:02:17-0500
_audit_creation_method            fapswitch 2.2
_symmetry_space_group_name_H-M    P1
_symmetry_Int_Tables_number       1
_space_group_crystal_system       triclinic
_cell_length_a                    8.207183
_cell_length_b                    14.341395
_cell_length_c                    14.972665
_cell_angle_alpha                 95.196474
_cell_angle_beta                  97.90157
_cell_angle_gamma                 92.182989
_cell_volume                      1736.12961654

loop_
_atom_site_label
_atom_site_type_symbol
_atom_site_description
_atom_site_fract_x
_atom_site_fract_y
_atom_site_fract_z
_atom_type_partial_charge
P1    P     P_3+3 0.018600 0.416790 0.295970 0.478036
O1    O     O_2   0.841230 0.444160 0.280430 -0.372673
O2    O     O_3   0.112860 0.447350 0.393710 -0.352828
O3    O     O_3   0.597940 0.615700 0.327690 -0.337199
O4    O     O_2   0.693440 0.546527 0.176055 -0.402539
O5    O     O_3   0.972379 0.295752 0.273713 -0.624774
O6    O     O_3   0.622503 0.720646 0.176803 -0.544814
C1    C     C_3   0.508161 0.824743 0.068921 -0.160658
H1    H     H_    0.566689 0.778086 0.020625 0.110180
P2    P     P_3+3 0.635660 0.716530 0.560900 0.460884
P3    P     P_3+3 0.033201 0.784399 0.364290 0.547205
O7    O     O_2   0.802240 0.729740 0.532850 -0.416953
O8    O     O_3   0.017180 0.664790 0.371080 -0.406128
O9    O     O_2   0.900335 0.829377 0.415540 -0.322486
O10   O     O_3   0.649517 0.743448 0.679034 -0.607034
O11   O     O_3   0.977089 0.804191 0.250807 -0.422393
C2    C     C_3   0.033035 0.730321 0.196470 0.450622
H2    H     H_    0.958804 0.664519 0.199162 0.128949
H3    H     H_    0.164628 0.718783 0.219224 0.021870
C3    C     C_3   0.014418 0.753365 0.098513 -0.719601
H4    H     H_    0.882089 0.754833 0.070939 0.277589
H5    H     H_    0.076919 0.822432 0.093873 0.281397
C4    C     C_3   0.222411 0.742854 0.641347 0.416537
H6    H     H_    0.314673 0.703657 0.608290 0.112112
H7    H     H_    0.104971 0.739485 0.594499 0.093632
C5    C     C_3   0.284074 0.845218 0.663505 -0.959619
H8    H     H_    0.414377 0.850125 0.695726 0.289676
H9    H     H_    0.272753 0.882095 0.601364 0.195614
H10   H     H_    0.211113 0.882207 0.711034 0.299139
Ba1   Ba    Ba6+2 0.833400 0.543310 0.453520 1.625743
C6    C     C_3   0.106009 0.242619 0.300085 0.763828
H11   H     H_    0.224617 0.283902 0.307404 0.017567
C7    C     C_3   0.109732 0.160449 0.227558 -0.839322
H12   H     H_    0.994778 0.115202 0.220140 0.293434
H13   H     H_    0.217191 0.117761 0.246102 0.263899
H14   H     H_    0.119213 0.186976 0.161013 0.220907
C8    C     C_3   0.803714 0.730500 0.728867 0.837571
H15   H     H_    0.877575 0.682174 0.691087 -0.002948
C9    C     C_3   0.895269 0.826316 0.753710 -0.903994
H16   H     H_    0.938252 0.851638 0.693469 0.186761
H17   H     H_    0.005762 0.822061 0.804721 0.289967
H18   H     H_    0.813336 0.877980 0.781631 0.264854
P4    P     P_3+3 0.171090 0.583290 0.704030 0.493741
O12   O     O_2   0.348480 0.555870 0.719620 -0.311133
O13   O     O_3   0.076830 0.552730 0.606300 -0.416610
O14   O     O_3   0.591760 0.384380 0.672320 -0.383580
O15   O     O_3   0.197272 0.705687 0.721783 -0.559351
P5    P     P_3+3 0.157277 0.213677 0.637760 0.531724
O16   O     O_3   0.629090 0.386350 0.459240 -0.386686
O17   O     O_3   0.172520 0.335290 0.628920 -0.312751
O18   O     O_2   0.272731 0.169648 0.574290 -0.352234
O19   O     O_3   0.252048 0.188871 0.744907 -0.547662
Ba2   Ba    Ba6+2 0.356420 0.456770 0.546480 1.643537
P6    P     P_3+3 0.563090 0.610580 0.209457 0.478163
C10   C     C_3   0.485285 0.774914 0.153881 0.850197
H19   H     H_    0.369308 0.731593 0.136304 -0.313539
H20   H     H_    0.384744 0.839641 0.033768 0.138172
O20   O     O_3   0.560610 0.613730 0.540770 -0.366532
C11   C     C_3   0.552106 0.303618 0.268453 0.427184
H21   H     H_    0.515387 0.373544 0.295044 0.094736
H22   H     H_    0.685158 0.302686 0.268332 0.174295
C12   C     C_3   0.470555 0.284425 0.170499 -1.029736
H23   H     H_    0.337282 0.296586 0.165375 0.230773
H24   H     H_    0.525721 0.333228 0.128098 0.233127
H25   H     H_    0.488316 0.211207 0.143958 0.309845
P7    P     P_3+3 0.561191 0.267767 0.435265 0.461272
O21   O     O_2   0.387460 0.270290 0.467210 -0.336924
O22   O     O_3   0.508163 0.231776 0.319290 -0.578514
H26   H     H_    0.070497 0.699021 0.056763 0.201717
C13   C     C_3   0.147396 0.209342 0.810179 0.811605
H27   H     H_    0.023099 0.174454 0.788346 -0.044845
C14   C     C_3   0.217399 0.171451 0.899230 -0.030303
H28   H     H_    0.350837 0.191867 0.916656 0.126687
H29   H     H_    0.153677 0.203206 0.954689 0.106564
P8    P     P_3+3 0.623536 0.390712 0.789912 0.519051
C15   C     C_3   0.658049 0.213921 0.759301 0.336014
H30   H     H_    0.782373 0.238288 0.747381 -0.033820
O23   O     O_2   0.481760 0.444510 0.824653 -0.321580
O24   O     O_3   0.594391 0.277259 0.821151 -0.531586
H31   H     H_    0.574547 0.205589 0.693732 0.094720
H32   H     H_    0.721784 0.068911 0.747507 0.104906
C16   C     C_3   0.669883 0.118329 0.796269 -0.000393
H33   H     H_    0.545057 0.089662 0.803288 0.184731
C17   C     C_R   0.827524 0.448513 0.834006 0.209567
C18   C     C_R   0.900237 0.450600 0.925488 0.023225
C19   C     C_R   0.045732 0.459239 0.110695 -0.022970
C20   C     C_R   0.894181 0.410137 0.079937 -0.094807
C21   C     C_R   0.821205 0.407795 0.989940 -0.172397
C22   C     C_R   0.114974 0.469362 0.204040 0.173160
H34   H     H_    0.828237 0.373732 0.124936 0.169199
H35   H     H_    0.701637 0.371784 0.971962 0.172497
C23   C     C_R   0.268128 0.517271 0.229271 -0.498343
C24   C     C_R   0.071623 0.530576 0.795192 0.252134
C25   C     C_R   0.142987 0.536963 0.888133 0.050275
C26   C     C_R   0.058251 0.495418 0.952907 0.087113
C27   C     C_R   0.296177 0.583815 0.918667 -0.065325
C28   C     C_R   0.370887 0.583768 0.007822 -0.193274
C29   C     C_R   0.288442 0.545357 0.073143 -0.019911
C30   C     C_R   0.130714 0.500078 0.045726 0.001686
C31   C     C_R   0.356683 0.553884 0.165630 0.180247
C32   C     C_R   0.914314 0.487479 0.770621 -0.468621
H36   H     H_    0.493110 0.616404 0.025134 0.164050
H37   H     H_    0.361132 0.621162 0.874259 0.210040
H38   H     H_    0.321407 0.524038 0.299897 0.177382
H39   H     H_    0.858220 0.484573 0.700626 0.170568
C33   C     C_R   0.705998 0.936254 0.545608 -0.141824
C34   C     C_R   0.508378 0.799561 0.496213 0.287478
C35   C     C_R   0.355200 0.766213 0.448629 -0.471286
C36   C     C_R   0.241690 0.828242 0.412734 0.190181
C37   C     C_R   0.285493 0.923008 0.416025 -0.159726
C38   C     C_R   0.441618 0.957729 0.457786 0.075980
C39   C     C_R   0.553289 0.897134 0.500757 0.026846
H40   H     H_    0.319935 0.692346 0.444801 0.157804
C40   C     C_R   0.637810 0.091316 0.502725 -0.021696
C41   C     C_R   0.748922 0.032035 0.547814 0.082201
C42   C     C_R   0.682224 0.187573 0.505011 0.211004
C43   C     C_R   0.829007 0.223948 0.557451 -0.356881
C44   C     C_R   0.944848 0.164745 0.596329 0.232674
C45   C     C_R   0.904160 0.068689 0.592023 -0.286531
C46   C     C_R   0.485789 0.052735 0.457164 -0.061921
H41   H     H_    0.197777 0.969227 0.385309 0.199309
H42   H     H_    0.993691 0.022808 0.622077 0.148891
H43   H     H_    0.859387 0.298454 0.561603 0.173959
H44   H     H_    0.794825 0.892945 0.577313 0.149972
H45   H     H_    0.398706 0.096018 0.421739 0.177366
N1    N     N_R   0.467205 0.843823 0.229414 0.220069
O25   O     O_R   0.344838 0.899019 0.222675 -0.429446
O26   O     O_R   0.583598 0.858740 0.298116 -0.323516
N2    N     N_R   0.082055 0.210149 0.386598 0.237819
O27   O     O_R   0.050434 0.122189 0.395786 -0.441157
O28   O     O_R   0.060722 0.273274 0.450854 -0.362516
N3    N     N_R   0.777146 0.690508 0.812675 0.210030
O29   O     O_R   0.631180 0.659325 0.823740 -0.392359
O30   O     O_R   0.897750 0.688789 0.878579 -0.478789
N4    N     N_R   0.607780 0.912614 0.091306 0.292699
O31   O     O_R   0.760175 0.912642 0.129102 -0.296991
O32   O     O_R   0.545272 0.991471 0.071543 -0.321676
O33   O     O_3   0.139072 0.306589 0.826775 -0.762785
H46   H     H_    0.048059 0.324507 0.782285 0.272848
N5    N     N_R   0.193603 0.069577 0.893175 0.253049
O34   O     O_R   0.270746 0.016872 0.839313 -0.412052
O35   O     O_R   0.102685 0.030726 0.945616 -0.309934
O36   O     O_3   0.773275 0.125013 0.879583 -0.669002
H47   H     H_    0.706224 0.148043 0.926599 0.367421

loop_
_geom_bond_atom_site_label_1
_geom_bond_atom_site_label_2
_geom_bond_distance
_ccdc_geom_bond_type
P7    O22   1.756098 S    
C20   C21   1.394265 A    
N1    O25   1.300978 A    
P3    C36   1.828530 S    
O2    Ba2   2.812903 S    
C34   C39   1.426603 A    
Ba1   O13   2.812372 S    
C38   C39   1.417377 A    
C15   O24   1.404435 S    
O6    C10   1.414449 S    
C10   H19   1.103500 S    
C2    C3    1.521099 S    
H32   C16   1.109757 S    
N4    O31   1.299963 A    
C9    H17   1.109800 S    
C33   C39   1.408295 A    
C42   C43   1.399191 A    
C5    H8    1.107977 S    
C12   H23   1.107504 S    
P7    C42   1.849144 S    
P2    O20   1.563031 S    
N5    O35   1.300921 A    
P2    O10   1.763006 S    
C37   H41   1.081516 S    
C11   O22   1.400076 S    
P3    O9    1.545319 D    
C26   C30   1.429144 A    
P8    C17   1.848543 S    
C45   H42   1.083943 S    
O36   H47   0.992833 S    
P3    O8    1.728627 S    
C7    H14   1.109606 S    
C35   C36   1.400059 A    
C2    H2    1.110487 S    
P1    O1    1.514677 D    
C4    C5    1.526546 S    
P2    Ba1   3.419215 S    
C44   C45   1.398685 A    
O10   C8    1.405754 S    
C12   H24   1.110524 S    
C7    H13   1.110991 S    
C37   C38   1.398376 A    
O12   Ba2   2.851424 S    
P4    Ba2   3.404689 S    
P5    O18   1.544056 D    
N3    O29   1.299911 A    
P1    C22   1.878972 S    
C4    H6    1.104271 S    
C6    C7    1.532617 S    
C13   H27   1.112506 S    
C28   H36   1.078544 S    
C14   H28   1.111903 S    
O7    Ba1   2.860955 S    
P5    O17   1.762050 S    
O5    C6    1.392282 S    
O13   Ba2   2.922998 S    
C11   H21   1.112961 S    
C1    N4    1.462367 S    
C17   C32   1.404257 A    
P6    C31   1.858558 S    
P2    C34   1.863533 S    
C6    N2    1.451092 S    
C1    C10   1.544088 S    
O14   P8    1.737584 S    
C28   C29   1.403187 A    
C9    H18   1.111328 S    
C32   H39   1.081658 S    
Ba1   Ba2   4.499228 S    
C11   H22   1.092822 S    
O17   Ba2   2.745591 S    
C4    O15   1.397630 S    
O16   P7    1.758924 S    
P1    O5    1.754553 S    
O8    Ba1   2.745013 S    
C17   C18   1.414089 A    
C15   H30   1.108731 S    
C14   H29   1.113312 S    
C15   C16   1.525791 S    
C9    H16   1.098599 S    
C46   H45   1.080114 S    
C1    H1    1.110739 S    
P5    C44   1.856729 S    
C16   H33   1.111276 S    
C38   C46   1.397709 A    
P1    O2    1.574452 S    
C35   H40   1.081833 S    
O2    Ba1   2.922040 S    
P4    O12   1.515089 D    
C8    H15   1.105917 S    
C1    H20   1.113067 S    
P3    O11   1.749832 S    
O4    P6    1.541818 D    
C6    H11   1.106859 S    
C21   H35   1.079696 S    
P5    O19   1.756880 S    
C34   C35   1.401069 A    
C27   C28   1.390344 A    
C7    H12   1.111306 S    
C10   N1    1.460326 S    
C24   C25   1.427110 A    
N5    O34   1.299613 A    
C22   C23   1.396932 A    
C25   C27   1.401125 A    
C19   C30   1.426313 A    
P4    O13   1.574326 S    
P2    O7    1.494634 D    
Ba1   O16   2.770017 S    
C3    H5    1.110242 S    
C13   O33   1.400217 S    
C41   C45   1.411318 A    
C3    H26   1.108231 S    
C20   H34   1.077906 S    
C24   C32   1.397005 A    
C23   C31   1.401378 A    
N2    O27   1.301494 A    
C18   C21   1.406384 A    
N4    O32   1.301081 A    
C11   C12   1.522394 S    
N1    O26   1.300311 A    
C12   H25   1.110753 S    
O3    P6    1.748342 S    
C19   C20   1.404294 A    
C5    H9    1.105949 S    
C15   H31   1.111442 S    
C16   O36   1.402295 S    
C19   C22   1.426866 A    
C40   C42   1.410462 A    
Ba2   O20   2.769419 S    
C40   C41   1.415592 A    
C29   C31   1.413190 A    
C8    N3    1.465308 S    
C33   C41   1.401350 A    
O1    Ba1   2.850926 S    
C43   H43   1.082203 S    
C8    C9    1.530722 S    
C36   C37   1.387287 A    
C18   C26   1.416269 A    
O11   C2    1.406656 S    
P4    O15   1.751881 S    
O16   Ba2   2.910503 S    
Ba1   O20   2.911412 S    
O14   Ba2   2.804457 S    
P1    Ba1   3.404091 S    
P4    C24   1.883417 S    
P7    O21   1.565699 D    
C4    H7    1.108061 S    
C25   C26   1.427506 A    
Ba2   O21   2.861113 S    
P8    O23   1.543331 D    
C40   C46   1.404705 A    
O19   C13   1.406078 S    
O33   H46   0.988208 S    
C23   H38   1.081604 S    
C2    H3    1.110196 S    
C14   N5    1.459566 S    
C3    H4    1.109243 S    
C5    H10   1.104245 S    
N3    O30   1.300687 A    
C29   C30   1.416866 A    
C27   H37   1.073957 S    
C33   H44   1.065526 S    
C13   C14   1.532174 S    
O6    P6    1.764980 S    
C43   C44   1.400897 A    
P8    O24   1.749945 S    
O3    Ba1   2.804969 S    
N2    O28   1.294775 A    
