data_mof_unit_21443.cif
_audit_creation_date              2012-10-26T19:52:20-0400
_audit_creation_method            fapswitch 2.2
_symmetry_space_group_name_H-M    P1
_symmetry_Int_Tables_number       1
_space_group_crystal_system       triclinic
_cell_length_a                    9.623501
_cell_length_b                    10.824834
_cell_length_c                    13.379557
_cell_angle_alpha                 90.765755
_cell_angle_beta                  73.787539
_cell_angle_gamma                 90.373014
_cell_volume                      1338.2340894

loop_
_atom_site_label
_atom_site_type_symbol
_atom_type_description
_atom_site_fract_x
_atom_site_fract_y
_atom_site_fract_z
_atom_type_partial_charge
C1    C     C_R   0.499472 0.737395 0.502452 0.545089
C2    C     C_R   0.384103 0.545517 0.813418 -0.007937
C3    C     C_R   0.370447 0.935234 0.514818 0.019856
C4    C     C_R   0.424051 0.512520 0.699872 0.539449
C5    C     C_R   0.495869 0.870599 0.513478 0.008043
C6    C     C_R   0.615999 0.936601 0.526572 -0.164403
C7    C     C_R   0.615772 0.065492 0.526051 -0.162192
C8    C     C_R   0.495418 0.129226 0.512423 0.007162
C9    C     C_R   0.370295 0.062449 0.514081 0.024761
C10   C     C_3   0.278041 0.065426 0.441108 -0.274340
C11   C     C_3   0.277179 0.925461 0.442684 -0.267699
C12   C     C_R   0.445429 0.587502 0.977056 0.031080
C13   C     C_R   0.939470 0.399502 0.464184 0.152427
C14   C     C_R   0.912646 0.598490 0.536203 -0.023561
C15   C     C_R   0.060687 0.598522 0.536195 -0.026903
C16   C     C_R   0.499084 0.262482 0.501906 0.551797
C17   C     C_R   0.087083 0.399986 0.463224 0.153581
C18   C     C_3   0.131883 0.352006 0.353756 -0.274806
C19   C     C_3   0.973866 0.348516 0.356196 -0.275307
C20   C     C_R   0.576691 0.499454 0.300246 0.545859
C21   C     C_R   0.801823 0.516411 0.022256 -0.138906
C22   C     C_R   0.618906 0.508934 0.186662 -0.002451
C23   C     C_R   0.488086 0.578314 0.866994 0.001760
C24   C     C_R   0.238758 0.542039 0.871272 -0.161586
C25   C     C_R   0.195908 0.584586 0.974169 -0.126663
C26   C     C_R   0.298032 0.614541 0.027010 0.024159
C27   C     C_3   0.894834 0.586163 0.800498 -0.281663
C28   C     C_3   0.937415 0.455712 0.757445 -0.427868
C29   C     C_3   0.248137 0.687154 0.128951 -0.284270
C30   C     C_3   0.169000 0.805953 0.117396 -0.435816
C31   C     C_R   0.551539 0.563861 0.030067 0.008290
C32   C     C_R   0.699496 0.556033 0.972545 0.062145
C33   C     C_R   0.740304 0.585308 0.866086 0.005913
C34   C     C_R   0.633696 0.601155 0.815671 -0.109421
C35   C     C_R   0.513326 0.532146 0.135670 -0.143782
C36   C     C_R   0.763341 0.498385 0.128858 -0.143645
Cu1   Cu    Cu3+1 0.359330 0.500020 0.500010 0.921346
Cu2   Cu    Cu3+1 0.640670 0.499980 0.499990 0.923386
H1    H     H_    0.846245 0.473845 0.165377 0.116439
H2    H     H_    0.180842 0.259098 0.346382 0.115865
H3    H     H_    0.947782 0.413560 0.300654 0.146104
H4    H     H_    0.930851 0.253260 0.353988 0.120814
H5    H     H_    0.911087 0.495670 0.978917 0.104350
H6    H     H_    0.401276 0.522386 0.178836 0.120030
H7    H     H_    0.158230 0.511276 0.835261 0.126887
H8    H     H_    0.083022 0.597638 0.013028 0.112599
H9    H     H_    0.667483 0.630297 0.735872 0.144959
H10   H     H_    0.712437 0.889331 0.531975 0.122944
H11   H     H_    0.928803 0.389335 0.821383 0.140986
H12   H     H_    0.712131 0.114380 0.531237 0.132554
H13   H     H_    0.050137 0.454859 0.707337 0.176688
H14   H     H_    0.865690 0.423588 0.710109 0.171499
H15   H     H_    0.907962 0.651715 0.735731 0.121058
H16   H     H_    0.966478 0.623353 0.845495 0.132984
H17   H     H_    0.236585 0.862111 0.052801 0.159708
H18   H     H_    0.063524 0.785195 0.102327 0.149528
H19   H     H_    0.147390 0.861232 0.190651 0.134921
H20   H     H_    0.175326 0.628613 0.189254 0.135633
H21   H     H_    0.341271 0.717300 0.156907 0.149444
H22   H     H_    0.169944 0.106243 0.478247 0.133914
H23   H     H_    0.336827 0.103126 0.363874 0.130119
H24   H     H_    0.168827 0.886053 0.481218 0.125158
H25   H     H_    0.333777 0.882392 0.366321 0.139602
H26   H     H_    0.847290 0.678883 0.565601 0.099759
H27   H     H_    0.104015 0.678383 0.566589 0.115820
H28   H     H_    0.195377 0.420614 0.298130 0.141145
N1    N     N_R   0.852320 0.499070 0.499340 -0.231953
N2    N     N_R   0.148230 0.499110 0.499340 -0.236795
O1    O     O_R   0.381190 0.680360 0.500000 -0.506574
O2    O     O_R   0.618780 0.680320 0.499990 -0.517435
O3    O     O_R   0.323230 0.500000 0.650990 -0.508754
O4    O     O_R   0.560820 0.499960 0.650980 -0.507408
O5    O     O_R   0.381220 0.319680 0.500010 -0.493539
O6    O     O_R   0.618810 0.319640 0.500000 -0.503798
O7    O     O_R   0.439180 0.500040 0.349020 -0.507827
O8    O     O_R   0.676770 0.500000 0.349010 -0.500309

loop_
_geom_bond_atom_site_label_1
_geom_bond_atom_site_label_2
_ccdc_geom_bond_type
C24   C25   A    
Cu2   O2    S    
Cu1   O1    S    
C10   H22   S    
C11   H24   S    
C27   H16   S    
C7    C8    A    
C21   C36   A    
Cu2   O8    S    
C27   C33   S    
C22   C35   A    
C12   C23   A    
Cu1   Cu2   S    
C6    H10   S    
C16   O6    A    
C24   H7    S    
C11   H25   S    
Cu2   O6    S    
C5    C6    A    
C28   H13   S    
C15   H27   S    
C30   H19   S    
C20   O8    A    
C18   C19   S    
C18   H2    S    
C21   H5    S    
C29   H21   S    
C8    C9    A    
C14   N1    A    
C9    C10   S    
C1    C5    S    
C19   H4    S    
Cu1   O7    S    
C8    C16   S    
C33   C34   A    
C21   C32   A    
Cu2   O4    S    
C13   C19   S    
C16   O5    A    
Cu1   N2    S    
C25   C26   A    
C30   H18   S    
C1    O1    A    
C20   O7    A    
C12   C26   A    
C2    C4    S    
C29   C30   S    
C3    C9    A    
C28   H11   S    
C31   C32   A    
C23   C34   A    
C14   H26   S    
C2    C23   A    
C17   C18   S    
C29   H20   S    
C35   H6    S    
C20   C22   S    
Cu1   O3    S    
C12   C31   A    
C2    C24   A    
C31   C35   A    
C10   H23   S    
C4    O4    A    
C13   N1    A    
Cu1   O5    S    
C17   N2    A    
C36   H1    S    
C7    H12   S    
C3    C5    A    
C27   H15   S    
C6    C7    A    
C18   H28   S    
C22   C36   A    
C30   H17   S    
C1    O2    A    
C13   C17   A    
C32   C33   A    
C28   H14   S    
C15   N2    A    
C3    C11   S    
C10   C11   S    
Cu2   N1    S    
C26   C29   S    
C27   C28   S    
C14   C15   A    
C34   H9    S    
C25   H8    S    
C4    O3    A    
C19   H3    S    
