data_mof_unit_33149.cif
_audit_creation_date              2012-12-11T15:34:08-0500
_audit_creation_method            fapswitch 2.2
_symmetry_space_group_name_H-M    P1
_symmetry_Int_Tables_number       1
_space_group_crystal_system       triclinic
_cell_length_a                    15.027421
_cell_length_b                    15.047578
_cell_length_c                    34.934367
_cell_angle_alpha                 90.452636
_cell_angle_beta                  90.073323
_cell_angle_gamma                 60.143945
_cell_volume                      6850.89157906

loop_
_atom_site_label
_atom_site_type_symbol
_atom_type_description
_atom_site_fract_x
_atom_site_fract_y
_atom_site_fract_z
_atom_type_partial_charge
C1    C     C_R   0.302753 0.607952 0.555809 0.559349
C2    C     C_R   0.650644 0.665177 0.669004 0.011250
C3    C     C_R   0.262979 0.628212 0.268962 -0.022613
C4    C     C_R   0.181432 0.637894 0.291448 0.092743
C5    C     C_R   0.093821 0.645938 0.274154 -0.032674
C6    C     C_R   0.084994 0.650833 0.234461 -0.079202
C7    C     C_R   0.164400 0.646361 0.211944 0.047321
C8    C     C_R   0.216057 0.550640 0.353779 0.202230
C9    C     C_R   0.242641 0.545887 0.391990 -0.128654
C10   C     C_R   0.191468 0.727007 0.392101 0.240398
C11   C     C_R   0.173319 0.729326 0.352328 0.223611
C12   C     C_R   0.188441 0.639972 0.333199 -0.024729
C13   C     C_R   0.587286 0.744808 0.644405 -0.051601
C14   C     C_R   0.238322 0.630960 0.410786 -0.060971
C15   C     C_R   0.735395 0.026933 0.943593 0.581319
C16   C     C_R   0.745298 0.722948 0.945022 0.576357
C17   C     C_R   0.040484 0.732748 0.948693 0.578866
C18   C     C_R   0.723139 0.038715 0.052877 0.555707
C19   C     C_R   0.733529 0.734232 0.054694 0.545256
C20   C     C_R   0.027285 0.745033 0.058036 0.550831
C21   C     C_R   0.577419 0.723499 0.606007 0.234185
C22   C     C_R   0.662852 0.695575 0.786851 0.414622
C23   C     C_R   0.648669 0.681321 0.710255 0.330581
C24   C     C_R   0.757588 0.609641 0.846728 0.212672
C25   C     C_R   0.767775 0.611882 0.886863 0.259607
C26   C     C_R   0.633649 0.790358 0.888233 -0.149832
C27   C     C_R   0.613873 0.786367 0.849562 0.203265
C28   C     C_R   0.678656 0.697388 0.828164 -0.031125
C29   C     C_R   0.611240 0.588729 0.555065 0.570365
C30   C     C_R   0.712605 0.705474 0.906989 -0.060498
C31   C     C_R   0.723903 0.074335 0.905672 -0.031317
C32   C     C_R   0.627131 0.134776 0.887818 0.256972
C33   C     C_R   0.624086 0.149205 0.847774 0.311105
C34   C     C_R   0.716241 0.113493 0.827027 0.057723
C35   C     C_R   0.810311 0.064538 0.845795 -0.101441
C36   C     C_R   0.814280 0.043915 0.884513 -0.153697
C37   C     C_R   0.688997 0.224883 0.770907 0.245660
C38   C     C_R   0.683134 0.240968 0.731082 0.218012
C39   C     C_R   0.702196 0.158549 0.706074 -0.084796
C40   C     C_R   0.590858 0.299259 0.553284 0.574175
C41   C     C_R   0.732793 0.060627 0.720749 0.250154
C42   C     C_R   0.740521 0.045025 0.760355 0.255971
C43   C     C_R   0.715685 0.127840 0.785372 -0.026030
C44   C     C_R   0.577131 0.220277 0.653409 -0.026916
C45   C     C_R   0.550881 0.252654 0.615904 -0.111471
C46   C     C_R   0.730367 0.190711 0.600698 0.229528
C47   C     C_R   0.756282 0.157103 0.638463 -0.021345
C48   C     C_R   0.679073 0.176600 0.665159 0.056111
C49   C     C_R   0.626054 0.242917 0.589586 0.035476
C50   C     C_R   0.099873 0.692778 0.912332 -0.001878
C51   C     C_R   0.297633 0.611262 0.446636 0.583934
C52   C     C_R   0.150992 0.741103 0.895380 0.217856
C53   C     C_R   0.172433 0.729038 0.856080 -0.082452
C54   C     C_R   0.148114 0.666852 0.833653 -0.059478
C55   C     C_R   0.112634 0.607513 0.851253 -0.060820
C56   C     C_R   0.090789 0.617840 0.890288 0.192510
C57   C     C_R   0.248239 0.649591 0.774444 -0.063080
C58   C     C_R   0.256889 0.645963 0.734701 -0.062759
C59   C     C_R   0.174772 0.658502 0.711803 0.082678
C60   C     C_R   0.082354 0.677305 0.728920 0.323097
C61   C     C_R   0.074441 0.679652 0.768768 -0.038656
C62   C     C_R   0.608313 0.590441 0.445403 0.568314
C63   C     C_R   0.157468 0.665063 0.791709 -0.017638
C64   C     C_R   0.170746 0.734609 0.648468 0.232090
C65   C     C_R   0.201649 0.722549 0.610210 -0.070790
C66   C     C_R   0.261191 0.540773 0.613761 -0.102921
C67   C     C_R   0.232276 0.551087 0.652254 0.241583
C68   C     C_R   0.189193 0.648476 0.670068 0.036191
C69   C     C_R   0.250056 0.625185 0.592968 -0.064100
C70   C     C_R   0.693787 0.717978 0.090945 -0.029111
C71   C     C_R   0.615706 0.801492 0.110978 -0.124997
C72   C     C_R   0.595076 0.790718 0.148983 -0.136736
C73   C     C_R   0.588269 0.302535 0.443681 0.569784
C74   C     C_R   0.651577 0.696424 0.167494 0.001394
C75   C     C_R   0.725629 0.609914 0.146790 0.266533
C76   C     C_R   0.744934 0.621611 0.108525 -0.086409
C77   C     C_R   0.601121 0.636856 0.225652 -0.004392
C78   C     C_R   0.600002 0.628082 0.265349 0.259028
C79   C     C_R   0.636251 0.679670 0.288941 0.069329
C80   C     C_R   0.675420 0.737992 0.272357 0.245867
C81   C     C_R   0.677424 0.745114 0.232637 -0.065041
C82   C     C_R   0.641246 0.693943 0.209206 -0.021380
C83   C     C_R   0.542828 0.731522 0.351744 0.275521
C84   C     C_R   0.632985 0.621345 0.592170 0.032192
C85   C     C_R   0.539066 0.708375 0.390169 -0.126292
C86   C     C_R   0.718480 0.575274 0.387848 0.243671
C87   C     C_R   0.721653 0.597081 0.349279 -0.059133
C88   C     C_R   0.633619 0.671491 0.330765 0.036871
C89   C     C_R   0.624638 0.627169 0.408207 -0.022034
C90   C     C_R   0.700228 0.099978 0.088301 -0.019448
C91   C     C_R   0.777546 0.111816 0.106142 -0.121932
C92   C     C_R   0.765045 0.147426 0.143726 -0.129775
C93   C     C_R   0.674930 0.172517 0.163888 0.031129
C94   C     C_R   0.593540 0.169371 0.145094 0.244139
C95   C     C_R   0.703237 0.544365 0.616537 -0.130103
C96   C     C_R   0.606454 0.133683 0.107383 -0.077109
C97   C     C_R   0.601764 0.275156 0.223606 -0.025756
C98   C     C_R   0.596516 0.280918 0.263381 -0.068197
C99   C     C_R   0.662826 0.195892 0.285469 0.028412
C100  C     C_R   0.738169 0.105272 0.267475 0.285798
C101  C     C_R   0.743238 0.100603 0.227542 -0.069547
C102  C     C_R   0.674093 0.184367 0.205597 0.010174
C103  C     C_R   0.723686 0.218960 0.348089 -0.053357
C104  C     C_R   0.710925 0.239364 0.387233 0.237938
C105  C     C_R   0.554587 0.228920 0.385185 -0.122298
C106  C     C_R   0.711061 0.565936 0.654612 -0.069793
C107  C     C_R   0.569888 0.204301 0.346160 0.256065
C108  C     C_R   0.652167 0.205083 0.327241 -0.006140
C109  C     C_R   0.621637 0.251508 0.405793 -0.024236
C110  C     C_R   0.081736 0.710668 0.094717 -0.020696
C111  C     C_R   0.099971 0.618091 0.110830 -0.118238
C112  C     C_R   0.133143 0.595290 0.148524 -0.135484
C113  C     C_R   0.148206 0.664650 0.170733 -0.005450
C114  C     C_R   0.134963 0.755993 0.154220 0.210377
C115  C     C_R   0.103627 0.776907 0.116073 -0.095960
C116  C     C_R   0.254931 0.631459 0.229223 -0.016147
Cr1   Cr    Cr6+3 0.421670 0.426920 0.499620 1.079721
Cr2   Cr    Cr6+3 0.427030 0.651190 0.500980 1.148817
Cr3   Cr    Cr6+3 0.651280 0.421870 0.499380 1.193584
Cr4   Cr    Cr6+3 0.910810 0.908010 0.001130 1.112288
Cr5   Cr    Cr6+3 0.682800 0.909890 0.998370 1.101661
Cr6   Cr    Cr6+3 0.908370 0.682300 0.002180 1.136742
H1    H     H_    0.747697 0.465441 0.606939 0.170837
H2    H     H_    0.889210 0.998897 0.897405 0.186785
H3    H     H_    0.835621 0.121015 0.647532 0.187833
H4    H     H_    0.517351 0.233959 0.673829 0.184391
H5    H     H_    0.470477 0.291659 0.608253 0.175634
H6    H     H_    0.881200 0.038156 0.829981 0.170823
H7    H     H_    0.328243 0.631800 0.721682 0.175298
H8    H     H_    0.312964 0.638223 0.791704 0.178003
H9    H     H_    0.204757 0.771264 0.842614 0.188747
H10   H     H_    0.003328 0.693402 0.781889 0.182783
H11   H     H_    0.191872 0.788590 0.594492 0.199303
H12   H     H_    0.099882 0.554200 0.834318 0.200076
H13   H     H_    0.298941 0.465264 0.600723 0.187477
H14   H     H_    0.575220 0.876725 0.098180 0.162523
H15   H     H_    0.804403 0.556606 0.093018 0.196830
H16   H     H_    0.792299 0.553310 0.333221 0.190000
H17   H     H_    0.572817 0.597511 0.207605 0.181621
H18   H     H_    0.538488 0.857481 0.164665 0.172659
H19   H     H_    0.761885 0.504144 0.673271 0.192291
H20   H     H_    0.709138 0.788859 0.219936 0.161917
H21   H     H_    0.466977 0.750643 0.405413 0.199192
H22   H     H_    0.850455 0.087043 0.092064 0.165567
H23   H     H_    0.545678 0.125664 0.094046 0.177530
H24   H     H_    0.539446 0.351254 0.277078 0.184700
H25   H     H_    0.548546 0.340556 0.206885 0.171096
H26   H     H_    0.541641 0.822182 0.655475 0.181277
H27   H     H_    0.828215 0.149405 0.157918 0.170455
H28   H     H_    0.799507 0.030781 0.213323 0.152492
H29   H     H_    0.788767 0.216118 0.333564 0.202558
H30   H     H_    0.487649 0.234584 0.399135 0.193576
H31   H     H_    0.083935 0.565547 0.094960 0.166565
H32   H     H_    0.090107 0.848326 0.103739 0.183809
H33   H     H_    0.331712 0.619977 0.282292 0.195014
H34   H     H_    0.317623 0.625519 0.212047 0.159815
H35   H     H_    0.142467 0.525496 0.161044 0.171451
H36   H     H_    0.031592 0.651107 0.291437 0.158557
H37   H     H_    0.014940 0.661670 0.221337 0.141410
H38   H     H_    0.272856 0.472818 0.406234 0.194980
H39   H     H_    0.588369 0.861974 0.903548 0.205655
N1    N     N_R   0.643405 0.624065 0.771574 -0.098790
N2    N     N_R   0.636951 0.616846 0.733891 -0.126827
N3    N     N_R   0.665320 0.754880 0.725492 -0.123947
N4    N     N_R   0.672708 0.761568 0.763278 -0.083754
O1    O     O_R   0.502070 0.323090 0.541280 -0.514859
O2    O     O_R   0.520720 0.641670 0.461580 -0.509539
O3    O     O_R   0.674120 0.502090 0.457500 -0.417809
O4    O     O_R   0.640110 0.338380 0.459630 -0.432990
O5    O     O_3   0.499990 0.499990 0.499990 -0.304824
O6    O     O_R   0.017640 0.822070 0.960410 -0.447803
O7    O     O_R   0.822000 0.989470 0.960340 -0.501714
O8    O     O_R   0.666920 0.007430 0.955290 -0.442867
O9    O     O_R   0.694410 0.812480 0.959650 -0.516042
O10   O     O_R   0.831550 0.656950 0.958960 -0.411107
O11   O     O_R   0.998590 0.685540 0.963930 -0.450154
O12   O     O_R   0.338340 0.520690 0.539540 -0.500315
O13   O     O_R   0.008220 0.831200 0.045060 -0.501011
O14   O     O_R   0.813270 0.997930 0.038810 -0.499867
O15   O     O_R   0.657500 0.016560 0.039940 -0.499472
O16   O     O_R   0.685680 0.820940 0.038120 -0.498920
O17   O     O_R   0.822130 0.666070 0.043610 -0.505123
O18   O     O_R   0.989860 0.694000 0.042400 -0.499350
O19   O     O_3   0.833990 0.833400 0.000560 -0.291704
O20   O     O_R   0.324760 0.674070 0.543580 -0.478782
O21   O     O_R   0.522400 0.640310 0.540110 -0.449323
O22   O     O_R   0.675940 0.500630 0.542210 -0.499647
O23   O     O_R   0.641790 0.337020 0.538150 -0.447016
O24   O     O_R   0.500260 0.324550 0.456580 -0.515849
O25   O     O_R   0.336660 0.522040 0.461020 -0.513028
O26   O     O_R   0.322940 0.675540 0.458880 -0.439101
S1    S     S_3+6 0.651505 0.364884 0.714041 0.077863
O27   O     O_2   0.545260 0.441132 0.727566 -0.173796
O28   O     O_2   0.725695 0.393500 0.731202 -0.202555
O29   O     O_3   0.655131 0.373290 0.666174 -0.548497
H40   H     H_    0.727392 0.351971 0.660028 0.339550
Cl1   Cl    Cl    0.661070 0.326570 0.803485 -0.364835
Cl2   Cl    Cl    0.506452 0.205543 0.822586 -0.360853
Cl3   Cl    Cl    0.757232 0.957907 0.689432 -0.392482
Cl4   Cl    Cl    0.777516 0.922175 0.778686 -0.469216
Cl5   Cl    Cl    0.493687 0.826403 0.576822 -0.490659
Cl6   Cl    Cl    0.830398 0.167816 0.568818 -0.484290
S2    S     S_3+6 0.192234 0.815225 0.921660 0.058635
O30   O     O_2   0.106463 0.924557 0.923575 -0.251611
O31   O     O_2   0.222636 0.773981 0.961500 -0.239837
O32   O     O_3   0.293719 0.811133 0.899616 -0.483186
H41   H     H_    0.310161 0.856492 0.915102 0.393450
Cl7   Cl    Cl    0.051500 0.534583 0.909167 -0.434652
S3    S     S_3+6 0.259481 0.439411 0.678069 0.039347
O33   O     O_2   0.345406 0.415255 0.705595 -0.256272
O34   O     O_2   0.166180 0.457118 0.700110 -0.198032
O35   O     O_3   0.294648 0.339450 0.648019 -0.532599
H42   H     H_    0.317039 0.279340 0.664831 0.384979
Cl8   Cl    Cl    0.976405 0.696189 0.701265 -0.384003
Cl9   Cl    Cl    0.114942 0.857867 0.669300 -0.496329
Cl10  Cl    Cl    0.842158 0.496681 0.912248 -0.355474
Cl11  Cl    Cl    0.556331 0.548767 0.284660 -0.628388
Cl12  Cl    Cl    0.723133 0.802151 0.300656 -0.464319
S4    S     S_3+6 0.431830 0.832026 0.330134 0.104146
O36   O     O_2   0.355745 0.898970 0.360096 -0.159300
O37   O     O_2   0.461249 0.896099 0.306250 -0.228020
O38   O     O_3   0.377628 0.781239 0.301909 -0.483159
H43   H     H_    0.328581 0.838447 0.285671 0.411841
S5    S     S_3+6 0.801623 0.488729 0.168416 0.017559
O39   O     O_2   0.842674 0.501538 0.206066 -0.255351
O40   O     O_2   0.736601 0.440128 0.175101 -0.280851
O41   O     O_3   0.900679 0.411609 0.139764 -0.512153
H44   H     H_    0.936421 0.345285 0.153302 0.393344
Cl13  Cl    Cl    0.833846 0.481256 0.408632 -0.405686
S6    S     S_3+6 0.486094 0.172486 0.321630 0.113252
O42   O     O_2   0.416930 0.159702 0.349353 -0.174835
O43   O     O_2   0.421953 0.256040 0.293927 -0.222168
O44   O     O_3   0.555946 0.062318 0.297169 -0.424620
H45   H     H_    0.506409 0.056480 0.280092 0.401714
S7    S     S_3+6 0.826901 0.997280 0.293761 0.085767
O45   O     O_2   0.912389 0.014549 0.306814 -0.186297
O46   O     O_2   0.775893 0.982294 0.328141 -0.176400
O47   O     O_3   0.875381 0.891792 0.265923 -0.532247
H46   H     H_    0.914300 0.834480 0.283726 0.387856
Cl14  Cl    Cl    0.808681 0.250943 0.410711 -0.383468
Cl15  Cl    Cl    0.479385 0.197295 0.169150 -0.544405
Cl16  Cl    Cl    0.137714 0.841304 0.325536 -0.349715
S8    S     S_3+6 0.848195 0.499655 0.820063 0.117206
O48   O     O_2   0.808735 0.425725 0.816888 -0.154296
O49   O     O_2   0.863806 0.528739 0.780591 -0.248768
O50   O     O_3   0.962797 0.441689 0.842055 -0.417865
H47   H     H_    0.006216 0.380042 0.826256 0.389897
Cl17  Cl    Cl    0.227396 0.439877 0.331678 -0.445267
S9    S     S_3+6 0.147313 0.850008 0.181045 0.035091
O51   O     O_2   0.259150 0.813372 0.187458 -0.234095
O52   O     O_2   0.100837 0.949796 0.159885 -0.267348
O53   O     O_3   0.088695 0.869805 0.223766 -0.431544
H48   H     H_    0.015365 0.896945 0.217575 0.360362
S10   S     S_3+6 0.150546 0.843017 0.418316 0.139049
O54   O     O_2   0.235000 0.868979 0.418203 -0.201858
O55   O     O_2   0.055974 0.929509 0.400732 -0.132608
O56   O     O_3   0.122711 0.829049 0.463742 -0.497935
H49   H     H_    0.110593 0.892323 0.477198 0.388640
S11   S     S_3+6 0.509166 0.895821 0.828802 0.084107
O57   O     O_2   0.434952 0.962573 0.859325 -0.209462
O58   O     O_2   0.549227 0.955950 0.808093 -0.185342
O59   O     O_3   0.447641 0.859528 0.797626 -0.500293
H50   H     H_    0.397703 0.923356 0.784602 0.388514
S12   S     S_3+6 0.511257 0.195070 0.915000 0.116245
O60   O     O_2   0.464162 0.127304 0.914516 -0.203305
O61   O     O_2   0.532184 0.212484 0.955666 -0.260547
O62   O     O_3   0.427847 0.309401 0.896200 -0.423905
H51   H     H_    0.363670 0.333421 0.911057 0.388561

loop_
_geom_bond_atom_site_label_1
_geom_bond_atom_site_label_2
_ccdc_geom_bond_type
C62   O3    A    
C55   C56   A    
C75   C76   A    
C101  C102  A    
C97   H25   S    
C41   C42   A    
C101  H28   S    
C64   Cl9   S    
C111  C112  A    
C87   C88   A    
S11   O59   S    
S5    O39   D    
C85   H21   S    
C114  C115  A    
Cr2   O21   S    
C39   C41   A    
C53   C54   A    
C52   C53   A    
C96   H23   S    
C105  C107  A    
C46   C49   A    
C44   H4    S    
S9    O51   D    
S10   O54   D    
C24   S8    S    
C5    C6    A    
C64   C68   A    
N3    N4    A    
C36   H2    S    
Cr4   O14   S    
C34   C35   A    
C3    C116  A    
C78   Cl11  S    
C80   Cl12  S    
C104  C109  A    
C22   N1    A    
Cr6   O11   S    
S2    O31   D    
C66   C69   A    
C54   C63   S    
Cr2   O5    S    
C58   H7    S    
C16   C30   S    
S8    O48   D    
C98   C99   A    
C62   C89   S    
C97   C98   A    
Cr2   O2    S    
C25   C30   A    
S3    O35   S    
C29   O21   A    
S6    O44   S    
C61   C63   A    
O56   H49   S    
C32   S12   S    
C2    C13   A    
C60   Cl8   S    
C110  C111  A    
C92   C93   A    
S10   O55   D    
C103  C104  A    
C61   H10   S    
Cr3   O23   S    
C22   N4    A    
C1    O12   A    
Cr1   O5    S    
Cr5   O8    S    
C6    C7    A    
O41   H44   S    
S12   O60   D    
S8    O49   D    
C47   C48   A    
C50   C52   A    
S7    O45   D    
C47   H3    S    
C103  C108  A    
C53   H9    S    
C37   Cl1   S    
C8    C12   A    
C4    C12   S    
C24   C28   A    
O44   H45   S    
O50   H47   S    
C40   O1    A    
C97   C102  A    
C71   H14   S    
C17   O11   A    
C103  H29   S    
S11   O57   D    
Cr6   O19   S    
C83   C88   A    
C18   O15   A    
C59   C60   A    
C90   C91   A    
C22   C28   S    
C1    C69   S    
S7    O46   D    
C19   O16   A    
S6    O42   D    
C74   C82   S    
C19   O17   A    
C33   Cl2   S    
C79   C88   S    
Cr2   O20   S    
Cr1   O12   S    
C57   C63   A    
Cr5   O15   S    
C23   N2    A    
C76   H15   S    
S2    O32   S    
S9    O52   D    
C74   C75   A    
C15   O8    A    
C67   C68   A    
C18   C90   S    
S1    O29   S    
C21   Cl5   S    
C57   H8    S    
C66   C67   A    
C24   C25   A    
C29   C84   S    
C72   C74   A    
C10   C14   A    
C67   S3    S    
C91   C92   A    
C85   C89   A    
O32   H41   S    
C8    C9    A    
C20   O13   A    
O29   H40   S    
C81   C82   A    
S10   O56   S    
S11   O58   D    
C58   C59   A    
C77   C78   A    
C114  S9    S    
C15   C31   S    
C2    C106  A    
C50   C56   A    
C79   C80   A    
C32   C33   A    
Cr4   O13   S    
C60   C61   A    
C84   C95   A    
S1    O28   D    
C7    C116  A    
C37   C43   A    
C17   C50   S    
S6    O43   D    
C9    C14   A    
Cr5   O9    S    
C37   C38   A    
C99   C108  S    
C95   C106  A    
C59   C68   S    
S4    O37   D    
C83   S4    S    
Cr2   O26   S    
C31   C32   A    
C56   Cl7   S    
C21   C84   A    
C45   C49   A    
Cr1   O1    S    
C107  C108  A    
S8    O50   S    
C3    H33   S    
S3    O33   D    
C26   C27   A    
C13   C21   A    
C93   C94   A    
C94   C96   A    
C111  H31   S    
C70   C71   A    
C51   O25   A    
Cr1   O24   S    
Cr3   O4    S    
Cr5   O19   S    
C20   C110  S    
C16   O10   A    
C81   H20   S    
C83   C85   A    
C18   O14   A    
C91   H22   S    
S2    O30   D    
C38   S1    S    
C10   C11   A    
C20   O18   A    
C115  H32   S    
C70   C76   A    
S7    O47   S    
C112  H35   S    
C92   H27   S    
Cr6   O17   S    
C42   C43   A    
C72   H18   S    
C73   O4    A    
C3    C4    A    
S5    O41   S    
S4    O36   D    
C51   O26   A    
C44   C45   A    
C106  H19   S    
Cr5   O16   S    
C113  C114  A    
C16   O9    A    
C54   C55   A    
C104  Cl14  S    
C105  H30   S    
C105  C109  A    
C46   C47   A    
Cr6   O18   S    
S9    O53   S    
C86   C87   A    
C86   Cl13  S    
C94   Cl15  S    
C25   Cl10  S    
Cr4   O7    S    
C34   C43   S    
C77   H17   S    
C27   S11   S    
C80   C81   A    
C6    H37   S    
C86   C89   A    
S5    O40   D    
C93   C102  S    
C75   S5    S    
O62   H51   S    
C17   O6    A    
Cr4   O6    S    
C90   C96   A    
O59   H50   S    
C40   O23   A    
C1    O20   A    
N1    N2    A    
C55   H12   S    
C98   H24   S    
Cr6   O10   S    
C26   H39   S    
C73   O24   A    
C41   Cl3   S    
C9    H38   S    
C99   C100  A    
C52   S2    S    
S1    O27   D    
C7    C113  S    
C42   Cl4   S    
C71   C72   A    
C44   C48   A    
C64   C65   A    
S4    O38   S    
C78   C79   A    
C57   C58   A    
C38   C39   A    
C23   N3    A    
C77   C82   A    
C45   H5    S    
S12   O62   S    
C65   C69   A    
C4    C5    A    
C110  C115  A    
O47   H46   S    
C100  C101  A    
S3    O34   D    
C33   C34   A    
C15   O7    A    
C62   O2    A    
C112  C113  A    
C73   C109  S    
C35   H6    S    
O38   H43   S    
Cr3   O22   S    
C116  H34   S    
Cr1   O25   S    
Cr3   O5    S    
C66   H13   S    
C29   O22   A    
C46   Cl6   S    
O35   H42   S    
C8    Cl17  S    
C14   C51   S    
S12   O61   D    
C5    H36   S    
C107  S6    S    
C2    C23   S    
Cr4   O19   S    
C11   Cl16  S    
C31   C36   A    
O53   H48   S    
C100  S7    S    
C35   C36   A    
C87   H16   S    
C13   H26   S    
C10   S10   S    
C19   C70   S    
Cr3   O3    S    
C65   H11   S    
C40   C49   S    
C11   C12   A    
C95   H1    S    
C39   C48   S    
C27   C28   A    
C26   C30   A    
