data_mof_unit_6235.cif
_audit_creation_date              2012-10-26T20:20:38-0400
_audit_creation_method            fapswitch 2.2
_symmetry_space_group_name_H-M    P1
_symmetry_Int_Tables_number       1
_space_group_crystal_system       triclinic
_cell_length_a                    8.728936
_cell_length_b                    10.829616
_cell_length_c                    9.567582
_cell_angle_alpha                 89.58792
_cell_angle_beta                  97.530331
_cell_angle_gamma                 91.068138
_cell_volume                      896.467065748

loop_
_atom_site_label
_atom_site_type_symbol
_atom_type_description
_atom_site_fract_x
_atom_site_fract_y
_atom_site_fract_z
_atom_type_partial_charge
Br1   Br    Br    0.261560 0.307972 0.814168 -0.516911
Br2   Br    Br    0.738440 0.692028 0.185832 -0.516911
C1    C     C_R   0.499834 0.262217 0.500231 0.561326
C2    C     C_R   0.509914 0.063142 0.628035 -0.107216
C3    C     C_R   0.500209 0.871715 0.499681 0.024621
C4    C     C_R   0.499791 0.128285 0.500319 0.024621
C5    C     C_R   0.403597 0.422883 0.064680 0.021602
C6    C     C_R   0.596403 0.577117 0.935320 0.021602
C7    C     C_R   0.403023 0.422341 0.916716 0.258173
C8    C     C_R   0.596977 0.577659 0.083284 0.258173
C9    C     C_R   0.500166 0.737783 0.499769 0.561326
C10   C     C_R   0.204033 0.499721 0.464058 0.560166
C11   C     C_R   0.795967 0.500278 0.535942 0.560165
C12   C     C_2   0.038356 0.498913 0.444224 -0.123765
C13   C     C_2   0.961644 0.501087 0.555776 -0.123765
C14   C     C_R   0.489898 0.064603 0.372268 -0.124909
C15   C     C_R   0.510102 0.935397 0.627732 -0.124909
C16   C     C_R   0.490086 0.936858 0.371965 -0.107216
Cu1   Cu    Cu3+1 0.500000 0.500020 0.640660 1.020069
Cu2   Cu    Cu3+1 0.500000 0.499980 0.359340 1.020069
H1    H     H_    0.979248 0.496246 0.336944 0.164442
H2    H     H_    0.020752 0.503754 0.663056 0.164442
H3    H     H_    0.481635 0.113188 0.272268 0.144670
H4    H     H_    0.518365 0.886812 0.727732 0.144670
H5    H     H_    0.481812 0.889432 0.271900 0.168940
H6    H     H_    0.518187 0.110568 0.728100 0.168940
H7    H     H_    0.326676 0.361124 0.112884 0.146613
H8    H     H_    0.673324 0.638876 0.887116 0.146613
N1    N     N_R   0.500040 0.500030 0.852080 -0.243554
N2    N     N_R   0.499960 0.499970 0.147920 -0.243554
O1    O     O_R   0.499990 0.319660 0.618740 -0.464732
O2    O     O_R   0.500010 0.680340 0.381260 -0.464732
O3    O     O_R   0.499990 0.319630 0.381170 -0.522276
O4    O     O_R   0.500010 0.680370 0.618830 -0.522276
O5    O     O_R   0.274840 0.500010 0.591370 -0.462650
O6    O     O_R   0.725160 0.499990 0.408630 -0.462650
O7    O     O_R   0.274830 0.499980 0.353800 -0.504610
O8    O     O_R   0.725170 0.500020 0.646200 -0.504610

loop_
_geom_bond_atom_site_label_1
_geom_bond_atom_site_label_2
_ccdc_geom_bond_type
Br2   C8    S    
C2    H6    S    
Cu1   O8    S    
Cu2   O3    S    
C8    N2    A    
Cu1   Cu2   S    
C9    O4    A    
C7    N1    A    
C1    C4    S    
Cu1   O1    S    
C5    H7    S    
C5    N2    A    
Cu2   N2    S    
C10   O5    A    
C1    O1    A    
Cu2   O7    S    
C11   O8    A    
C16   H5    S    
C2    C15   A    
C12   H1    S    
C6    C8    A    
C10   C12   S    
C9    O2    A    
C3    C9    S    
C14   H3    S    
C11   C13   S    
C6    H8    S    
C15   H4    S    
C3    C15   A    
C6    N1    A    
C4    C14   A    
Cu1   N1    S    
Br1   C7    S    
C11   O6    A    
C14   C16   A    
C2    C4    A    
Cu2   O2    S    
C10   O7    A    
C5    C7    A    
C1    O3    A    
C12   C13   D    
Cu1   O5    S    
C3    C16   A    
C13   H2    S    
Cu1   O4    S    
Cu2   O6    S    
