data_mof_unit_65498.cif
_audit_creation_date              2013-03-05T17:03:05-0500
_audit_creation_method            fapswitch 2.2
_symmetry_space_group_name_H-M    P1
_symmetry_Int_Tables_number       1
_space_group_crystal_system       triclinic
_cell_length_a                    16.24484
_cell_length_b                    16.895823
_cell_length_c                    27.693796
_cell_angle_alpha                 91.752165
_cell_angle_beta                  91.395314
_cell_angle_gamma                 87.054198
_cell_volume                      7585.54525171

loop_
_atom_site_label
_atom_site_type_symbol
_atom_site_description
_atom_site_fract_x
_atom_site_fract_y
_atom_site_fract_z
_atom_type_partial_charge
O1    O     O_R   0.422540 0.612660 0.497870 -0.559780
O2    O     O_R   0.577460 0.387340 0.502130 -0.558810
O3    O     O_R   0.561850 0.618900 0.501690 -0.601852
O4    O     O_R   0.438150 0.381100 0.498310 -0.598748
C1    C     C_R   0.488336 0.652449 0.498700 0.949378
C2    C     C_R   0.511701 0.347307 0.500960 0.951353
O5    O     O_R   0.430360 0.496870 0.569340 -0.598452
O6    O     O_R   0.569640 0.503130 0.430660 -0.614743
O7    O     O_R   0.569660 0.503110 0.573150 -0.580098
O8    O     O_R   0.430340 0.496890 0.426850 -0.572011
C3    C     C_R   0.499625 0.499972 0.593838 0.944858
C4    C     C_R   0.500839 0.501778 0.406140 0.961268
Zn1   Zn    Zn3+2 0.406980 0.495830 0.497450 1.103850
Zn2   Zn    Zn3+2 0.593020 0.504170 0.502550 1.096577
C5    C     C_R   0.534198 0.569562 0.822738 0.642550
C6    C     C_R   0.539007 0.445863 0.178475 0.636548
O9    O     O_2   0.545852 0.635236 0.797693 -0.497216
O10   O     O_2   0.548367 0.378496 0.203484 -0.497119
N1    N     N_R   0.516443 0.500584 0.798792 -0.330987
N2    N     N_R   0.523862 0.516720 0.202309 -0.332124
C7    C     C_R   0.505965 0.432285 0.822542 0.660562
C8    C     C_R   0.516546 0.586623 0.178694 0.666948
C9    C     C_R   0.574268 0.460381 0.720214 0.315595
C10   C     C_R   0.579541 0.545339 0.283867 0.322738
C11   C     C_R   0.567823 0.459159 0.669963 -0.164832
C12   C     C_R   0.571923 0.542429 0.333779 -0.176633
C13   C     C_R   0.439776 0.538618 0.673091 -0.192147
C14   C     C_R   0.440440 0.482284 0.323685 -0.182331
C15   C     C_R   0.442208 0.537868 0.723539 0.322217
C16   C     C_R   0.444383 0.487437 0.273570 0.318684
C17   C     C_R   0.510576 0.499255 0.747203 0.049986
C18   C     C_R   0.515423 0.517400 0.253562 0.051465
C19   C     C_R   0.531491 0.502392 0.898673 -0.072748
C20   C     C_R   0.537204 0.513969 0.102750 -0.072628
C21   C     C_R   0.539667 0.572369 0.873106 -0.016567
C22   C     C_R   0.543619 0.442859 0.128248 -0.015440
C23   C     C_R   0.553618 0.643539 0.898149 -0.078725
C24   C     C_R   0.554275 0.370223 0.103259 -0.077627
C25   C     C_R   0.517879 0.430271 0.873064 -0.148551
C26   C     C_R   0.527548 0.587510 0.128371 -0.150063
C27   C     C_R   0.501053 0.498052 0.646392 -0.160294
C28   C     C_R   0.504024 0.508843 0.353762 -0.146291
C29   C     C_R   0.537935 0.582414 0.026093 -0.002407
C30   C     C_R   0.533476 0.434030 0.975390 -0.002473
C31   C     C_R   0.542178 0.436577 0.026409 0.079003
C32   C     C_R   0.543276 0.578929 0.975056 0.078884
C33   C     C_R   0.539443 0.511072 0.051619 0.094021
C34   C     C_R   0.536322 0.505023 0.949842 0.093865
C35   C     C_R   0.530085 0.655130 0.052413 -0.229414
C36   C     C_R   0.520793 0.362667 0.949142 -0.229940
C37   C     C_R   0.526117 0.658520 0.102641 0.341877
C38   C     C_R   0.514221 0.359769 0.898904 0.342702
O11   O     O_2   0.496676 0.654085 0.203986 -0.439801
O12   O     O_2   0.482669 0.367579 0.797063 -0.446578
C39   C     C_R   0.555121 0.646992 0.948185 -0.167639
C40   C     C_R   0.553373 0.366951 0.053251 -0.168385
C41   C     C_R   0.479006 0.738101 0.497060 -0.190967
C42   C     C_R   0.520832 0.261141 0.500074 -0.194392
C43   C     C_R   0.533609 0.782169 0.525056 -0.199633
C44   C     C_R   0.459913 0.219352 0.475635 -0.199621
C45   C     C_R   0.526740 0.863616 0.525453 -0.139285
C46   C     C_R   0.466228 0.138004 0.472147 -0.142575
C47   C     C_R   0.465990 0.902771 0.496741 0.188183
C48   C     C_R   0.532737 0.096031 0.494578 0.187547
C49   C     C_R   0.408106 0.859607 0.469804 0.209087
C50   C     C_R   0.596492 0.136810 0.517857 0.204595
C51   C     C_R   0.415000 0.776283 0.469522 0.197891
C52   C     C_R   0.590441 0.220182 0.520982 0.208101
N3    N     N_2   0.464388 0.985595 0.492768 -0.110936
N4    N     N_2   0.534011 0.012875 0.497333 -0.106393
H1    H     H_    0.406983 0.249421 0.458822 0.245063
H2    H     H_    0.581477 0.753701 0.547117 0.241564
N5    N     N_R   0.716920 0.509720 0.505950 -0.212114
N6    N     N_R   0.283080 0.490280 0.494050 -0.208905
C53   C     C_R   0.762261 0.475960 0.468557 0.266026
C54   C     C_R   0.237468 0.523151 0.531722 0.277564
C55   C     C_R   0.849160 0.481677 0.467590 0.145827
C56   C     C_R   0.150215 0.519268 0.532267 0.145148
C57   C     C_R   0.890489 0.519349 0.506767 0.145698
C58   C     C_R   0.108517 0.482653 0.493049 0.138685
C59   C     C_R   0.843177 0.550785 0.544791 -0.283147
C60   C     C_R   0.155599 0.450666 0.455283 -0.279719
C61   C     C_R   0.757090 0.545473 0.544325 0.362764
C62   C     C_R   0.241921 0.455079 0.455587 0.364224
N7    N     N_2   0.977884 0.528960 0.509315 -0.049265
N8    N     N_2   0.021079 0.473342 0.490536 -0.049022
H3    H     H_    0.391126 0.572300 0.654665 0.252731
H4    H     H_    0.387888 0.457232 0.339226 0.254271
H5    H     H_    0.417646 0.107724 0.452887 0.223912
H6    H     H_    0.570060 0.896302 0.547574 0.217691
N9    N     N_R   0.346278 0.900393 0.440391 0.246047
O13   O     O_R   0.332457 0.876792 0.395898 -0.248175
O14   O     O_R   0.306309 0.963661 0.457179 -0.304277
N10   N     N_R   0.664182 0.093299 0.540979 0.243379
O15   O     O_R   0.688578 0.113121 0.584589 -0.249970
O16   O     O_R   0.699068 0.031194 0.519493 -0.297515
N11   N     N_R   0.358313 0.731080 0.440851 0.252812
O17   O     O_R   0.279291 0.741954 0.446784 -0.258879
O18   O     O_R   0.385420 0.681170 0.407477 -0.352244
N12   N     N_R   0.653802 0.262416 0.545993 0.258389
O19   O     O_R   0.730135 0.252207 0.532997 -0.250242
O20   O     O_R   0.636038 0.307341 0.583675 -0.357891
N13   N     N_R   0.277703 0.558985 0.572490 0.243322
O21   O     O_R   0.308959 0.627714 0.568476 -0.323549
O22   O     O_R   0.264870 0.533222 0.615322 -0.324212
N14   N     N_R   0.722004 0.434375 0.429753 0.253312
O23   O     O_R   0.695608 0.364467 0.436911 -0.296820
O24   O     O_R   0.729865 0.456616 0.385614 -0.320252
N15   N     N_R   0.105652 0.550167 0.573411 0.255762
O25   O     O_R   0.062787 0.503572 0.598316 -0.287285
O26   O     O_R   0.111502 0.623801 0.587660 -0.247688
N16   N     N_R   0.893763 0.451117 0.426395 0.253000
O27   O     O_R   0.935891 0.498118 0.401340 -0.285825
O28   O     O_R   0.889610 0.377087 0.412622 -0.246241
H7    H     H_    0.873552 0.579817 0.575242 0.245062
H8    H     H_    0.124616 0.421607 0.425061 0.251007
N17   N     N_R   0.713025 0.576608 0.585269 0.241868
O29   O     O_R   0.737542 0.556301 0.628430 -0.319738
O30   O     O_R   0.661638 0.637437 0.580635 -0.374511
N18   N     N_R   0.284554 0.422476 0.414423 0.228732
O31   O     O_R   0.251252 0.431602 0.371598 -0.321553
O32   O     O_R   0.342041 0.367120 0.419983 -0.386161
N19   N     N_R   0.375622 0.576636 0.750115 0.248088
O33   O     O_R   0.330329 0.633673 0.730850 -0.264557
O34   O     O_R   0.354341 0.550168 0.791400 -0.331423
N20   N     N_R   0.376650 0.461510 0.243535 0.243989
O35   O     O_R   0.327788 0.409678 0.259105 -0.261025
O36   O     O_R   0.358516 0.494692 0.202581 -0.332963
H9    H     H_    0.562289 0.697495 0.879143 0.211009
H10   H     H_    0.561871 0.315108 0.122256 0.211561
H11   H     H_    0.620245 0.565055 0.357143 0.225280
H12   H     H_    0.616407 0.429520 0.649059 0.243737
N21   N     N_R   0.653060 0.575237 0.264592 0.251894
O37   O     O_R   0.694209 0.627367 0.289354 -0.276038
O38   O     O_R   0.684243 0.544769 0.224942 -0.323795
N22   N     N_R   0.646062 0.423103 0.743233 0.248103
O39   O     O_R   0.686089 0.363930 0.721686 -0.254180
O40   O     O_R   0.677010 0.452950 0.783134 -0.330710
N23   N     N_R   0.524783 0.735059 0.126608 0.253895
O41   O     O_R   0.585938 0.753452 0.155313 -0.251475
O42   O     O_R   0.472812 0.791043 0.112123 -0.295324
N24   N     N_R   0.508203 0.283610 0.875089 0.253297
O43   O     O_R   0.567652 0.255978 0.847700 -0.251199
O44   O     O_R   0.453672 0.235669 0.888758 -0.297401
H13   H     H_    0.525652 0.711244 0.034848 0.185251
H14   H     H_    0.514514 0.307419 0.966787 0.185422
H15   H     H_    0.567659 0.703756 0.964768 0.168190
H16   H     H_    0.563370 0.308842 0.036649 0.168647

loop_
_geom_bond_atom_site_label_1
_geom_bond_atom_site_label_2
_geom_bond_distance
_ccdc_geom_bond_type
C10   N21   1.440856 S    
C50   C52   1.407175 A    
C47   C49   1.405570 A    
N20   O35   1.301588 A    
C13   C15   1.397125 A    
C2    C42   1.455292 S    
N1    C17   1.429120 S    
C16   N20   1.441231 S    
N11   O17   1.301093 A    
N19   O33   1.301596 A    
N7    N8    1.251399 D    
C45   H6    1.083396 S    
O5    C3    1.302239 A    
C19   C25   1.415599 A    
N6    C54   1.380510 A    
C9    N22   1.440887 S    
O1    C1    1.290966 A    
C24   H10   1.083571 S    
C6    N2    1.363356 A    
N1    C7    1.365740 A    
C10   C12   1.393345 A    
N17   O30   1.297791 A    
N6    C62   1.379442 A    
C7    O12   1.348578 S    
C56   C58   1.409728 A    
N19   O34   1.301196 A    
N14   O23   1.299544 A    
C42   C44   1.394961 A    
C46   H5    1.083236 S    
C44   C46   1.373615 A    
C5    C21   1.395064 A    
O4    Zn1   1.978870 S    
C45   C47   1.403817 A    
N10   O16   1.301321 A    
C46   C48   1.404146 A    
N11   O18   1.301245 A    
C47   N3    1.405898 S    
C31   C40   1.412248 A    
C35   C37   1.393359 A    
C32   C39   1.412551 A    
C14   H4    1.076747 S    
C36   C38   1.392321 A    
C48   N4    1.408437 S    
C20   C22   1.410108 A    
O6    C4    1.294425 A    
C43   H2    1.079669 S    
C50   N10   1.439120 S    
C36   H14   1.077350 S    
C54   N13   1.425284 S    
C31   C33   1.419728 A    
C25   C38   1.412811 A    
N5    C53   1.377701 A    
O2    C2    1.292649 A    
C41   C51   1.414724 A    
N16   O28   1.301060 A    
N16   O27   1.301204 A    
C59   C61   1.405663 A    
N18   O32   1.297147 A    
C8    O11   1.348463 S    
C55   C57   1.413952 A    
C32   C34   1.420185 A    
C43   C45   1.374639 A    
C4    C28   1.461456 S    
Zn2   N5    2.019503 S    
N22   O40   1.301162 A    
C11   C27   1.397492 A    
N9    O13   1.301303 A    
C57   C59   1.394612 A    
C29   C35   1.410894 A    
O6    Zn2   2.017425 S    
C44   H1    1.079035 S    
C49   C51   1.406324 A    
C38   N24   1.434636 S    
C9    C17   1.413652 A    
C40   H16   1.077664 S    
C55   N16   1.434901 S    
C5    N1    1.363520 A    
O7    Zn2   2.001508 S    
C10   C18   1.412739 A    
N9    O14   1.301295 A    
O7    C3    1.290439 A    
C13   C27   1.393586 A    
C39   H15   1.077412 S    
C7    C25   1.409014 A    
C62   N18   1.429518 S    
C8    C26   1.409997 A    
C59   H7    1.083767 S    
N12   O20   1.300829 A    
C35   H13   1.077106 S    
N10   O15   1.301312 A    
N13   O22   1.301122 A    
C13   H3    1.077350 S    
C53   C55   1.420865 A    
O3    Zn2   1.978870 S    
O8    C4    1.300756 A    
C42   C52   1.415986 A    
N2    C8    1.365929 A    
C60   C62   1.407896 A    
N21   O37   1.301585 A    
C20   C26   1.415418 A    
O4    C2    1.298908 A    
O1    Zn1   2.002547 S    
C57   N7    1.437024 S    
N18   O31   1.301681 A    
C12   C28   1.399354 A    
N2    C18   1.428949 S    
C30   C36   1.410422 A    
C49   N9    1.438922 S    
N20   O36   1.301184 A    
C14   C28   1.394613 A    
C21   C23   1.395585 A    
C52   N12   1.434912 S    
C30   C31   1.416096 A    
C54   C56   1.422760 A    
N22   O39   1.301548 A    
O3    C1    1.297237 A    
O8    Zn1   2.001508 S    
N23   O41   1.301409 A    
C5    O9    1.350250 S    
C26   C37   1.412923 A    
C58   N8    1.436905 S    
C1    C41   1.449292 S    
C61   N17   1.428012 S    
N15   O26   1.301092 A    
C60   H8    1.083807 S    
C14   C16   1.396488 A    
C15   C17   1.415925 A    
N17   O29   1.301117 A    
C6    C22   1.394038 A    
C16   C18   1.415437 A    
N23   O42   1.301169 A    
N14   O24   1.300887 A    
C15   N19   1.441251 S    
C22   C24   1.395392 A    
N12   O19   1.301103 A    
C19   C21   1.410223 A    
C58   C60   1.390259 A    
C23   H9    1.083567 S    
C3    C27   1.456358 S    
C56   N15   1.435223 S    
N24   O44   1.301143 A    
C9    C11   1.392611 A    
N3    N4    1.245260 D    
O2    Zn2   2.002547 S    
C29   C32   1.417433 A    
C41   C43   1.393330 A    
C51   N11   1.435738 S    
C23   C39   1.384807 A    
O5    Zn1   2.017419 S    
C24   C40   1.384061 A    
Zn1   N6    2.019502 S    
C53   N14   1.429355 S    
C6    O10   1.350431 S    
N13   O21   1.299945 A    
N21   O38   1.301173 A    
C19   C34   1.416788 A    
N24   O43   1.301405 A    
C20   C33   1.416663 A    
N15   O25   1.301255 A    
C11   H12   1.082921 S    
C29   C33   1.414745 A    
N5    C61   1.373932 A    
C12   H11   1.082588 S    
C30   C34   1.414467 A    
C48   C50   1.405946 A    
C37   N23   1.434809 S    
