data_mof_unit_36675.cif
_audit_creation_date              2012-12-10T17:16:36-0500
_audit_creation_method            fapswitch 2.2
_symmetry_space_group_name_H-M    P1
_symmetry_Int_Tables_number       1
_space_group_crystal_system       triclinic
_cell_length_a                    10.045283
_cell_length_b                    10.678652
_cell_length_c                    10.91509
_cell_angle_alpha                 89.268652
_cell_angle_beta                  94.794685
_cell_angle_gamma                 83.863402
_cell_volume                      1159.80132175

loop_
_atom_site_label
_atom_site_type_symbol
_atom_type_description
_atom_site_fract_x
_atom_site_fract_y
_atom_site_fract_z
_atom_type_partial_charge
C1    C     C_R   0.444333 0.510639 0.267948 0.950819
C2    C     C_R   0.555667 0.489361 0.732052 0.950749
C3    C     C_2   0.412636 0.509473 0.137350 -0.413513
C4    C     C_2   0.587364 0.490527 0.862649 -0.413509
C5    C     C_2   0.511318 0.515174 0.063610 0.522620
C6    C     C_2   0.488684 0.484821 0.936390 0.522615
C7    C     C_2   0.071794 0.492066 0.488123 0.476711
C8    C     C_2   0.928220 0.507875 0.511927 0.476646
C9    C     C_R   0.492555 0.260649 0.489663 0.870817
C10   C     C_R   0.507456 0.739340 0.510380 0.870806
C11   C     C_R   0.651173 0.106468 0.326370 -0.253250
C12   C     C_R   0.348890 0.893452 0.673760 -0.253200
C13   C     C_R   0.766291 0.040394 0.286758 0.657704
C14   C     C_R   0.233796 0.959516 0.713420 0.657476
C15   C     C_R   0.813574 0.922154 0.339047 0.051867
C16   C     C_R   0.186526 0.077787 0.661200 0.051973
C17   C     C_R   0.737621 0.867978 0.423491 -0.236967
C18   C     C_R   0.262481 0.132004 0.576779 -0.236900
C19   C     C_R   0.613561 0.929755 0.455981 0.048136
C20   C     C_R   0.386508 0.070221 0.544208 0.048104
C21   C     C_R   0.579785 0.055171 0.418069 -0.022920
C22   C     C_R   0.420269 0.944787 0.582079 -0.022888
C23   C     C_R   0.522639 0.872045 0.525804 -0.122972
C24   C     C_R   0.477404 0.127924 0.474331 -0.122931
H1    H     H_    0.618307 0.198641 0.285292 0.184957
H2    H     H_    0.381749 0.801256 0.714789 0.184946
H3    H     H_    0.781792 0.780685 0.467134 0.240937
H4    H     H_    0.218314 0.219333 0.533215 0.240955
H5    H     H_    0.688297 0.507397 0.897514 0.201819
H6    H     H_    0.311702 0.492607 0.102484 0.201805
H7    H     H_    0.876733 0.390211 0.381059 0.198111
H8    H     H_    0.123250 0.609860 0.618880 0.198103
N1    N     N_2   0.157300 0.551390 0.551120 -0.215826
N2    N     N_2   0.842700 0.448610 0.448880 -0.215946
O1    O     O_R   0.568940 0.489660 0.307530 -0.546960
O2    O     O_R   0.431060 0.510340 0.692470 -0.546990
O3    O     O_R   0.348880 0.522640 0.340350 -0.566598
O4    O     O_R   0.651120 0.477360 0.659650 -0.566599
O5    O     O_R   0.610030 0.300280 0.483580 -0.635177
O6    O     O_R   0.389970 0.699720 0.516420 -0.635207
O7    O     O_R   0.389970 0.333270 0.516400 -0.589558
O8    O     O_R   0.610030 0.666730 0.483600 -0.589574
Zn1   Zn    Zn3+2 0.646940 0.477980 0.478080 1.036561
Zn2   Zn    Zn3+2 0.353060 0.522020 0.521920 1.036602
C25   C     C_3   0.056983 0.148289 0.695742 -0.342354
C26   C     C_3   0.943055 0.139950 0.595480 -0.824778
H9    H     H_    0.969318 0.177806 0.506426 0.261358
H10   H     H_    0.922086 0.040528 0.584443 0.276862
H11   H     H_    0.850548 0.195939 0.621664 0.272150
H12   H     H_    0.026807 0.110238 0.783268 0.271911
H13   H     H_    0.071681 0.248851 0.710861 0.218639
C27   C     C_3   0.943154 0.851668 0.304584 -0.342240
C28   C     C_3   0.057202 0.860745 0.404543 -0.824417
H14   H     H_    0.077856 0.960314 0.415096 0.277009
H15   H     H_    0.031276 0.823184 0.493843 0.261321
H16   H     H_    0.149769 0.804863 0.378375 0.272069
H17   H     H_    0.928700 0.750968 0.290054 0.218299
H18   H     H_    0.973015 0.889316 0.216764 0.271832
F1    F     F_    0.834465 0.094662 0.201781 -0.650747
F2    F     F_    0.165644 0.905209 0.798388 -0.650822
F3    F     F_    0.365511 0.452078 0.894112 -0.651765
F4    F     F_    0.634494 0.547911 0.105888 -0.651747
F5    F     F_    0.885460 0.585780 0.601498 -0.668432
F6    F     F_    0.114570 0.414098 0.398605 -0.668503

loop_
_geom_bond_atom_site_label_1
_geom_bond_atom_site_label_2
_ccdc_geom_bond_type
C16   C25   S    
C3    H6    S    
C2    C4    S    
C9    C24   S    
C13   F1    S    
C10   C23   S    
C10   O8    A    
C14   F2    S    
C21   C24   A    
C2    O4    A    
C19   C23   A    
C4    H5    S    
C1    O3    A    
H8    N1    S    
O3    Zn2   S    
C28   H15   S    
H7    N2    S    
C15   C27   S    
O4    Zn1   S    
C16   C18   A    
C8    N2    D    
C28   H14   S    
C7    N1    D    
C26   H11   S    
C9    O5    A    
C27   H18   S    
C25   H12   S    
C6    F3    S    
C4    C6    D    
C19   C21   A    
C20   C22   A    
C5    F4    S    
C18   C20   A    
C13   C15   A    
C12   H2    S    
C5    C6    S    
O7    Zn2   S    
C14   C16   A    
C7    F6    S    
O2    Zn2   S    
C11   C13   A    
C7    C8    S    
C27   H17   S    
C25   H13   S    
C8    F5    S    
C17   H3    S    
C26   H10   S    
C12   C22   A    
O6    Zn2   S    
C18   H4    S    
C27   C28   S    
C1    O1    A    
C10   O6    A    
O8    Zn1   S    
C28   H16   S    
C2    O2    A    
C1    C3    S    
C15   C17   A    
C11   H1    S    
C26   H9    S    
O1    Zn1   S    
O5    Zn1   S    
C17   C19   A    
C25   C26   S    
N1    Zn2   S    
C9    O7    A    
C11   C21   A    
C22   C23   A    
N2    Zn1   S    
C20   C24   A    
C12   C14   A    
C3    C5    D    
