data_mof_unit_55919.cif
_audit_creation_date              2012-12-11T15:27:15-0500
_audit_creation_method            fapswitch 2.2
_symmetry_space_group_name_H-M    P1
_symmetry_Int_Tables_number       1
_space_group_crystal_system       triclinic
_cell_length_a                    13.876317
_cell_length_b                    13.993231
_cell_length_c                    27.458705
_cell_angle_alpha                 89.88777
_cell_angle_beta                  90.087016
_cell_angle_gamma                 119.988698
_cell_volume                      4617.97343873

loop_
_atom_site_label
_atom_site_type_symbol
_atom_type_description
_atom_site_fract_x
_atom_site_fract_y
_atom_site_fract_z
_atom_type_partial_charge
C1    C     C_R   0.234823 0.786131 0.569013 0.538235
C2    C     C_R   0.213361 0.448737 0.569029 0.539450
C3    C     C_R   0.551599 0.764732 0.569021 0.536259
C4    C     C_3   0.701766 0.757313 0.786157 -0.219721
C5    C     C_3   0.227803 0.959446 0.779361 -0.221832
C6    C     C_3   0.030226 0.259431 0.778548 -0.220132
C7    C     C_3   0.680086 0.743798 0.730630 -0.218588
C8    C     C_3   0.238711 0.943584 0.724516 -0.221999
C9    C     C_3   0.046774 0.291233 0.724029 -0.207360
C10   C     C_1   0.705354 0.861703 0.859050 -0.078754
C11   C     C_1   0.116540 0.873798 0.852514 -0.077641
C12   C     C_1   0.121625 0.242402 0.852375 -0.078226
C13   C     C_1   0.624308 0.812610 0.659049 -0.060892
C14   C     C_1   0.181941 0.808966 0.658151 -0.061510
C15   C     C_1   0.184989 0.373280 0.658217 -0.048838
C16   C     C_1   0.597310 0.794303 0.616923 -0.031382
C17   C     C_1   0.203222 0.800728 0.616538 -0.026118
C18   C     C_1   0.196686 0.403014 0.616595 -0.024520
C19   C     C_R   0.071743 0.164439 0.941573 0.537215
C20   C     C_R   0.779964 0.886993 0.948898 0.538405
C21   C     C_R   0.092165 0.927570 0.941564 0.535170
C22   C     C_R   0.613744 0.806608 0.385404 0.024569
C23   C     C_R   0.192343 0.806361 0.385442 0.024398
C24   C     C_R   0.192904 0.386494 0.385398 0.024391
C25   C     C_R   0.607330 0.890694 0.360162 -0.126215
C26   C     C_R   0.108500 0.715763 0.360048 -0.126662
C27   C     C_R   0.283736 0.391669 0.360452 -0.126442
C28   C     C_R   0.635746 0.909314 0.311306 -0.123032
C29   C     C_R   0.090002 0.725694 0.311170 -0.123157
C30   C     C_R   0.274034 0.363123 0.311630 -0.122941
C31   C     C_R   0.673126 0.845732 0.287262 0.036595
C32   C     C_R   0.153429 0.826852 0.287278 0.036545
C33   C     C_R   0.172841 0.326953 0.287308 0.036424
C34   C     C_R   0.232980 0.787293 0.431515 0.542608
C35   C     C_R   0.212408 0.445785 0.431470 0.544110
C36   C     C_R   0.554109 0.766552 0.431508 0.541933
C37   C     C_R   0.690339 0.769535 0.313709 -0.120261
C38   C     C_R   0.229113 0.920146 0.313891 -0.120464
C39   C     C_R   0.079093 0.311197 0.313480 -0.120488
C40   C     C_R   0.660163 0.749557 0.362505 -0.127953
C41   C     C_R   0.249005 0.909842 0.362706 -0.128165
C42   C     C_R   0.089193 0.341428 0.362232 -0.128227
C43   C     C_R   0.654963 0.759204 0.206247 -0.119678
C44   C     C_R   0.241503 0.897169 0.206483 -0.119787
C45   C     C_R   0.104637 0.345350 0.205958 -0.119731
C46   C     C_R   0.676335 0.768014 0.156557 -0.131513
C47   C     C_R   0.233097 0.909976 0.156768 -0.131834
C48   C     C_R   0.092118 0.323911 0.156282 -0.131596
C49   C     C_R   0.754511 0.966386 0.161606 -0.126185
C50   C     C_R   0.033312 0.787120 0.161346 -0.126454
C51   C     C_R   0.212114 0.244300 0.161945 -0.126988
C52   C     C_R   0.735039 0.957814 0.211391 -0.121621
C53   C     C_R   0.041446 0.775967 0.211151 -0.121428
C54   C     C_R   0.223024 0.263932 0.211733 -0.121334
C55   C     C_R   0.688075 0.854511 0.234281 0.035756
C56   C     C_R   0.145201 0.833451 0.234285 0.035850
C57   C     C_R   0.166761 0.311721 0.234317 0.035550
C58   C     C_R   0.729512 0.872030 0.134344 0.022062
C59   C     C_R   0.128522 0.857878 0.134310 0.020849
C60   C     C_R   0.142925 0.270119 0.134366 0.020533
C61   C     C_R   0.106893 0.221553 0.086213 0.562684
C62   C     C_R   0.778760 0.885205 0.086265 0.550736
C63   C     C_R   0.115272 0.893642 0.086183 0.561922
C64   C     C_3   0.541680 0.807949 0.738997 -0.244516
C65   C     C_3   0.190149 0.749393 0.742922 -0.246166
C66   C     C_3   0.242053 0.439985 0.742737 -0.252575
C67   C     C_3   0.743019 0.948896 0.723896 0.055440
C68   C     C_3   0.036635 0.785416 0.719107 0.054615
C69   C     C_3   0.206676 0.251895 0.718306 0.061070
C70   C     C_3   0.763937 0.959108 0.779976 -0.186208
C71   C     C_3   0.024452 0.818897 0.771746 -0.182865
C72   C     C_3   0.181643 0.211481 0.772291 -0.194668
C73   C     C_1   0.733404 0.872379 0.901117 -0.028152
C74   C     C_1   0.105282 0.896806 0.893490 -0.020686
C75   C     C_1   0.101168 0.208099 0.893421 -0.023725
C76   C     C_3   0.648588 0.828906 0.711475 0.090142
C77   C     C_3   0.161440 0.821566 0.709464 0.081076
C78   C     C_3   0.170338 0.339292 0.709360 0.098403
C79   C     C_3   0.562161 0.820973 0.794805 -0.228888
C80   C     C_3   0.163261 0.760835 0.796962 -0.226714
C81   C     C_3   0.227991 0.403240 0.796931 -0.226508
C82   C     C_3   0.682904 0.849995 0.806399 0.050975
C83   C     C_3   0.132056 0.852737 0.801600 0.047716
C84   C     C_3   0.140608 0.278915 0.801439 0.051256
Cr1   Cr    Cr6+3 0.164410 0.584450 0.499910 1.012523
Cr2   Cr    Cr6+3 0.415550 0.579960 0.499910 1.011176
Cr3   Cr    Cr6+3 0.420040 0.835590 0.499910 1.012676
Cr4   Cr    Cr6+3 0.156760 0.076070 0.017830 1.016259
Cr5   Cr    Cr6+3 0.923930 0.080690 0.017830 1.009619
Cr6   Cr    Cr6+3 0.919310 0.843240 0.017830 1.015169
H1    H     H_    0.546944 0.886999 0.808611 0.112895
H2    H     H_    0.092918 0.680954 0.809944 0.114978
H3    H     H_    0.309339 0.418932 0.811720 0.115543
H4    H     H_    0.471957 0.723350 0.731052 0.113713
H5    H     H_    0.279951 0.775616 0.739435 0.116305
H6    H     H_    0.216654 0.503394 0.738106 0.113489
H7    H     H_    0.788601 0.777085 0.793650 0.111409
H8    H     H_    0.212748 0.029274 0.784764 0.105885
H9    H     H_    0.965023 0.171510 0.782337 0.119053
H10   H     H_    0.572110 0.936385 0.376907 0.132593
H11   H     H_    0.063132 0.634852 0.376688 0.132041
H12   H     H_    0.364827 0.425845 0.377419 0.131563
H13   H     H_    0.615066 0.678187 0.222927 0.104276
H14   H     H_    0.322941 0.939239 0.223362 0.103999
H15   H     H_    0.063558 0.385803 0.222371 0.104254
H16   H     H_    0.656323 0.694402 0.135962 0.118711
H17   H     H_    0.307365 0.964657 0.136343 0.118852
H18   H     H_    0.038601 0.344505 0.135446 0.119233
H19   H     H_    0.761459 0.032513 0.232218 0.101486
H20   H     H_    0.965985 0.726500 0.231797 0.101185
H21   H     H_    0.271243 0.237090 0.232801 0.101284
H22   H     H_    0.796667 0.047752 0.145216 0.130102
H23   H     H_    0.951487 0.746864 0.144757 0.129685
H24   H     H_    0.251215 0.201603 0.145786 0.129038
H25   H     H_    0.722854 0.722277 0.296165 0.101202
H26   H     H_    0.276160 0.999982 0.296461 0.101099
H27   H     H_    0.999117 0.279692 0.295752 0.100931
H28   H     H_    0.515231 0.866873 0.726177 0.102173
H29   H     H_    0.141958 0.661245 0.731762 0.100190
H30   H     H_    0.331387 0.479320 0.732354 0.100095
H31   H     H_    0.667368 0.685422 0.381431 0.125309
H32   H     H_    0.312913 0.981213 0.381772 0.125260
H33   H     H_    0.017598 0.335262 0.380911 0.125205
H34   H     H_    0.713870 0.007425 0.713733 0.127318
H35   H     H_    0.987410 0.693455 0.717549 0.132109
H36   H     H_    0.298709 0.293255 0.713320 0.123789
H37   H     H_    0.753460 0.027686 0.794376 0.089045
H38   H     H_    0.951979 0.748155 0.789694 0.089473
H39   H     H_    0.258700 0.220696 0.789307 0.088044
H40   H     H_    0.850902 0.980094 0.788316 0.117864
H41   H     H_    0.007581 0.888817 0.770967 0.120457
H42   H     H_    0.117063 0.122797 0.774814 0.106260
H43   H     H_    0.611392 0.658563 0.722925 0.104987
H44   H     H_    0.326972 0.969857 0.716018 0.108080
H45   H     H_    0.020071 0.352948 0.716984 0.099286
H46   H     H_    0.754814 0.753361 0.711576 0.140795
H47   H     H_    0.217303 0.997890 0.703654 0.124240
H48   H     H_    0.992769 0.217510 0.701657 0.162791
H49   H     H_    0.645387 0.677864 0.804785 0.116525
H50   H     H_    0.307466 0.981450 0.798090 0.119761
H51   H     H_    0.000196 0.309268 0.798043 0.115573
O1    O     O_R   0.137310 0.468260 0.552980 -0.512096
O2    O     O_R   0.531740 0.669050 0.552980 -0.512738
O3    O     O_R   0.330950 0.862690 0.552980 -0.511462
O4    O     O_R   0.180530 0.983530 0.965090 -0.507425
O5    O     O_R   0.016470 0.197000 0.965090 -0.498263
O6    O     O_R   0.803000 0.819470 0.965090 -0.515866
O7    O     O_R   0.174120 0.688790 0.549730 -0.502733
O8    O     O_R   0.311210 0.485330 0.549730 -0.502501
O9    O     O_R   0.514670 0.825880 0.549730 -0.499070
O10   O     O_R   0.139940 0.470480 0.446230 -0.522437
O11   O     O_R   0.529520 0.669460 0.446230 -0.522109
O12   O     O_R   0.330540 0.860060 0.446230 -0.521502
O13   O     O_R   0.176560 0.690850 0.450770 -0.506740
O14   O     O_R   0.309150 0.485710 0.450770 -0.505498
O15   O     O_R   0.514290 0.823440 0.450770 -0.505726
O16   O     O_3   0.333333 0.666667 0.499990 -0.262021
O17   O     O_3   0.000000 0.000000 0.017910 -0.257014
O18   O     O_R   0.149710 0.171070 0.967700 -0.503718
O19   O     O_R   0.828930 0.978640 0.967700 -0.518815
O20   O     O_R   0.021360 0.850290 0.967700 -0.487212
O21   O     O_R   0.178510 0.985930 0.071830 -0.514744
O22   O     O_R   0.014070 0.192580 0.071830 -0.512683
O23   O     O_R   0.807420 0.821490 0.071830 -0.516451
O24   O     O_R   0.147830 0.173300 0.066650 -0.492877
O25   O     O_R   0.826700 0.974530 0.066650 -0.497989
O26   O     O_R   0.025470 0.852170 0.066650 -0.491123
H52   H     H_    0.502329 0.742823 0.813453 0.118732
H53   H     H_    0.236716 0.780491 0.820153 0.121085
H54   H     H_    0.201572 0.453204 0.818689 0.122154
H55   H     H_    0.621739 0.968573 0.291759 0.099827
H56   H     H_    0.031128 0.652519 0.291490 0.099885
H57   H     H_    0.347566 0.375989 0.292312 0.099727
N1    N     N_2   0.847215 0.981068 0.698525 -0.546673
H58   H     H_    0.886405 0.937168 0.706847 0.272419
C85   C     C_3   0.859064 0.018516 0.648514 -0.319144
H59   H     H_    0.826549 0.947489 0.623219 0.148745
H60   H     H_    0.948437 0.072929 0.640064 0.165743
H61   H     H_    0.815813 0.066188 0.642327 0.143660
N2    N     N_2   0.991427 0.830801 0.683864 -0.554850
H62   H     H_    0.044536 0.909852 0.672040 0.253571
C86   C     C_3   0.920291 0.757363 0.646033 -0.329560
H63   H     H_    0.882227 0.798255 0.625250 0.146381
H64   H     H_    0.852142 0.680324 0.662190 0.139187
H65   H     H_    0.969105 0.736650 0.620570 0.157484
N3    N     N_2   0.152076 0.160529 0.683943 -0.536435
H66   H     H_    0.095819 0.084307 0.697789 0.249711
C87   C     C_3   0.218690 0.158281 0.643829 -0.333596
H67   H     H_    0.167443 0.085385 0.620485 0.138255
H68   H     H_    0.291540 0.153823 0.657645 0.129225
H69   H     H_    0.249247 0.233414 0.621100 0.166814

loop_
_geom_bond_atom_site_label_1
_geom_bond_atom_site_label_2
_ccdc_geom_bond_type
C70   H37   S    
C58   C62   S    
C63   O21   A    
Cr6   O17   S    
Cr6   O26   S    
C2    C18   S    
C24   C42   A    
C15   C18   T    
C24   C27   A    
C67   H34   S    
C6    C9    S    
C51   H24   S    
C44   H14   S    
C72   H39   S    
C25   C28   A    
C40   H31   S    
C45   C57   A    
C33   C39   A    
Cr1   O16   S    
C5    H50   S    
C87   H69   S    
C50   C59   A    
C35   O14   A    
C7    H43   S    
C37   C40   A    
C4    C7    S    
C26   H11   S    
C5    C83   S    
C10   C73   T    
C23   C26   A    
C15   C78   S    
C67   N1    S    
C70   H40   S    
C64   H28   S    
C12   C84   S    
C87   H68   S    
Cr4   O18   S    
N1    H58   S    
C28   H55   S    
C86   H63   S    
C54   H21   S    
C85   H61   S    
C62   O23   A    
Cr1   O7    S    
N2    C86   S    
Cr3   O9    S    
C42   H33   S    
Cr4   O4    S    
Cr3   O12   S    
C72   H42   S    
Cr4   O17   S    
C79   H52   S    
C69   N3    S    
C51   C54   A    
C30   H57   S    
C79   H1    S    
C44   C47   A    
Cr1   O13   S    
C49   C52   A    
C2    O8    A    
C85   H60   S    
C60   C61   S    
C65   C80   S    
C66   H30   S    
C4    H7    S    
C46   C58   A    
C27   C30   A    
C32   C56   S    
C14   C17   T    
C69   C78   S    
C35   O10   A    
C80   H53   S    
C80   C83   S    
C43   C46   A    
C45   H15   S    
Cr2   O2    S    
C48   C60   A    
C39   C42   A    
C43   H13   S    
C34   O13   A    
C65   H29   S    
Cr5   O5    S    
C66   C78   S    
C59   C63   S    
C24   C35   S    
C21   O20   A    
Cr6   O20   S    
C8    H44   S    
C50   C53   A    
Cr5   O17   S    
C6    C84   S    
C38   C41   A    
Cr2   O8    S    
C14   C77   S    
C36   O11   A    
C11   C83   S    
C39   H27   S    
C47   C59   A    
C21   C74   S    
C68   N2    S    
C49   C58   A    
C31   C37   A    
Cr6   O23   S    
C87   H67   S    
C86   H65   S    
C21   O4    A    
C41   H32   S    
C80   H2    S    
C69   C72   S    
Cr2   O14   S    
Cr1   O10   S    
Cr6   O6    S    
Cr2   O11   S    
C5    C8    S    
C65   C77   S    
C81   H3    S    
C9    H48   S    
C44   C56   A    
C25   H10   S    
C13   C76   S    
C23   C34   S    
C22   C40   A    
C64   C76   S    
C20   O6    A    
C3    O2    A    
C81   H54   S    
C6    H51   S    
C4    C82   S    
C72   C84   S    
C49   H22   S    
C9    H45   S    
C43   C55   A    
C85   H59   S    
C62   O25   A    
C22   C25   A    
C19   O5    A    
C32   C38   A    
C8    C77   S    
C2    O1    A    
C64   C79   S    
C71   H38   S    
C13   C16   T    
N3    C87   S    
C81   C84   S    
N2    H62   S    
C36   O15   A    
Cr5   O19   S    
C66   H6    S    
C45   C48   A    
C68   C77   S    
C3    O9    A    
C33   C57   S    
C30   C33   A    
C61   O22   A    
C1    C17   S    
C28   C31   A    
C11   C74   T    
Cr1   O1    S    
C69   H36   S    
C79   C82   S    
C52   C55   A    
C7    C76   S    
C37   H25   S    
C29   C32   A    
C22   C36   S    
C27   H12   S    
C47   H17   S    
C23   C41   A    
C50   H23   S    
C19   O18   A    
C6    H9    S    
C67   C70   S    
C51   C60   A    
C19   C75   S    
C64   H4    S    
C7    H46   S    
C1    O3    A    
C66   C81   S    
C48   H18   S    
C52   H19   S    
C68   C71   S    
Cr4   O21   S    
C46   H16   S    
C63   O26   A    
N1    C85   S    
C10   C82   S    
C20   C73   S    
C61   O24   A    
C9    C78   S    
C29   H56   S    
C70   C82   S    
Cr2   O16   S    
C86   H64   S    
Cr5   O25   S    
C34   O12   A    
C53   H20   S    
C71   H41   S    
Cr3   O16   S    
C65   H5    S    
Cr3   O3    S    
C5    H8    S    
C26   C29   A    
Cr4   O24   S    
C20   O19   A    
C12   C75   T    
C53   C56   A    
Cr3   O15   S    
C8    H47   S    
C1    O7    A    
C71   C83   S    
C67   C76   S    
C31   C55   S    
N3    H66   S    
C68   H35   S    
Cr5   O22   S    
C3    C16   S    
C38   H26   S    
C4    H49   S    
C54   C57   A    
