data_mof_unit_10487.cif
_audit_creation_date              2013-03-05T15:44:23-0500
_audit_creation_method            fapswitch 2.2
_symmetry_space_group_name_H-M    P1
_symmetry_Int_Tables_number       1
_space_group_crystal_system       triclinic
_cell_length_a                    18.799882
_cell_length_b                    18.884276
_cell_length_c                    20.379108
_cell_angle_alpha                 107.357053
_cell_angle_beta                  106.392469
_cell_angle_gamma                 110.933554
_cell_volume                      5804.02569234

loop_
_atom_site_label
_atom_site_type_symbol
_atom_site_description
_atom_site_fract_x
_atom_site_fract_y
_atom_site_fract_z
_atom_type_partial_charge
C1    C     C_R   0.034413 0.088437 0.346675 -0.122986
H1    H     H_    0.054876 0.154713 0.362502 0.101228
N1    N     N_R   0.052580 0.056040 0.395500 -0.039496
C2    C     C_R   0.754858 0.929914 0.454036 -0.129675
H2    H     H_    0.707222 0.865088 0.416009 0.130261
N2    N     N_R   0.834730 0.954500 0.499860 -0.050618
C3    C     C_R   0.846302 0.778323 0.289453 -0.158469
H3    H     H_    0.873592 0.757912 0.252371 0.095901
N3    N     N_R   0.890210 0.849400 0.355780 -0.041857
C4    C     C_R   0.009293 0.239005 0.576832 0.259375
N4    N     N_R   0.997110 0.161140 0.539580 -0.084607
C5    C     C_R   0.769517 0.772050 0.354303 -0.091997
H4    H     H_    0.728163 0.745138 0.377939 0.126920
N5    N     N_R   0.841950 0.845400 0.395490 -0.050938
C6    C     C_R   0.079395 0.243821 0.505812 -0.194209
H5    H     H_    0.127240 0.267385 0.486925 0.113751
N6    N     N_R   0.045360 0.165140 0.499870 -0.059989
C7    C     C_R   0.824789 0.070861 0.516647 -0.049688
H6    H     H_    0.842679 0.136935 0.535081 0.113585
N7    N     N_R   0.877490 0.041510 0.539580 -0.027800
C8    C     C_R   0.965233 0.947414 0.282188 -0.121369
H7    H     H_    0.923474 0.883398 0.237942 0.099369
N8    N     N_R   0.009820 0.969030 0.355780 -0.039600
C9    C     C_R   0.977535 0.021297 0.274975 0.032290
C10   C     C_R   0.747039 0.002101 0.461808 0.031366
C11   C     C_R   0.769125 0.728653 0.286249 0.114425
C12   C     C_R   0.056917 0.291969 0.553244 -0.040133
C13   C     C_R   0.239526 0.191027 0.654067 -0.123605
H8    H     H_    0.291299 0.200960 0.638427 0.098007
N9    N     N_R   0.158050 0.154600 0.604510 -0.046319
C14   C     C_R   0.973858 0.798905 0.544884 -0.130474
H9    H     H_    0.946049 0.788927 0.582985 0.097105
N10   N     N_R   0.954640 0.834860 0.500130 -0.044823
C15   C     C_R   0.169458 0.933785 0.430989 -0.144800
H10   H     H_    0.144823 0.870548 0.387640 0.089449
N11   N     N_R   0.122510 0.958490 0.460420 -0.039962
C16   C     C_R   0.984724 0.052524 0.710781 -0.109669
H11   H     H_    0.000081 0.115902 0.747232 0.139231
N12   N     N_R   0.990180 0.030970 0.644220 -0.040427
C17   C     C_R   0.914667 0.912500 0.646453 -0.141805
H12   H     H_    0.867275 0.847437 0.624382 0.091383
N13   N     N_R   0.947420 0.943960 0.604500 -0.044672
C18   C     C_R   0.238918 0.073836 0.495323 -0.141884
H13   H     H_    0.278780 0.139635 0.511408 0.088948
N14   N     N_R   0.165270 0.045500 0.500140 -0.040907
C19   C     C_R   0.160933 0.184825 0.718679 -0.035126
H14   H     H_    0.139624 0.188012 0.762831 0.093323
N15   N     N_R   0.109790 0.150600 0.644220 -0.036956
C20   C     C_R   0.052606 0.805656 0.480652 -0.130398
H15   H     H_    0.098145 0.801932 0.459333 0.098001
N16   N     N_R   0.002890 0.838860 0.460420 -0.042822
Ni1   Ni    Ni4+2 0.104370 0.104380 0.500010 0.209414
Ni2   Ni    Ni4+2 0.895630 0.895620 0.499990 0.210979
Ni3   Ni    Ni4+2 0.006300 0.904810 0.408930 0.206400
Ni4   Ni    Ni4+2 0.993700 0.095190 0.591070 0.306987
C21   C     C_R   0.243473 0.209573 0.726921 0.013618
C22   C     C_R   0.037392 0.781791 0.535624 0.075920
C23   C     C_R   0.243307 0.004955 0.451393 0.085402
C24   C     C_R   0.937657 0.979321 0.714245 0.031250
C25   C     C_R   0.137073 0.723017 0.555528 -0.251645
C26   C     C_R   0.077156 0.741851 0.573799 0.113313
C27   C     C_R   0.045913 0.711246 0.620119 -0.250636
C28   C     C_R   0.058868 0.648068 0.633603 0.139331
C29   C     C_R   0.109283 0.620100 0.605481 0.034753
C30   C     C_R   0.152899 0.661378 0.570640 0.136886
C31   C     C_R   0.013794 0.605617 0.666367 -0.203314
C32   C     C_R   0.010754 0.529994 0.663134 -0.178833
C33   C     C_R   0.054839 0.497981 0.629226 0.107454
C34   C     C_R   0.108586 0.545502 0.604734 0.027815
C35   C     C_R   0.154258 0.513912 0.571945 0.131001
C36   C     C_R   0.205071 0.560615 0.545166 -0.193540
C37   C     C_R   0.203844 0.633737 0.543917 -0.196272
C38   C     C_R   0.039992 0.416080 0.613257 -0.174974
C39   C     C_R   0.082757 0.382499 0.578376 0.152329
C40   C     C_R   0.142935 0.433272 0.561068 -0.248731
H16   H     H_    0.165485 0.749923 0.523498 0.121114
H17   H     H_    0.003556 0.728735 0.638582 0.118628
H18   H     H_    0.975602 0.627155 0.688882 0.132595
H19   H     H_    0.970601 0.494466 0.683545 0.142161
H20   H     H_    0.990398 0.377100 0.623595 0.142308
H21   H     H_    0.176672 0.408493 0.534438 0.121483
H22   H     H_    0.241329 0.537716 0.520695 0.132505
H23   H     H_    0.238751 0.665716 0.518078 0.134347
C41   C     C_R   0.300736 0.931298 0.375653 -0.254069
C42   C     C_R   0.306925 0.007272 0.422171 0.112217
C43   C     C_R   0.377627 0.084805 0.445482 -0.256028
C44   C     C_R   0.446397 0.086105 0.431539 0.141051
C45   C     C_R   0.443511 0.008903 0.392504 0.031244
C46   C     C_R   0.368962 0.931491 0.361389 0.138979
C47   C     C_R   0.520814 0.162824 0.462166 -0.201564
C48   C     C_R   0.594517 0.162474 0.461140 -0.192596
C49   C     C_R   0.594219 0.085380 0.429731 0.139641
C50   C     C_R   0.517618 0.008527 0.391620 0.028068
C51   C     C_R   0.516864 0.930722 0.359985 0.122765
C52   C     C_R   0.440400 0.854584 0.322020 -0.175415
C53   C     C_R   0.366621 0.854971 0.322737 -0.205494
C54   C     C_R   0.670131 0.083257 0.443585 -0.242022
C55   C     C_R   0.670077 0.005264 0.423071 0.111800
C56   C     C_R   0.593436 0.929784 0.374616 -0.225101
H24   H     H_    0.245881 0.871009 0.355071 0.118177
H25   H     H_    0.382566 0.144147 0.479359 0.117904
H26   H     H_    0.523416 0.222669 0.491148 0.131964
H27   H     H_    0.652839 0.222043 0.489594 0.133720
H28   H     H_    0.728734 0.142388 0.477245 0.118341
H29   H     H_    0.592412 0.869389 0.354646 0.155412
H30   H     H_    0.438793 0.794475 0.296460 0.161717
H31   H     H_    0.309212 0.795139 0.297461 0.137593
C57   C     C_R   0.318834 0.242371 0.798340 0.138898
C58   C     C_R   0.315402 0.270017 0.868784 -0.170940
C59   C     C_R   0.386453 0.303231 0.936574 -0.143438
C60   C     C_R   0.463012 0.309436 0.935706 0.210892
C61   C     C_R   0.466158 0.280132 0.865356 -0.171613
C62   C     C_R   0.394614 0.246403 0.797170 -0.162872
C63   C     C_R   0.691327 0.500055 0.157426 -0.144044
C64   C     C_R   0.744501 0.586106 0.206172 -0.227814
C65   C     C_R   0.623951 0.601517 0.214943 0.327755
C66   C     C_R   0.571785 0.514907 0.168030 -0.227755
C67   C     C_R   0.604603 0.464381 0.137705 0.161694
C68   C     C_2   0.542947 0.359954 0.006617 -0.200672
C69   C     C_2   0.544185 0.378917 0.075968 -0.197291
C70   C     C_R   0.711455 0.637996 0.234586 0.022871
H32   H     H_    0.258832 0.269139 0.872360 0.123186
H33   H     H_    0.811500 0.611992 0.221302 0.135736
H34   H     H_    0.488420 0.343394 0.081761 0.133811
H35   H     H_    0.524793 0.285697 0.863300 0.126803
H36   H     H_    0.717390 0.461716 0.133891 0.134810
H37   H     H_    0.399401 0.224719 0.743934 0.116812
H38   H     H_    0.599421 0.395807 0.001690 0.140995
H39   H     H_    0.381808 0.328508 0.989335 0.116984
H40   H     H_    0.504245 0.487948 0.150902 0.157452
C71   C     C_R   0.930183 0.026947 0.207297 0.139142
C72   C     C_R   0.851814 0.957874 0.150508 -0.152588
C73   C     C_R   0.810412 0.960630 0.083603 -0.182919
C74   C     C_R   0.846984 0.032336 0.072351 0.124481
C75   C     C_R   0.921697 0.103777 0.131535 -0.126815
C76   C     C_R   0.963070 0.101135 0.198561 -0.184790
C77   C     C_R   0.912203 0.042772 0.896116 -0.092821
C78   C     C_R   0.944042 0.045038 0.842530 -0.190540
C79   C     C_R   0.827835 0.904657 0.751907 -0.177649
C80   C     C_R   0.795962 0.902529 0.805812 -0.170357
C81   C     C_R   0.837479 0.971833 0.877938 0.269024
C82   C     C_2   0.819519 0.027413 0.995159 0.294042
C83   C     C_2   0.813564 0.962785 0.938824 -0.345524
C84   C     C_R   0.902605 0.975859 0.770083 0.142587
H41   H     H_    0.823273 0.900844 0.156724 0.122433
H42   H     H_    0.002698 0.099945 0.858841 0.121981
H43   H     H_    0.793970 0.850411 0.696456 0.117934
H44   H     H_    0.809690 0.906993 0.946085 0.126441
H45   H     H_    0.951706 0.159366 0.123723 0.151071
H46   H     H_    0.948453 0.094844 0.953079 0.142853
H47   H     H_    0.022983 0.155557 0.241584 0.116085
H48   H     H_    0.752297 0.905099 0.038844 0.129219
H49   H     H_    0.739930 0.846129 0.791884 0.127465
Br1   Br    Br    0.569860 0.667105 0.242865 -0.622104
N17   N     N_R   0.012882 0.266945 0.652149 0.216190
O1    O     O_R   0.079292 0.334939 0.708699 -0.401293
O2    O     O_R   0.960813 0.215487 0.667905 -0.440772
Br2   Br    Br    0.815991 0.123557 0.982602 -0.549222

loop_
_geom_bond_atom_site_label_1
_geom_bond_atom_site_label_2
_geom_bond_distance
_ccdc_geom_bond_type
C4    C12   1.386719 A    
N15   Ni4   1.840910 S    
C44   C45   1.410111 A    
C50   C51   1.410472 A    
C64   C70   1.407478 A    
N17   O2    1.299797 A    
C38   C39   1.404191 A    
C27   H17   1.080575 S    
N1    N8    1.377169 A    
C52   C53   1.393826 A    
C18   H13   1.079791 S    
C2    C10   1.390157 A    
C13   C21   1.393388 A    
C3    H3    1.081325 S    
C42   C43   1.405027 A    
C57   C58   1.402433 A    
C5    H4    1.081590 S    
C7    C10   1.388340 A    
C79   H43   1.081153 S    
C16   H11   1.081287 S    
C3    C11   1.388050 A    
C72   H41   1.081967 S    
N9    N15   1.373201 A    
C13   H8    1.079082 S    
C1    H1    1.078654 S    
C81   C83   1.468807 S    
N13   Ni2   1.830804 S    
C63   H36   1.083152 S    
N1    Ni1   1.830804 S    
C58   H32   1.080958 S    
C6    H5    1.080207 S    
C20   C22   1.389241 A    
C65   C66   1.393738 A    
C59   H39   1.080802 S    
C60   C68   1.477840 S    
C15   H10   1.079537 S    
C59   C60   1.407375 A    
C47   H26   1.083677 S    
N9    Ni1   1.830609 S    
C18   C23   1.387029 A    
C19   H14   1.077999 S    
N12   Ni4   1.848031 S    
C60   C61   1.401065 A    
C72   C73   1.392798 A    
C20   N16   1.338766 A    
C14   N10   1.334969 A    
C35   C36   1.402711 A    
C11   C70   1.472683 S    
C12   C39   1.471302 S    
C65   Br1   1.923043 S    
C26   C27   1.402132 A    
C80   H49   1.083395 S    
C36   H22   1.083589 S    
C68   H38   1.087546 S    
C17   N13   1.342329 A    
C31   C32   1.389402 A    
C28   C31   1.399937 A    
C17   C24   1.385945 A    
C8    H7    1.078292 S    
C34   C35   1.411268 A    
C73   H48   1.083256 S    
C82   Br2   1.928741 S    
N7    Ni4   1.841352 S    
C56   H29   1.081527 S    
N6    Ni1   1.859310 S    
C61   C62   1.396605 A    
C49   C54   1.392217 A    
C54   C55   1.405481 A    
N12   N13   1.377165 A    
N10   Ni2   1.859310 S    
C83   H44   1.086979 S    
C31   H18   1.083873 S    
C19   N15   1.338658 A    
C64   H33   1.082318 S    
C39   C40   1.405542 A    
C32   C33   1.400672 A    
C41   H24   1.080560 S    
C75   C76   1.393533 A    
C32   H19   1.083907 S    
C80   C81   1.399020 A    
C2    N2    1.339415 A    
C71   C76   1.403114 A    
C65   C70   1.412455 A    
C63   C64   1.393689 A    
C48   C49   1.401933 A    
C43   C44   1.393442 A    
C40   H21   1.081950 S    
N14   Ni1   1.859270 S    
C33   C38   1.384153 A    
C75   H45   1.082974 S    
C25   H16   1.081818 S    
C5    C11   1.380902 A    
C25   C26   1.406400 A    
C1    N1    1.342275 A    
C57   C62   1.406680 A    
N3    N5    1.373200 A    
C27   C28   1.386979 A    
C52   H30   1.083785 S    
C74   C82   1.473056 S    
C79   C84   1.406928 A    
C6    C12   1.385762 A    
C14   H9    1.075998 S    
C68   C69   1.341561 D    
N11   N14   1.377167 A    
C16   C24   1.385045 A    
C29   C34   1.399577 A    
C41   C42   1.406267 A    
C66   H40   1.084050 S    
C18   N14   1.338532 A    
C61   H35   1.083445 S    
C63   C67   1.399052 A    
C17   H12   1.080558 S    
C53   H31   1.083693 S    
C5    N5    1.338216 A    
C24   C84   1.473185 S    
C55   C56   1.404427 A    
C8    N8    1.341316 A    
C73   C74   1.402829 A    
C77   H46   1.082806 S    
C8    C9    1.390223 A    
C41   C46   1.391906 A    
N2    Ni2   1.859272 S    
C71   C72   1.405395 A    
C23   C42   1.472139 S    
C37   H23   1.083625 S    
C35   C40   1.397775 A    
C76   H47   1.082311 S    
N4    Ni4   1.848483 S    
N8    Ni3   1.848030 S    
C6    N6    1.342136 A    
C77   C81   1.403833 A    
C45   C50   1.400898 A    
N4    N6    1.373050 A    
C33   C34   1.406928 A    
C48   H27   1.083722 S    
C2    H2    1.077057 S    
C4    N17   1.439350 S    
C25   C30   1.395689 A    
C7    N7    1.338990 A    
C79   C80   1.395751 A    
C22   C26   1.468908 S    
C74   C75   1.402336 A    
C62   H37   1.081289 S    
N10   N16   1.373048 A    
C30   C37   1.402994 A    
N2    N7    1.377165 A    
C77   C78   1.389676 A    
N16   Ni3   1.848483 S    
C29   C30   1.409319 A    
C14   C22   1.390472 A    
C46   C53   1.402267 A    
C13   N9    1.341195 A    
C36   C37   1.396913 A    
C16   N12   1.339822 A    
C78   C84   1.402179 A    
C66   C67   1.398937 A    
C9    C71   1.472682 S    
C47   C48   1.393993 A    
C51   C56   1.393057 A    
C78   H42   1.082607 S    
C49   C50   1.409288 A    
C38   H20   1.080977 S    
C15   N11   1.335096 A    
C51   C52   1.401403 A    
C67   C69   1.466212 S    
C54   H28   1.080998 S    
N11   Ni3   1.841356 S    
C4    N4    1.336448 A    
C28   C29   1.410464 A    
C3    N3    1.343890 A    
C10   C55   1.471514 S    
N5    Ni2   1.830609 S    
C45   C46   1.408782 A    
C1    C9    1.389230 A    
C20   H15   1.077662 S    
C44   C47   1.401810 A    
C19   C21   1.393687 A    
N17   O1    1.301948 A    
C15   C23   1.383517 A    
C7    H6    1.077167 S    
C21   C57   1.476622 S    
C82   C83   1.346809 D    
N3    Ni3   1.840910 S    
C58   C59   1.388865 A    
C43   H25   1.081160 S    
C69   H34   1.085174 S    
