data_mof_unit_48199.cif
_audit_creation_date              2012-12-11T17:08:30-0500
_audit_creation_method            fapswitch 2.2
_symmetry_space_group_name_H-M    P1
_symmetry_Int_Tables_number       1
_space_group_crystal_system       triclinic
_cell_length_a                    6.956576
_cell_length_b                    14.583455
_cell_length_c                    16.041646
_cell_angle_alpha                 89.92136
_cell_angle_beta                  89.68863
_cell_angle_gamma                 89.815778
_cell_volume                      1627.40569567

loop_
_atom_site_label
_atom_site_type_symbol
_atom_type_description
_atom_site_fract_x
_atom_site_fract_y
_atom_site_fract_z
_atom_type_partial_charge
O1    O     O_R   0.505700 0.583890 0.413310 -0.541683
O2    O     O_R   0.175960 0.594920 0.586080 -0.538175
O3    O     O_R   0.005660 0.416110 0.586690 -0.543261
C1    C     C_R   0.343805 0.615829 0.615621 0.707809
O4    O     O_R   0.175980 0.594920 0.413930 -0.512236
O5    O     O_R   0.005680 0.416110 0.413310 -0.544881
C2    C     C_R   0.344838 0.617400 0.385637 0.807603
O6    O     O_R   0.505680 0.583890 0.586690 -0.542140
O7    O     O_3   0.339200 0.441330 0.500000 -0.382711
V1    V     V_3+5 0.064350 0.510880 0.500000 1.465919
O8    O     O_R   0.675960 0.405080 0.413920 -0.542760
C3    C     C_R   0.845415 0.383197 0.385041 0.691332
O9    O     O_R   0.675940 0.405080 0.586070 -0.545724
C4    C     C_R   0.844454 0.383276 0.614974 0.717180
V2    V     V_3+5 0.564340 0.489120 0.500000 1.414381
O10   O     O_3   0.839360 0.558670 0.500000 -0.358020
C5    C     C_R   0.999124 0.248362 0.686496 0.113624
C6    C     C_R   0.851606 0.313736 0.682293 -0.178744
C7    C     C_R   0.706153 0.309386 0.743749 -0.262390
H1    H     H_    0.588209 0.357942 0.742607 0.145766
C8    C     C_R   0.719388 0.247195 0.811037 0.603164
C9    C     C_R   0.876607 0.186108 0.817491 -0.210955
C10   C     C_R   0.010535 0.185882 0.751974 -0.018199
C11   C     C_3   0.224129 0.191860 0.754483 -0.352857
C12   C     C_3   0.211841 0.260006 0.682867 -0.372252
H2    H     H_    0.294705 0.126112 0.736939 0.168924
H3    H     H_    0.274197 0.222875 0.813521 0.243746
H4    H     H_    0.274603 0.233430 0.623756 0.172697
H5    H     H_    0.257229 0.330428 0.700182 0.171327
C13   C     C_R   0.726950 0.183478 0.241783 0.134033
C14   C     C_R   0.881182 0.182738 0.185261 -0.107652
C15   C     C_R   0.033160 0.244069 0.200410 -0.160165
H6    H     H_    0.155568 0.245952 0.158731 0.138699
C16   C     C_R   0.022636 0.308082 0.266061 -0.167345
H7    H     H_    0.137566 0.357153 0.273052 0.128768
C17   C     C_R   0.859513 0.312952 0.318407 -0.112092
C18   C     C_R   0.716062 0.247123 0.306484 0.116800
C19   C     C_3   0.505374 0.260167 0.295030 -0.415597
C20   C     C_3   0.517158 0.190500 0.224860 -0.401278
H8    H     H_    0.469986 0.330552 0.273207 0.170182
H9    H     H_    0.420944 0.235707 0.349676 0.186047
H10   H     H_    0.487904 0.220237 0.162346 0.180303
H11   H     H_    0.440244 0.125578 0.239062 0.191830
C21   C     C_R   0.506802 0.745162 0.688322 0.067308
C22   C     C_R   0.350777 0.686043 0.682086 -0.103023
C23   C     C_R   0.200602 0.697227 0.740262 -0.139243
H12   H     H_    0.077311 0.652430 0.738376 0.112898
C24   C     C_R   0.215621 0.761455 0.805581 -0.111241
H13   H     H_    0.103246 0.764000 0.852352 0.105634
C25   C     C_R   0.379148 0.817839 0.813665 -0.159340
C26   C     C_R   0.519203 0.812414 0.749849 0.058126
C27   C     C_3   0.733334 0.798336 0.754723 0.301573
C28   C     C_3   0.713744 0.721453 0.691816 -0.380890
H14   H     H_    0.785102 0.774887 0.816736 0.036125
H15   H     H_    0.738016 0.652274 0.719130 0.109260
H16   H     H_    0.788041 0.733888 0.631282 0.217026
C29   C     C_R   0.486493 0.674405 0.251161 -0.058535
C30   C     C_R   0.351799 0.683576 0.315630 -0.286378
C31   C     C_R   0.212901 0.753729 0.307156 0.524527
C32   C     C_R   0.224351 0.817357 0.240939 0.521718
C33   C     C_R   0.374016 0.812002 0.180775 -0.345288
C34   C     C_R   0.495321 0.734834 0.184370 -0.001046
C35   C     C_3   0.708892 0.722582 0.176128 0.339653
C36   C     C_3   0.698037 0.659319 0.251995 -0.347988
H17   H     H_    0.793371 0.786121 0.187879 0.124800
H18   H     H_    0.765960 0.688699 0.308437 0.202291
H19   H     H_    0.736942 0.586709 0.238852 0.178563
O11   O     O_R   0.229000 0.916070 0.913330 -0.550222
O12   O     O_R   0.558770 0.905070 0.086080 -0.554526
O13   O     O_R   0.729000 0.083900 0.086690 -0.533211
C37   C     C_R   0.389406 0.882063 0.114032 0.790273
O14   O     O_R   0.558720 0.905070 0.913930 -0.567005
O15   O     O_R   0.728960 0.083900 0.913310 -0.516602
C38   C     C_R   0.390675 0.883997 0.884134 0.665344
O16   O     O_R   0.229050 0.916070 0.086710 -0.510689
O17   O     O_3   0.395460 0.058650 0.000020 -0.351759
V3    V     V_3+5 0.670340 0.989120 0.000000 1.428043
O18   O     O_R   0.058670 0.094960 0.913900 -0.544505
C39   C     C_R   0.889461 0.119159 0.886969 0.726964
O19   O     O_R   0.058720 0.094960 0.086050 -0.535808
C40   C     C_R   0.889506 0.117045 0.114751 0.756505
V4    V     V_3+5 0.170330 0.010930 0.999970 1.466958
O20   O     O_3   0.895340 0.941350 0.999980 -0.400202
O21   O     O_3   0.839557 0.869957 0.717268 -0.536732
C41   C     C_3   0.851734 0.944767 0.771624 -0.126266
H20   H     H_    0.900915 0.923807 0.834563 0.138658
H21   H     H_    0.711451 0.981227 0.774935 0.120634
H22   H     H_    0.959815 0.993044 0.746131 0.137414
F1    F     F_    0.074669 0.765389 0.366277 -0.657353
F2    F     F_    0.587267 0.252088 0.873368 -0.703883
F3    F     F_    0.096298 0.887818 0.239295 -0.665266
O22   O     O_3   0.758305 0.670688 0.104549 -0.544174
C42   C     C_3   0.840653 0.727290 0.042984 -0.189113
H23   H     H_    0.966515 0.765751 0.067108 0.138270
H24   H     H_    0.731020 0.774155 0.016589 0.155805
H25   H     H_    0.893374 0.683324 0.991269 0.136900

loop_
_geom_bond_atom_site_label_1
_geom_bond_atom_site_label_2
_ccdc_geom_bond_type
C37   O16   A    
C35   H17   S    
C42   H23   S    
C4    C6    S    
O12   V3    S    
C7    H1    S    
C11   H3    S    
C1    O6    A    
C29   C34   A    
C41   H20   S    
C21   C22   A    
C12   H4    S    
C34   C35   S    
C17   C18   A    
C7    C8    A    
C11   H2    S    
C9    C39   S    
C16   H7    S    
C25   C38   S    
O5    C3    A    
C19   C20   S    
C28   H16   S    
V3    O20   S    
O11   C38   A    
V2    O10   S    
O12   C37   A    
C6    C7    A    
C31   F1    S    
C27   O21   S    
O13   C40   A    
O14   V3    S    
O8    V2    S    
C21   C28   S    
C35   O22   S    
C10   C11   S    
O1    V2    S    
C3    C17   S    
O7    V1    S    
C2    C30   S    
C8    F2    S    
C33   C37   S    
C41   H21   S    
C31   C32   A    
C42   H24   S    
C8    C9    A    
O13   V3    S    
C27   H14   S    
C5    C6    A    
C20   H10   S    
C1    C22   S    
C28   H15   S    
C12   H5    S    
C23   C24   A    
C26   C27   S    
C36   H19   S    
C11   C12   S    
C19   H9    S    
O14   C38   A    
O17   V4    S    
O4    C2    A    
O18   C39   A    
C20   H11   S    
C30   C31   A    
C22   C23   A    
C13   C18   A    
C32   C33   A    
C36   H18   S    
O2    C1    A    
C18   C19   S    
O18   V4    S    
C14   C15   A    
C25   C26   A    
O15   C39   A    
C5    C10   A    
O21   C41   S    
O3    C4    A    
C21   C26   A    
O19   V4    S    
C24   H13   S    
C42   H25   S    
O9    V2    S    
O2    V1    S    
C27   C28   S    
C41   H22   S    
C29   C36   S    
C32   F3    S    
C23   H12   S    
O1    C2    A    
O19   C40   A    
O5    V1    S    
O8    C3    A    
O16   V4    S    
O6    V2    S    
C14   C40   S    
C5    C12   S    
C15   H6    S    
O7    V2    S    
O11   V4    S    
O4    V1    S    
O3    V1    S    
V1    O10   S    
C19   H8    S    
O17   V3    S    
C29   C30   A    
C13   C14   A    
C24   C25   A    
O22   C42   S    
C13   C20   S    
C16   C17   A    
C33   C34   A    
C35   C36   S    
V4    O20   S    
O15   V3    S    
C9    C10   A    
O9    C4    A    
C15   C16   A    
