data_mof_unit_14127.cif
_audit_creation_date              2012-12-10T20:31:09-0500
_audit_creation_method            fapswitch 2.2
_symmetry_space_group_name_H-M    P1
_symmetry_Int_Tables_number       1
_space_group_crystal_system       triclinic
_cell_length_a                    15.004815
_cell_length_b                    10.719075
_cell_length_c                    9.872491
_cell_angle_alpha                 88.892838
_cell_angle_beta                  89.548015
_cell_angle_gamma                 90.596539
_cell_volume                      1587.43464905

loop_
_atom_site_label
_atom_site_type_symbol
_atom_type_description
_atom_site_fract_x
_atom_site_fract_y
_atom_site_fract_z
_atom_type_partial_charge
C1    C     C_R   0.502250 0.259757 0.500782 0.894497
C2    C     C_R   0.906652 0.505470 0.624039 0.117570
C3    C     C_R   0.955042 0.472141 0.254914 -0.198993
C4    C     C_R   0.047630 0.472762 0.255108 -0.219832
C5    C     C_R   0.093345 0.483939 0.377457 0.119139
C6    C     C_R   0.046358 0.494020 0.500988 0.064173
C7    C     C_R   0.092074 0.504833 0.624695 0.119473
C8    C     C_R   0.044964 0.515028 0.746878 -0.219938
C9    C     C_R   0.952370 0.515538 0.746530 -0.207039
C10   C     C_R   0.185463 0.485806 0.378401 -0.259534
C11   C     C_R   0.230690 0.497088 0.501036 -0.072935
C12   C     C_R   0.326623 0.499314 0.500443 0.893689
C13   C     C_R   0.184302 0.505944 0.623842 -0.263626
C14   C     C_R   0.517904 0.060017 0.622224 0.117070
C15   C     C_R   0.515464 0.128079 0.500738 -0.106011
C16   C     C_R   0.530478 0.067216 0.377711 -0.230398
C17   C     C_R   0.531463 0.938042 0.376259 -0.192344
C18   C     C_R   0.518041 0.871018 0.497955 -0.100225
C19   C     C_R   0.519947 0.932579 0.620535 0.103157
C20   C     C_3   0.460465 0.916234 0.741614 -0.508353
C21   C     C_3   0.456822 0.057503 0.743351 -0.119871
C22   C     C_R   0.426400 0.461216 0.073086 0.170925
C23   C     C_R   0.503478 0.739829 0.498855 0.895816
C24   C     C_R   0.565641 0.559755 0.068287 0.281049
C25   C     C_R   0.566618 0.556354 0.924796 -0.175090
C26   C     C_R   0.425723 0.463257 0.930842 0.194437
C27   C     C_3   0.379832 0.339909 0.928410 -0.496452
C28   C     C_3   0.381393 0.337220 0.082336 -0.506169
C29   C     C_R   0.673395 0.499397 0.499686 0.912645
C30   C     C_R   0.814536 0.507281 0.622580 -0.253229
C31   C     C_R   0.769335 0.497094 0.499731 -0.076802
C32   C     C_R   0.815759 0.483953 0.377590 -0.216787
C33   C     C_R   0.907951 0.483129 0.377007 0.109468
C34   C     C_R   0.953649 0.494012 0.500703 0.058455
H1    H     H_    0.778250 0.517117 0.717176 0.166742
H2    H     H_    0.536441 0.891670 0.280025 0.199127
H3    H     H_    0.396075 0.869267 0.718180 0.201981
H4    H     H_    0.496404 0.875392 0.829690 0.206536
H5    H     H_    0.488200 0.096871 0.834731 0.163105
H6    H     H_    0.620472 0.600861 0.867907 0.178037
H7    H     H_    0.311657 0.346044 0.885695 0.203257
H8    H     H_    0.423193 0.269849 0.883202 0.228549
H9    H     H_    0.313928 0.342416 0.128923 0.198961
H10   H     H_    0.780400 0.474238 0.282999 0.191782
H11   H     H_    0.424935 0.263477 0.125610 0.212928
H12   H     H_    0.920331 0.463774 0.159578 0.151131
H13   H     H_    0.083430 0.464834 0.159907 0.140681
H14   H     H_    0.221733 0.478583 0.283498 0.156741
H15   H     H_    0.219749 0.514623 0.718596 0.158165
H16   H     H_    0.079670 0.523157 0.842246 0.142177
H17   H     H_    0.916578 0.524081 0.841652 0.151282
H18   H     H_    0.535509 0.118149 0.282076 0.172364
N1    N     N_R   0.499390 0.499140 0.142800 -0.131140
N2    N     N_R   0.499390 0.499180 0.857150 -0.127079
O1    O     O_R   0.500010 0.316790 0.614690 -0.604939
O2    O     O_R   0.500000 0.316760 0.385350 -0.633253
O3    O     O_R   0.367850 0.499990 0.614680 -0.622298
O4    O     O_R   0.367840 0.499950 0.385340 -0.625848
O5    O     O_R   0.500000 0.683240 0.614650 -0.621792
O6    O     O_R   0.499990 0.683210 0.385310 -0.593758
O7    O     O_R   0.632160 0.500050 0.614660 -0.639424
O8    O     O_R   0.632150 0.500010 0.385320 -0.581188
Zn1   Zn    Zn3+2 0.500010 0.500020 0.653130 0.953472
Zn2   Zn    Zn3+2 0.499990 0.499980 0.346870 0.982429
N3    N     N_3   0.368089 0.106550 0.713347 -0.446895
H19   H     H_    0.326073 0.082634 0.794967 0.196545
H20   H     H_    0.341923 0.063877 0.627618 0.200540
Br1   Br    Br    0.654529 0.662008 0.149820 -0.556855

loop_
_geom_bond_atom_site_label_1
_geom_bond_atom_site_label_2
_ccdc_geom_bond_type
C7    C13   A    
C11   C12   S    
O2    Zn2   S    
C24   C25   A    
O3    Zn1   S    
C6    C7    A    
C1    C15   S    
C17   H2    S    
C20   H4    S    
C27   H7    S    
C3    H12   S    
O5    Zn1   S    
C19   C20   S    
C21   H5    S    
C2    C30   A    
C30   C31   A    
O6    Zn2   S    
C12   O4    A    
C32   C33   A    
C2    C34   A    
C17   C18   A    
C32   H10   S    
C5    C10   A    
C29   C31   S    
C22   C28   S    
C4    C5    A    
C25   N2    A    
C23   O5    A    
C20   H3    S    
C11   C13   A    
C27   H8    S    
C26   C27   S    
C23   O6    A    
C30   H1    S    
C18   C23   S    
C13   H15   S    
C12   O3    A    
C26   N2    A    
C14   C21   S    
C1    O2    A    
C1    O1    A    
C33   C34   A    
C22   N1    A    
C25   H6    S    
C10   H14   S    
C5    C6    A    
N1    Zn2   S    
C29   O7    A    
C28   H11   S    
C6    C34   A    
C10   C11   A    
C24   Br1   S    
C22   C26   A    
C15   C16   A    
C8    H16   S    
C7    C8    A    
C20   C21   S    
C16   H18   S    
N3    H19   S    
N2    Zn1   S    
C27   C28   S    
O7    Zn1   S    
C3    C33   A    
C14   C15   A    
C18   C19   A    
O8    Zn2   S    
C28   H9    S    
O4    Zn2   S    
C21   N3    S    
C24   N1    A    
C29   O8    A    
C2    C9    A    
C14   C19   A    
C31   C32   A    
C3    C4    A    
C16   C17   A    
O1    Zn1   S    
C8    C9    A    
N3    H20   S    
C4    H13   S    
C9    H17   S    
