data_mof_unit_41048.cif
_audit_creation_date              2013-03-05T16:35:53-0500
_audit_creation_method            fapswitch 2.2
_symmetry_space_group_name_H-M    P1
_symmetry_Int_Tables_number       1
_space_group_crystal_system       triclinic
_cell_length_a                    23.506654
_cell_length_b                    9.091117
_cell_length_c                    7.781635
_cell_angle_alpha                 90.017965
_cell_angle_beta                  89.999984
_cell_angle_gamma                 90.0
_cell_volume                      1662.94887175

loop_
_atom_site_label
_atom_site_type_symbol
_atom_site_description
_atom_site_fract_x
_atom_site_fract_y
_atom_site_fract_z
_atom_type_partial_charge
O1    O     O_R   0.500000 0.288390 0.642760 -0.573353
O2    O     O_R   0.500000 0.711610 0.357240 -0.573353
O3    O     O_R   0.500000 0.711610 0.642760 -0.577870
O4    O     O_R   0.500000 0.288390 0.357240 -0.577870
H1    H     H_    0.948286 0.180789 0.723399 0.201829
H2    H     H_    0.051714 0.819211 0.276601 0.201829
H3    H     H_    0.948286 0.819211 0.276601 0.201829
H4    H     H_    0.051714 0.180788 0.723399 0.201829
C1    C     C_R   0.500000 0.220007 0.499983 0.848761
C2    C     C_R   0.500000 0.779993 0.500017 0.848761
O5    O     O_R   0.417880 0.500000 0.642820 -0.580635
O6    O     O_R   0.582120 0.500000 0.357180 -0.580634
O7    O     O_R   0.582120 0.500000 0.642820 -0.580634
O8    O     O_R   0.417880 0.500000 0.357180 -0.580635
C3    C     C_R   0.208955 0.500000 0.500000 0.210880
C4    C     C_R   0.791045 0.500000 0.500000 0.210880
C5    C     C_R   0.390668 0.500000 0.500000 0.834111
C6    C     C_R   0.609332 0.500000 0.500000 0.834110
Cu1   Cu    Cu3+1 0.500000 0.500000 0.669080 1.023989
Cu2   Cu    Cu3+1 0.500000 0.500000 0.330920 1.023989
C7    C     C_R   0.298224 0.558966 0.639807 -0.223449
C8    C     C_R   0.701776 0.441030 0.360195 -0.223449
C9    C     C_R   0.298224 0.441033 0.360193 -0.223449
C10   C     C_R   0.701776 0.558970 0.639805 -0.223449
H5    H     H_    0.320859 0.605988 0.747934 0.192339
H6    H     H_    0.679141 0.394004 0.252070 0.192338
H7    H     H_    0.320859 0.394011 0.252066 0.192339
H8    H     H_    0.679141 0.605996 0.747930 0.192338
C11   C     C_R   0.328222 0.500000 0.500000 -0.138870
C12   C     C_R   0.671778 0.500000 0.500000 -0.138869
C13   C     C_R   0.880383 0.612796 0.421075 0.627270
C14   C     C_R   0.119617 0.387203 0.578924 0.627270
C15   C     C_R   0.880383 0.387203 0.578925 0.627270
C16   C     C_R   0.119617 0.612797 0.421075 0.627270
N1    N     N_R   0.852010 0.500000 0.500000 -0.453614
N2    N     N_R   0.147990 0.500000 0.500000 -0.453613
C17   C     C_R   0.940040 0.384828 0.580631 -0.028639
C18   C     C_R   0.059960 0.615171 0.419370 -0.028639
C19   C     C_R   0.940040 0.615171 0.419369 -0.028639
C20   C     C_R   0.059960 0.384828 0.580631 -0.028639
C21   C     C_R   0.969984 0.500000 0.500000 -0.009328
C22   C     C_R   0.030016 0.500000 0.500000 -0.009328
C23   C     C_R   0.970322 0.270548 0.660605 -0.133854
C24   C     C_R   0.029678 0.729451 0.339395 -0.133854
C25   C     C_R   0.970322 0.729451 0.339395 -0.133854
C26   C     C_R   0.029678 0.270548 0.660605 -0.133854
C27   C     C_1   0.500000 0.065372 0.499976 -0.153631
C28   C     C_1   0.500000 0.934628 0.500024 -0.153631
C29   C     C_R   0.238871 0.560846 0.639280 0.301347
C30   C     C_R   0.761129 0.439150 0.360722 0.301347
C31   C     C_R   0.238871 0.439153 0.360720 0.301347
C32   C     C_R   0.761129 0.560849 0.639278 0.301347
N3    N     N_1   0.500000 0.500000 0.076820 -0.041426
N4    N     N_1   0.500000 0.500000 0.923180 -0.041426
O9    O     O_2   0.850873 0.722069 0.344762 -0.472700
O10   O     O_2   0.149127 0.277930 0.655237 -0.472700
O11   O     O_2   0.850873 0.277930 0.655238 -0.472699
O12   O     O_2   0.149127 0.722069 0.344763 -0.472700
Br1   Br    Br    0.199635 0.649438 0.828787 -0.368333
Br2   Br    Br    0.800365 0.350556 0.171216 -0.368333
Br3   Br    Br    0.199635 0.350561 0.171213 -0.368333
Br4   Br    Br    0.800365 0.649443 0.828784 -0.368333

loop_
_geom_bond_atom_site_label_1
_geom_bond_atom_site_label_2
_geom_bond_distance
_ccdc_geom_bond_type
C10   C32   1.395292 A    
C14   N2    1.368928 A    
C18   C24   1.404911 A    
C6    C12   1.467889 S    
O4    Cu2   1.934708 S    
C3    C31   1.405279 A    
C5    C11   1.467892 S    
C21   C22   1.411130 A    
C9    C31   1.395294 A    
C27   C28   1.188616 T    
C29   Br1   1.916568 S    
C8    C30   1.395294 A    
C19   C25   1.404911 A    
C30   Br2   1.916570 S    
O3    Cu1   1.934707 S    
O6    Cu2   1.941152 S    
C20   C22   1.409197 A    
H1    C23   1.083152 S    
C19   C21   1.409197 A    
O3    C2    1.273079 A    
C32   Br4   1.916571 S    
N3    N4    1.195571 T    
C20   C26   1.404911 A    
O8    C5    1.282308 A    
O5    Cu1   1.941155 S    
O7    C6    1.282308 A    
C17   C21   1.409198 A    
C9    C11   1.402800 A    
Cu1   N4    1.977313 S    
C7    C29   1.395292 A    
C15   N1    1.368928 A    
C16   N2    1.368928 A    
C13   C19   1.402575 A    
C1    C27   1.405800 S    
C9    H7    1.083314 S    
C3    C29   1.405278 A    
C4    N1    1.433097 S    
C2    C28   1.405800 S    
C4    C30   1.405281 A    
C23   C26   1.395247 A    
H4    C26   1.083151 S    
C17   C23   1.404911 A    
O1    Cu1   1.934580 S    
C10   C12   1.402803 A    
O7    Cu1   1.941152 S    
O2    Cu2   1.934579 S    
O2    C2    1.272974 A    
C18   C22   1.409196 A    
H3    C25   1.083152 S    
C3    N2    1.433100 S    
C14   C20   1.402573 A    
O1    C1    1.272974 A    
C24   C25   1.395245 A    
H2    C24   1.083152 S    
O8    Cu2   1.941154 S    
C4    C32   1.405282 A    
C8    H6    1.083318 S    
O6    C6    1.282308 A    
C16   O12   1.349470 S    
C13   N1    1.368928 A    
C7    H5    1.083316 S    
O5    C5    1.282308 A    
C15   O11   1.349471 S    
C8    C12   1.402802 A    
C13   O9    1.349470 S    
O4    C1    1.273079 A    
C16   C18   1.402573 A    
C7    C11   1.402800 A    
C14   O10   1.349470 S    
C15   C17   1.402573 A    
Cu1   Cu2   2.631438 S    
C10   H8    1.083317 S    
Cu2   N3    1.977313 S    
C31   Br3   1.916567 S    
