data_mof_unit_26724.cif
_audit_creation_date              2012-12-11T15:28:44-0500
_audit_creation_method            fapswitch 2.2
_symmetry_space_group_name_H-M    P1
_symmetry_Int_Tables_number       1
_space_group_crystal_system       triclinic
_cell_length_a                    6.954098
_cell_length_b                    19.574499
_cell_length_c                    23.43335
_cell_angle_alpha                 96.164991
_cell_angle_beta                  91.154852
_cell_angle_gamma                 88.689499
_cell_volume                      3170.03789941

loop_
_atom_site_label
_atom_site_type_symbol
_atom_type_description
_atom_site_fract_x
_atom_site_fract_y
_atom_site_fract_z
_atom_type_partial_charge
O1    O     O_R   0.617180 0.809390 0.808140 -0.516332
O2    O     O_R   0.382820 0.190610 0.191860 -0.513424
O3    O     O_R   0.293300 0.672410 0.795490 -0.535239
O4    O     O_R   0.706700 0.327590 0.204510 -0.535094
O5    O     O_R   0.117220 0.690610 0.691850 -0.523479
O6    O     O_R   0.882780 0.309390 0.308150 -0.522421
C1    C     C_R   0.464925 0.647965 0.805509 0.696405
C2    C     C_R   0.535075 0.352033 0.194490 0.696960
O7    O     O_R   0.287840 0.807750 0.814460 -0.524232
O8    O     O_R   0.712160 0.192250 0.185540 -0.524760
O9    O     O_R   0.111720 0.826910 0.710960 -0.540358
O10   O     O_R   0.888280 0.173090 0.289040 -0.537796
C3    C     C_R   0.456507 0.830813 0.833146 0.712431
C4    C     C_R   0.543449 0.169319 0.166767 0.717654
O11   O     O_R   0.622680 0.673080 0.789040 -0.532481
O12   O     O_R   0.377320 0.326920 0.210960 -0.532153
O13   O     O_3   0.448820 0.756130 0.716020 -0.364283
O14   O     O_3   0.551180 0.243870 0.283980 -0.365013
V1    V     V_3+5 0.176220 0.748860 0.756300 1.416130
V2    V     V_3+5 0.823780 0.251140 0.243700 1.414464
O15   O     O_R   0.781670 0.827580 0.704500 -0.534978
O16   O     O_R   0.218330 0.172420 0.295500 -0.534897
C5    C     C_R   0.948305 0.852180 0.694718 0.767458
C6    C     C_R   0.052268 0.147778 0.305411 0.759483
O17   O     O_R   0.787130 0.692240 0.685530 -0.526116
O18   O     O_R   0.212870 0.307760 0.314470 -0.526970
C7    C     C_R   0.956109 0.669282 0.666754 0.705980
C8    C     C_R   0.043880 0.330735 0.333235 0.705976
V3    V     V_3+5 0.675510 0.751130 0.743690 1.420118
V4    V     V_3+5 0.324490 0.248870 0.256310 1.413208
O19   O     O_3   0.952780 0.743870 0.783980 -0.355802
O20   O     O_3   0.047220 0.256130 0.216020 -0.355339
C9    C     C_1   0.966627 0.617272 0.614677 -0.216347
C10   C     C_1   0.033319 0.382786 0.385287 -0.217386
C11   C     C_1   0.978166 0.573762 0.571857 -0.001922
C12   C     C_1   0.021741 0.426321 0.428089 -0.001976
C13   C     C_1   0.993370 0.521928 0.521273 -0.003923
C14   C     C_1   0.006515 0.478168 0.478664 -0.003784
C15   C     C_R   0.953406 0.914124 0.663791 -0.145842
C16   C     C_R   0.054974 0.085676 0.336543 -0.156416
C17   C     C_R   0.960186 0.038174 0.667742 -0.234842
C18   C     C_R   0.146724 0.965735 0.338253 -0.237302
C19   C     C_R   0.962446 0.978873 0.695895 0.241397
C20   C     C_R   0.138249 0.024677 0.309730 0.238462
C21   C     C_R   0.946920 0.909220 0.602844 0.159895
C22   C     C_R   0.985010 0.087316 0.393338 0.155241
C23   C     C_R   0.972551 0.969534 0.574094 0.049152
C24   C     C_R   0.022012 0.029820 0.425683 0.048162
C25   C     C_R   0.966419 0.034141 0.607809 0.057984
C26   C     C_R   0.092680 0.967924 0.395553 0.056801
C27   C     C_R   0.006783 0.968609 0.513584 0.063754
C28   C     C_R   0.996609 0.031258 0.486730 0.062199
C29   C     C_R   0.984956 0.093643 0.522730 -0.155983
C30   C     C_R   0.073333 0.908636 0.480606 -0.156263
C31   C     C_R   0.972286 0.094884 0.581834 -0.191781
C32   C     C_R   0.116506 0.908583 0.423146 -0.196543
H1    H     H_    0.002904 0.142746 0.507001 0.168316
H2    H     H_    0.110418 0.862106 0.499349 0.168755
C33   C     C_R   0.485199 0.585632 0.835565 -0.043565
C34   C     C_R   0.514796 0.414363 0.164431 -0.043562
C35   C     C_R   0.590882 0.467037 0.833227 -0.146269
C36   C     C_R   0.409158 0.532965 0.166772 -0.146116
C37   C     C_R   0.554674 0.525260 0.805346 -0.189550
C38   C     C_R   0.445417 0.474748 0.194657 -0.189238
C39   C     C_R   0.454067 0.587668 0.894782 -0.194400
C40   C     C_R   0.545795 0.412311 0.105205 -0.194491
C41   C     C_R   0.495371 0.529281 0.925067 0.052771
C42   C     C_R   0.504467 0.470694 0.074919 0.052850
C43   C     C_R   0.562335 0.467964 0.892686 0.100675
C44   C     C_R   0.437562 0.532018 0.107303 0.100637
C45   C     C_R   0.476073 0.530091 0.986177 0.014062
C46   C     C_R   0.523718 0.469879 0.013806 0.014086
C47   C     C_R   0.587068 0.410431 0.979407 -0.242625
C48   C     C_R   0.412703 0.589537 0.020576 -0.242532
C49   C     C_R   0.604343 0.408724 0.920075 0.266144
C50   C     C_R   0.395485 0.591249 0.079910 0.265950
H3    H     H_    0.645500 0.421501 0.807872 0.158195
H4    H     H_    0.354602 0.578514 0.192134 0.158242
H5    H     H_    0.623259 0.363247 0.997111 0.125417
H6    H     H_    0.376450 0.636721 0.002874 0.125472
C51   C     C_1   0.467176 0.882978 0.885125 -0.214275
C52   C     C_1   0.532664 0.117360 0.114646 -0.216114
C53   C     C_1   0.478507 0.926560 0.927904 -0.004817
C54   C     C_1   0.521159 0.073874 0.071804 -0.003276
C55   C     C_1   0.493346 0.978386 0.978510 -0.005413
C56   C     C_1   0.506198 0.022096 0.021167 -0.004019
H7    H     H_    0.970298 0.144279 0.607684 0.125213
H8    H     H_    0.173473 0.861597 0.400278 0.125629
N1    N     N_2   0.866023 0.143810 0.415658 -0.542444
H9    H     H_    0.898848 0.190875 0.402871 0.242812
C57   C     C_3   0.662168 0.130371 0.412536 -0.490508
H10   H     H_    0.581443 0.175342 0.433789 0.184885
H11   H     H_    0.630112 0.084765 0.434873 0.202342
H12   H     H_    0.612907 0.121430 0.367010 0.192994
N2    N     N_2   0.895451 0.845630 0.571369 -0.540695
H13   H     H_    0.943129 0.801995 0.588799 0.236687
C58   C     C_3   0.695927 0.842416 0.552791 -0.520837
H14   H     H_    0.670983 0.792923 0.526115 0.190381
H15   H     H_    0.600787 0.845818 0.590588 0.195282
H16   H     H_    0.658723 0.884912 0.526424 0.208681
N3    N     N_2   0.204982 0.021383 0.252476 -0.521132
H17   H     H_    0.149034 0.980696 0.226186 0.251401
C59   C     C_3   0.412058 0.023593 0.248332 -0.516101
H18   H     H_    0.481060 0.977951 0.265307 0.179605
H19   H     H_    0.467844 0.071047 0.272659 0.206247
H20   H     H_    0.451440 0.023494 0.202668 0.186435
N4    N     N_2   0.964917 0.984687 0.756964 -0.526490
H21   H     H_    0.877344 0.024047 0.775151 0.253785
C60   C     C_3   0.156065 0.986977 0.782525 -0.533619
H22   H     H_    0.228282 0.034772 0.773812 0.184665
H23   H     H_    0.244279 0.941763 0.765205 0.206469
H24   H     H_    0.146113 0.986262 0.829689 0.197617
H25   H     H_    0.960091 0.087863 0.693166 0.126586
H26   H     H_    0.204022 0.918419 0.315980 0.128999
N5    N     N_2   0.666972 0.346463 0.888043 -0.530141
H27   H     H_    0.768389 0.318875 0.909360 0.258199
C61   C     C_3   0.511693 0.303767 0.864228 -0.569958
H28   H     H_    0.571870 0.258475 0.837321 0.198507
H29   H     H_    0.414623 0.332771 0.836792 0.207667
H30   H     H_    0.427585 0.285494 0.899264 0.197408
N6    N     N_2   0.332798 0.653504 0.111940 -0.530254
H31   H     H_    0.231178 0.681032 0.090645 0.258296
C62   C     C_3   0.488064 0.696281 0.135656 -0.568891
H32   H     H_    0.427853 0.741536 0.162617 0.198886
H33   H     H_    0.571749 0.714614 0.100554 0.197467
H34   H     H_    0.585493 0.667322 0.163019 0.207676
H35   H     H_    0.596246 0.363794 0.084232 0.094551
H36   H     H_    0.403562 0.636175 0.915749 0.094674
H37   H     H_    0.417693 0.476661 0.240155 0.111032
H38   H     H_    0.582498 0.523358 0.759857 0.110848

loop_
_geom_bond_atom_site_label_1
_geom_bond_atom_site_label_2
_ccdc_geom_bond_type
C40   C42   A    
N3    H17   S    
O13   V3    S    
N2    H13   S    
O4    C2    A    
V1    O19   S    
C58   H14   S    
C62   H32   S    
C23   C25   A    
C22   N1    S    
C55   C56   T    
C7    C9    S    
C16   C22   A    
O9    V1    S    
C48   C50   A    
C50   N6    S    
C11   C13   S    
C54   C56   S    
O3    C1    A    
C60   H23   S    
V2    O20   S    
C9    C11   T    
C32   H8    S    
O12   V4    S    
N5    H27   S    
C3    C51   S    
C40   H35   S    
C36   C44   A    
C2    O12   A    
C21   C23   A    
C17   C25   A    
C35   C37   A    
O7    C3    A    
C36   C38   A    
C58   H15   S    
O5    C7    A    
O7    V1    S    
O6    C8    A    
C35   H3    S    
N5    C61   S    
N4    H21   S    
O3    V1    S    
O14   V4    S    
N1    C57   S    
C41   C45   A    
C15   C21   A    
C24   C26   A    
C34   C40   A    
N3    C59   S    
C48   H6    S    
C17   C19   A    
C18   C20   A    
C1    C33   S    
C51   C53   T    
C18   H26   S    
O11   V3    S    
C22   C24   A    
C29   C31   A    
O17   V3    S    
C30   C32   A    
C27   C28   A    
C37   H38   S    
C39   H36   S    
O8    C4    A    
C61   H30   S    
O8    V2    S    
C57   H10   S    
C29   H1    S    
C62   H34   S    
C15   C19   A    
C1    O11   A    
C39   C41   A    
C25   C31   A    
O15   V3    S    
C26   C32   A    
C41   C43   A    
C13   C14   T    
C57   H11   S    
C24   C28   A    
C42   C46   A    
O10   V2    S    
O1    V3    S    
C47   H5    S    
C59   H19   S    
C19   N4    S    
N6    H31   S    
C18   C26   A    
C53   C55   S    
O18   V4    S    
C52   C54   T    
O15   C5    A    
C44   C50   A    
O16   C6    A    
C60   H24   S    
O1    C3    A    
C47   C49   A    
C12   C14   S    
C21   N2    S    
C58   H16   S    
C28   C29   A    
C30   H2    S    
C35   C43   A    
C6    C16   S    
O16   V4    S    
C33   C37   A    
C36   H4    S    
C17   H25   S    
C46   C47   A    
C45   C48   A    
C23   C27   A    
C20   N3    S    
N2    C58   S    
O5    V1    S    
O17   C7    A    
O6    V2    S    
O10   C6    A    
O18   C8    A    
C34   C38   A    
O2    V4    S    
C27   C30   A    
C61   H29   S    
C45   C46   A    
V3    O19   S    
C60   H22   S    
C33   C39   A    
C57   H12   S    
V4    O20   S    
N4    C60   S    
C5    C15   S    
O9    C5    A    
O13   V1    S    
C10   C12   T    
C43   C49   A    
C59   H20   S    
O14   V2    S    
C31   H7    S    
O2    C4    A    
N6    C62   S    
C62   H33   S    
C8    C10   S    
O4    V2    S    
C16   C20   A    
C49   N5    S    
C38   H37   S    
C42   C44   A    
C59   H18   S    
C4    C52   S    
N1    H9    S    
C61   H28   S    
C2    C34   S    
