data_mof_unit_25019.cif
_audit_creation_date              2012-12-10T17:02:12-0500
_audit_creation_method            fapswitch 2.2
_symmetry_space_group_name_H-M    P1
_symmetry_Int_Tables_number       1
_space_group_crystal_system       triclinic
_cell_length_a                    10.627334
_cell_length_b                    10.672458
_cell_length_c                    10.042846
_cell_angle_alpha                 91.185108
_cell_angle_beta                  90.062215
_cell_angle_gamma                 89.865373
_cell_volume                      1138.80993238

loop_
_atom_site_label
_atom_site_type_symbol
_atom_type_description
_atom_site_fract_x
_atom_site_fract_y
_atom_site_fract_z
_atom_type_partial_charge
C1    C     C_R   0.497134 0.262553 0.498193 0.962523
C2    C     C_2   0.494406 0.129755 0.491831 -0.411787
C3    C     C_2   0.573118 0.570975 0.926602 -0.118759
C4    C     C_R   0.260673 0.501037 0.499952 0.858804
C5    C     C_2   0.568385 0.575543 0.076635 -0.064014
C6    C     C_R   0.492536 0.737452 0.501413 0.944004
C7    C     C_R   0.739238 0.499656 0.500064 0.877784
C8    C     C_R   0.128791 0.731531 0.448831 -0.127386
C9    C     C_R   0.062131 0.841753 0.426103 -0.118507
C10   C     C_R   0.931208 0.841045 0.427304 -0.141128
C11   C     C_R   0.866702 0.730071 0.451148 -0.161548
C12   C     C_R   0.064733 0.618437 0.473631 0.077995
C13   C     C_R   0.933115 0.617358 0.474508 0.045592
C14   C     C_3   0.870274 0.269939 0.552351 -0.904608
C15   C     C_3   0.322172 0.129323 0.318735 -0.772758
C16   C     C_R   0.128445 0.506024 0.499845 -0.127502
C17   C     C_R   0.066526 0.395049 0.527050 -0.206437
C18   C     C_R   0.937096 0.391991 0.526740 0.187349
C19   C     C_R   0.871727 0.503335 0.500379 -0.105169
C20   C     C_2   0.430011 0.930958 0.398972 0.636738
C21   C     C_2   0.465339 0.868320 0.506847 -0.543217
C22   C     C_2   0.417564 0.066464 0.407458 0.099342
F1    F     F_    0.408355 0.871870 0.279586 -0.650387
H1    H     H_    0.119867 0.310656 0.547155 0.137613
H2    H     H_    0.765022 0.733708 0.451963 0.131090
H3    H     H_    0.468809 0.913353 0.604799 0.138725
H4    H     H_    0.811111 0.279699 0.643017 0.254282
H5    H     H_    0.809548 0.244464 0.465936 0.231566
H6    H     H_    0.937568 0.191687 0.567592 0.234825
H7    H     H_    0.258800 0.059364 0.270472 0.245881
H8    H     H_    0.262764 0.195138 0.378433 0.203508
H9    H     H_    0.370441 0.180539 0.238526 0.255269
H10   H     H_    0.563020 0.083843 0.554451 0.122298
H11   H     H_    0.640112 0.631746 0.878507 0.164571
H12   H     H_    0.433655 0.448116 0.896556 0.168644
H13   H     H_    0.626714 0.644651 0.127684 0.171450
H14   H     H_    0.450659 0.431846 0.100653 0.157712
H15   H     H_    0.230243 0.735678 0.447638 0.150671
H16   H     H_    0.112140 0.927953 0.408124 0.142957
H17   H     H_    0.879472 0.926728 0.410108 0.141528
N1    N     N_2   0.501340 0.501330 0.852150 -0.190229
N2    N     N_2   0.501380 0.501360 0.147810 -0.187610
O1    O     O_R   0.499980 0.319060 0.613040 -0.614941
O2    O     O_R   0.500020 0.319100 0.386900 -0.607517
O3    O     O_R   0.316750 0.499980 0.613090 -0.610615
O4    O     O_R   0.316790 0.500020 0.386950 -0.606847
O5    O     O_R   0.499980 0.680900 0.613100 -0.618356
O6    O     O_R   0.500020 0.680940 0.386960 -0.545194
O7    O     O_R   0.683210 0.499980 0.613050 -0.612833
O8    O     O_R   0.683250 0.500020 0.386910 -0.619529
Zn1   Zn    Zn3+2 0.499970 0.499970 0.650990 0.949702
Zn2   Zn    Zn3+2 0.500030 0.500030 0.349010 0.974458

loop_
_geom_bond_atom_site_label_1
_geom_bond_atom_site_label_2
_ccdc_geom_bond_type
C4    C16   S    
O8    Zn2   S    
C21   H3    S    
C2    C22   D    
N1    Zn1   S    
C14   H4    S    
C9    C10   A    
C14   C18   S    
C1    O2    A    
C20   F1    S    
C9    H16   S    
C8    C12   A    
O2    Zn2   S    
C17   C18   A    
C8    C9    A    
C3    C5    S    
C15   H9    S    
C4    O4    A    
C12   C13   A    
C15   H8    S    
C11   C13   A    
O1    Zn1   S    
C6    O6    A    
O3    Zn1   S    
C2    H10   S    
C20   C22   S    
C1    C2    S    
C7    C19   S    
C4    O3    A    
C8    H15   S    
H12   N1    S    
C17   H1    S    
C6    O5    A    
C13   C19   A    
C14   H6    S    
C5    H13   S    
O4    Zn2   S    
O6    Zn2   S    
C5    N2    D    
C20   C21   D    
C7    O7    A    
C15   H7    S    
C10   H17   S    
C18   C19   A    
C10   C11   A    
H14   N2    S    
C11   H2    S    
C3    N1    D    
O5    Zn1   S    
C3    H11   S    
C14   H5    S    
C6    C21   S    
C1    O1    A    
C15   C22   S    
C12   C16   A    
C7    O8    A    
N2    Zn2   S    
C16   C17   A    
O7    Zn1   S    
