data_mof_unit_35412.cif
_audit_creation_date              2012-12-10T17:12:03-0500
_audit_creation_method            fapswitch 2.2
_symmetry_space_group_name_H-M    P1
_symmetry_Int_Tables_number       1
_space_group_crystal_system       triclinic
_cell_length_a                    11.645206
_cell_length_b                    13.008441
_cell_length_c                    15.853443
_cell_angle_alpha                 92.3136
_cell_angle_beta                  74.022486
_cell_angle_gamma                 100.924332
_cell_volume                      2266.78459978

loop_
_atom_site_label
_atom_site_type_symbol
_atom_type_description
_atom_site_fract_x
_atom_site_fract_y
_atom_site_fract_z
_atom_type_partial_charge
C1    C     C_R   0.522766 0.701353 0.499940 0.848291
C2    C     C_R   0.476465 0.298635 0.501597 0.843305
C3    C     C_R   0.350361 0.447079 0.086028 -0.215726
C4    C     C_R   0.644734 0.486792 0.911971 -0.225930
C5    C     C_R   0.267004 0.437290 0.036907 -0.225745
C6    C     C_R   0.728242 0.495267 0.960818 -0.231042
C7    C     C_R   0.459039 0.184181 0.506259 -0.230236
C8    C     C_R   0.537695 0.815690 0.500061 -0.215473
C9    C     C_R   0.649961 0.988986 0.517427 0.175514
C10   C     C_R   0.343583 0.010328 0.494684 0.202851
C11   C     C_R   0.646604 0.881004 0.506339 0.418416
C12   C     C_R   0.348430 0.118453 0.503058 0.410934
C13   C     C_R   0.438801 0.859415 0.495691 -0.257028
C14   C     C_R   0.556879 0.140268 0.512701 -0.256130
C15   C     C_R   0.443904 0.967052 0.499747 -0.000343
C16   C     C_R   0.550511 0.032456 0.510822 0.009764
C17   C     C_R   0.943300 0.598861 0.581241 0.375051
C18   C     C_R   0.056337 0.400519 0.419416 0.353936
C19   C     C_R   0.824419 0.589851 0.571676 -0.033044
C20   C     C_R   0.176752 0.412440 0.426340 -0.033388
C21   C     C_R   0.857587 0.456967 0.466058 0.038791
C22   C     C_R   0.141955 0.542153 0.534732 0.043183
C23   C     C_R   0.426690 0.494366 0.668239 0.796292
C24   C     C_R   0.573171 0.504478 0.331745 0.797304
C25   C     C_R   0.978375 0.463935 0.470959 -0.078373
C26   C     C_R   0.021433 0.535773 0.529383 -0.091044
C27   C     C_R   0.382663 0.484281 0.764221 -0.047191
C28   C     C_R   0.615944 0.503184 0.235541 -0.053047
C29   C     C_R   0.220545 0.445129 0.898103 -0.197221
C30   C     C_R   0.776093 0.508536 0.100245 -0.196372
C31   C     C_R   0.258486 0.459834 0.807350 -0.202870
C32   C     C_R   0.739302 0.511136 0.191588 -0.190567
C33   C     C_R   0.468060 0.494340 0.812657 -0.243185
C34   C     C_R   0.530064 0.491847 0.187399 -0.247026
C35   C     C_R   0.432536 0.474719 0.903475 0.087895
C36   C     C_R   0.564148 0.485407 0.095535 0.088634
C37   C     C_R   0.306369 0.452428 0.946376 0.165240
C38   C     C_R   0.689817 0.496473 0.051997 0.170108
C39   C     C_R   0.518759 0.478469 0.952777 0.069708
C40   C     C_R   0.477227 0.470948 0.045894 0.066521
Cu1   Cu    Cu3+1 0.386820 0.492450 0.493500 0.941803
Cu2   Cu    Cu3+1 0.613180 0.507550 0.506500 0.942294
H1    H     H_    0.170765 0.418555 0.070297 0.147880
H2    H     H_    0.823887 0.501798 0.926774 0.134670
H3    H     H_    0.238997 0.366969 0.385545 0.150991
H4    H     H_    0.764606 0.640057 0.608223 0.162002
H5    H     H_    0.436833 0.490626 0.223171 0.154895
H6    H     H_    0.562234 0.519354 0.778003 0.145650
H7    H     H_    0.807163 0.519961 0.227635 0.159675
H8    H     H_    0.190958 0.451578 0.771049 0.149811
H9    H     H_    0.123998 0.427139 0.930546 0.129307
H10   H     H_    0.872139 0.516021 0.067219 0.130808
H11   H     H_    0.311852 0.432079 0.155355 0.145875
H12   H     H_    0.681843 0.483592 0.842005 0.137423
H13   H     H_    0.639798 0.191347 0.516925 0.226703
H14   H     H_    0.356736 0.808226 0.490000 0.233862
H15   H     H_    0.176667 0.595849 0.579702 0.178391
H16   H     H_    0.822361 0.402201 0.421980 0.179022
N1    N     N_R   0.216750 0.481110 0.483710 -0.218430
N2    N     N_R   0.783250 0.518890 0.516290 -0.225949
O1    O     O_R   0.419950 0.645670 0.495380 -0.587292
O2    O     O_R   0.580050 0.354330 0.504620 -0.587742
O3    O     O_R   0.611110 0.658410 0.506370 -0.549072
O4    O     O_R   0.388890 0.341590 0.493630 -0.559531
O5    O     O_R   0.350820 0.490050 0.621260 -0.598482
O6    O     O_R   0.649180 0.509950 0.378740 -0.595335
O7    O     O_R   0.541970 0.502800 0.632250 -0.585082
O8    O     O_R   0.458030 0.497200 0.367750 -0.583457
O9    O     O_3   0.988273 0.674704 0.634201 -0.598774
C41   C     C_3   0.910988 0.670235 0.720918 0.027808
H17   H     H_    0.966135 0.661575 0.766427 0.161265
H18   H     H_    0.833979 0.602059 0.734797 0.106308
C42   C     C_3   0.863101 0.772764 0.741467 -0.302796
H19   H     H_    0.940812 0.838696 0.737279 0.234404
H20   H     H_    0.815696 0.787591 0.692474 0.244676
C43   C     C_3   0.775004 0.769355 0.833012 -0.906883
H21   H     H_    0.693865 0.707024 0.837170 0.260730
H22   H     H_    0.744697 0.845739 0.846885 0.264790
H23   H     H_    0.820039 0.754008 0.883336 0.258779
O10   O     O_3   0.017368 0.335501 0.357163 -0.633834
C44   C     C_3   0.033207 0.231357 0.365271 0.063948
H24   H     H_    0.943398 0.179349 0.373211 0.194815
H25   H     H_    0.063995 0.216326 0.423673 0.177002
C45   C     C_3   0.120957 0.200885 0.281122 -0.373672
H26   H     H_    0.083294 0.207296 0.224683 0.227588
H27   H     H_    0.209954 0.255187 0.268761 0.213905
C46   C     C_3   0.140762 0.089133 0.287299 -0.831915
H28   H     H_    0.183483 0.082549 0.340892 0.309837
H29   H     H_    0.202036 0.068276 0.224574 0.252704
H30   H     H_    0.052885 0.033190 0.300104 0.248537
O11   O     O_3   0.247496 0.158963 0.500615 -0.596114
C47   C     C_3   0.185724 0.186978 0.586242 0.087845
H31   H     H_    0.141499 0.253455 0.579050 0.172439
H32   H     H_    0.247416 0.215301 0.628547 0.115792
C48   C     C_3   0.087034 0.095917 0.632082 -0.325369
H33   H     H_    0.029727 0.064614 0.587891 0.290521
H34   H     H_    0.130249 0.032441 0.647319 0.229561
C49   C     C_3   0.006286 0.130533 0.717403 -0.884514
H35   H     H_    0.061598 0.161684 0.762958 0.245653
H36   H     H_    0.936864 0.062489 0.749385 0.270736
H37   H     H_    0.958950 0.191977 0.703903 0.270764
O12   O     O_3   0.746210 0.838431 0.508853 -0.581160
C50   C     C_3   0.840065 0.861131 0.429453 0.095086
H38   H     H_    0.927970 0.879193 0.446609 0.224224
H39   H     H_    0.835088 0.930930 0.392742 0.128473
C51   C     C_3   0.841164 0.766009 0.369335 -0.336644
H40   H     H_    0.849428 0.697143 0.404862 0.253505
H41   H     H_    0.754700 0.748048 0.350144 0.209696
C52   C     C_3   0.947085 0.785864 0.286512 -0.914079
H42   H     H_    0.939480 0.852931 0.248472 0.254282
H43   H     H_    0.945647 0.715221 0.244803 0.258166
H44   H     H_    0.034930 0.802940 0.303812 0.282561
Br1   Br    Br    0.788764 0.072834 0.547321 -0.622863
Br2   Br    Br    0.199338 0.925005 0.473387 -0.579230

loop_
_geom_bond_atom_site_label_1
_geom_bond_atom_site_label_2
_ccdc_geom_bond_type
C46   H28   S    
C17   O9    S    
C8    C13   A    
C5    C37   A    
C1    C8    S    
Cu1   Cu2   S    
C12   O11   S    
C48   H33   S    
C45   C46   S    
Cu1   O1    S    
C22   H15   S    
C44   H24   S    
C48   C49   S    
C27   C33   A    
C17   C26   A    
C35   C37   A    
C9    C16   A    
C45   H27   S    
C10   C15   A    
C52   H43   S    
C51   H40   S    
C15   C16   A    
C30   C38   A    
C42   H19   S    
C23   O7    A    
C21   C25   A    
C17   C19   A    
C46   H29   S    
C7    C14   A    
C2    C7    S    
C6    C38   A    
C41   H17   S    
C23   C27   S    
C50   C51   S    
Cu2   O2    S    
C18   C20   A    
C20   H3    S    
C10   Br2   S    
C24   O6    A    
C13   H14   S    
C14   H13   S    
C5    H1    S    
C28   C34   A    
C6    H2    S    
C42   H20   S    
O12   C50   S    
C18   C25   A    
C1    O3    A    
C44   H25   S    
C2    O4    A    
Cu1   O8    S    
C7    C12   A    
C19   H4    S    
C27   C31   A    
C28   C32   A    
C43   H21   S    
Cu1   N1    S    
C21   N2    A    
C4    C6    A    
C52   H44   S    
Cu2   N2    S    
C39   C40   A    
Cu1   O5    S    
C25   C26   A    
C47   C48   S    
C35   C39   A    
C4    C39   A    
C36   C40   A    
C41   C42   S    
C47   H32   S    
C50   H39   S    
C45   H26   S    
C20   N1    A    
C9    C11   A    
C10   C12   A    
C3    C40   A    
C49   H36   S    
C13   C15   A    
Cu2   O7    S    
C42   C43   S    
C14   C16   A    
C31   H8    S    
C22   N1    A    
C44   C45   S    
C29   H9    S    
C30   H10   S    
C4    H12   S    
C24   C28   S    
C43   H22   S    
O10   C44   S    
C3    C5    A    
C1    O1    A    
C48   H34   S    
C19   N2    A    
C49   H37   S    
C9    Br1   S    
C23   O5    A    
C36   C38   A    
C21   H16   S    
C29   C31   A    
C52   H42   S    
C30   C32   A    
C3    H11   S    
C51   H41   S    
C8    C11   A    
C47   H31   S    
C33   C35   A    
C11   O12   S    
C34   C36   A    
O9    C41   S    
C32   H7    S    
C24   O8    A    
C43   H23   S    
C18   O10   S    
C49   H35   S    
C22   C26   A    
C46   H30   S    
C29   C37   A    
C50   H38   S    
Cu2   O6    S    
C33   H6    S    
C41   H18   S    
C34   H5    S    
Cu1   O4    S    
Cu2   O3    S    
O11   C47   S    
C2    O2    A    
C51   C52   S    
