data_mof_unit_60091.cif
_audit_creation_date              2012-12-10T19:17:52-0500
_audit_creation_method            fapswitch 2.2
_symmetry_space_group_name_H-M    P1
_symmetry_Int_Tables_number       1
_space_group_crystal_system       triclinic
_cell_length_a                    15.992049
_cell_length_b                    14.773797
_cell_length_c                    10.69493
_cell_angle_alpha                 89.519794
_cell_angle_beta                  90.005169
_cell_angle_gamma                 90.000159
_cell_volume                      2526.73054357

loop_
_atom_site_label
_atom_site_type_symbol
_atom_type_description
_atom_site_fract_x
_atom_site_fract_y
_atom_site_fract_z
_atom_type_partial_charge
C1    C     C_R   0.340854 0.500000 0.500026 0.829632
C2    C     C_R   0.659146 0.500000 0.499974 0.829632
C3    C     C_1   0.823315 0.500000 0.499977 -0.042934
C4    C     C_1   0.176685 0.499999 0.500023 -0.042934
C5    C     C_R   0.956367 0.521059 0.609457 -0.160399
C6    C     C_R   0.043633 0.478941 0.390543 -0.160399
C7    C     C_R   0.043634 0.521058 0.609469 -0.160377
C8    C     C_R   0.956366 0.478941 0.390531 -0.160377
C9    C     C_R   0.912775 0.500001 0.499988 0.144502
C10   C     C_R   0.087224 0.499999 0.500012 0.144502
C11   C     C_R   0.499975 0.500498 0.259178 0.810926
C12   C     C_R   0.500025 0.499501 0.740822 0.810926
C13   C     C_1   0.251739 0.500000 0.500027 -0.138645
C14   C     C_1   0.748261 0.500000 0.499973 -0.138645
C15   C     C_R   0.500126 0.951423 0.612788 -0.144263
C16   C     C_R   0.499874 0.048577 0.387212 -0.144262
C17   C     C_R   0.499874 0.952805 0.387195 -0.138982
C18   C     C_R   0.500126 0.047195 0.612805 -0.138982
C19   C     C_R   0.500000 0.902859 0.499983 0.038370
C20   C     C_R   0.500000 0.097141 0.500017 0.038370
C21   C     C_3   0.499982 0.586268 0.037894 -0.053350
C22   C     C_3   0.500018 0.413731 0.962106 -0.053350
C23   C     C_3   0.568409 0.542263 0.957224 -0.075346
C24   C     C_3   0.431591 0.457737 0.042776 -0.075346
C25   C     C_3   0.431589 0.542238 0.957170 -0.075344
C26   C     C_3   0.568411 0.457762 0.042830 -0.075344
C27   C     C_3   0.500016 0.498368 0.876609 -0.131877
C28   C     C_3   0.499984 0.501632 0.123391 -0.131877
C29   C     C_1   0.500000 0.802702 0.499980 0.154416
C30   C     C_1   0.500000 0.197297 0.500020 0.154416
Cu1   Cu    Cu3+1 0.500000 0.589220 0.500000 1.009506
Cu2   Cu    Cu3+1 0.500000 0.410780 0.500000 1.009506
H1    H     H_    0.500225 0.082299 0.701301 0.157459
H2    H     H_    0.499775 0.917701 0.298699 0.157459
H3    H     H_    0.499775 0.084775 0.298723 0.144628
H4    H     H_    0.500224 0.915225 0.701276 0.144628
H5    H     H_    0.077049 0.537414 0.694482 0.152822
H6    H     H_    0.922951 0.462586 0.305518 0.152822
H7    H     H_    0.922952 0.537415 0.694461 0.152812
H8    H     H_    0.077048 0.462585 0.305538 0.152812
N1    N     N_1   0.500000 0.276710 0.500000 -0.146071
N2    N     N_1   0.500000 0.723290 0.500000 -0.146071
O1    O     O_R   0.380310 0.575320 0.500020 -0.567969
O2    O     O_R   0.619690 0.424680 0.499980 -0.567969
O3    O     O_R   0.619690 0.575320 0.499980 -0.567980
O4    O     O_R   0.380310 0.424680 0.500020 -0.567980
O5    O     O_R   0.499980 0.575330 0.316850 -0.577963
O6    O     O_R   0.500020 0.424670 0.683150 -0.577963
O7    O     O_R   0.500020 0.575330 0.683150 -0.572262
O8    O     O_R   0.499980 0.424670 0.316850 -0.572262
C31   C     C_1   0.356683 0.587828 0.908077 0.251052
N3    N     N_1   0.297711 0.623675 0.869245 -0.274084
C32   C     C_1   0.643317 0.412172 0.091923 0.251052
N4    N     N_1   0.702289 0.376324 0.130755 -0.274084
C33   C     C_1   0.499962 0.680971 0.078769 0.295749
N5    N     N_1   0.499946 0.755533 0.111012 -0.291000
C34   C     C_1   0.500038 0.319029 0.921231 0.295749
N6    N     N_1   0.500054 0.244467 0.888988 -0.291000
C35   C     C_1   0.643312 0.587880 0.908192 0.251048
N7    N     N_1   0.702283 0.623749 0.869407 -0.274076
C36   C     C_1   0.356688 0.412120 0.091808 0.251048
N8    N     N_1   0.297717 0.376251 0.130592 -0.274076

loop_
_geom_bond_atom_site_label_1
_geom_bond_atom_site_label_2
_ccdc_geom_bond_type
C6    C10   A    
C7    C10   A    
C23   C35   S    
Cu2   N1    S    
C25   C31   S    
C30   N1    T    
C5    C9    A    
C24   C36   S    
C3    C9    S    
Cu1   N2    S    
C23   C27   S    
C29   N2    T    
C15   C18   A    
C11   O5    A    
Cu1   Cu2   S    
C12   O6    A    
C16   C20   A    
Cu2   O4    S    
C22   C34   S    
C5    H7    S    
C12   O7    A    
C7    H5    S    
C22   C26   S    
C35   N7    T    
C16   H3    S    
C11   O8    A    
Cu1   O5    S    
C32   N4    T    
C20   C30   S    
C15   C19   A    
Cu2   O6    S    
Cu2   O8    S    
C34   N6    T    
C3    C14   T    
Cu1   O1    S    
C8    H6    S    
Cu1   O7    S    
C11   C28   S    
C17   C19   A    
C21   C28   S    
C18   C20   A    
C22   C27   S    
C21   C23   S    
C2    O3    A    
Cu2   O2    S    
C36   N8    T    
C2    C14   S    
C18   H1    S    
C22   C24   S    
C1    O4    A    
C25   C27   S    
C17   H2    S    
C33   N5    T    
C4    C10   S    
C31   N3    T    
C19   C29   S    
C26   C32   S    
C15   H4    S    
C6    H8    S    
C1    C13   S    
C24   C25   S    
C21   C33   S    
Cu1   O3    S    
C23   C26   S    
C4    C13   T    
C5    C7    A    
C21   C25   S    
C8    C9    A    
C6    C8    A    
C12   C27   S    
C26   C28   S    
C1    O1    A    
C24   C28   S    
C2    O2    A    
C16   C17   A    
