data_mof_unit_54755.cif
_audit_creation_date              2012-12-10T17:21:16-0500
_audit_creation_method            fapswitch 2.2
_symmetry_space_group_name_H-M    P1
_symmetry_Int_Tables_number       1
_space_group_crystal_system       triclinic
_cell_length_a                    9.750449
_cell_length_b                    10.897135
_cell_length_c                    13.855267
_cell_angle_alpha                 96.79196
_cell_angle_beta                  84.697585
_cell_angle_gamma                 91.894747
_cell_volume                      1455.1976982

loop_
_atom_site_label
_atom_site_type_symbol
_atom_type_description
_atom_site_fract_x
_atom_site_fract_y
_atom_site_fract_z
_atom_type_partial_charge
C1    C     C_R   0.501868 0.738012 0.498360 0.852459
C2    C     C_1   0.461547 0.500352 0.785711 -0.163429
C3    C     C_R   0.272175 0.877408 0.435000 0.217526
C4    C     C_R   0.141802 0.910706 0.482026 0.185117
C5    C     C_R   0.135245 0.007086 0.559551 0.259178
C6    C     C_R   0.245431 0.092679 0.567470 0.312510
C7    C     C_R   0.373099 0.061214 0.515191 -0.147110
C8    C     C_R   0.388701 0.937512 0.474785 -0.090755
C9    C     C_R   0.504637 0.874716 0.499043 -0.210182
C10   C     C_R   0.608678 0.946952 0.545482 0.395441
C11   C     C_R   0.610146 0.076024 0.550276 0.194893
C12   C     C_R   0.477017 0.500632 0.682480 0.811615
C13   C     C_R   0.492710 0.133944 0.526791 -0.147439
C14   C     C_R   0.887280 0.354106 0.336349 0.313511
C15   C     C_R   0.982376 0.306459 0.258296 0.215056
C16   C     C_R   0.120124 0.300385 0.272451 0.148172
C17   C     C_R   0.164846 0.350191 0.359909 -0.219640
C18   C     C_R   0.083082 0.426199 0.428967 0.054456
C19   C     C_R   0.935093 0.428359 0.423483 0.011265
C20   C     C_R   0.920949 0.563324 0.573309 0.335603
C21   C     C_R   0.068748 0.570767 0.568928 0.362604
C22   C     C_R   0.497081 0.264972 0.509819 0.888511
C23   C     C_R   0.522485 0.499853 0.317519 0.862229
C24   C     C_1   0.535530 0.493963 0.213803 -0.140502
C25   C     C_2   0.555484 0.478871 0.021130 0.172937
C26   C     C_2   0.442166 0.499394 0.976606 0.322290
C27   C     C_1   0.449967 0.500134 0.872670 0.008119
C28   C     C_1   0.545208 0.487430 0.126358 0.052939
Cu1   Cu    Cu3+1 0.359340 0.500010 0.500010 1.002413
Cu2   Cu    Cu3+1 0.640660 0.499990 0.499990 1.015445
H1    H     H_    0.267803 0.330277 0.369519 0.227593
N1    N     N_R   0.852210 0.498790 0.499090 -0.206672
N2    N     N_R   0.148080 0.498710 0.499060 -0.198156
O1    O     O_R   0.381190 0.680360 0.500010 -0.538605
O2    O     O_R   0.618760 0.680340 0.500000 -0.540336
O3    O     O_R   0.364420 0.499990 0.637850 -0.532162
O4    O     O_R   0.601990 0.499960 0.637840 -0.615756
O5    O     O_R   0.381240 0.319660 0.500000 -0.578015
O6    O     O_R   0.618810 0.319640 0.499990 -0.549099
O7    O     O_R   0.398010 0.500040 0.362160 -0.591667
O8    O     O_R   0.635580 0.500010 0.362150 -0.517144
Cl1   Cl    Cl    0.280458 0.529629 0.042297 -0.650692
Cl2   Cl    Cl    0.727385 0.276568 0.319898 -0.652641
N3    N     N_2   0.937489 0.256270 0.166283 -0.396421
H2    H     H_    0.993006 0.289768 0.107556 0.280311
C29   C     C_3   0.916417 0.123177 0.151648 -0.520554
H3    H     H_    0.004055 0.079648 0.104349 0.224594
H4    H     H_    0.820652 0.101500 0.114939 0.235361
H5    H     H_    0.906088 0.082251 0.221891 0.239747
N4    N     N_2   0.214469 0.240857 0.198507 -0.394138
H6    H     H_    0.297308 0.297303 0.179805 0.286369
C30   C     C_3   0.258059 0.121281 0.218097 -0.672834
H7    H     H_    0.318812 0.076299 0.152475 0.243620
H8    H     H_    0.167508 0.060690 0.235576 0.242158
H9    H     H_    0.323764 0.131482 0.280124 0.219692
N5    N     N_2   0.134055 0.669066 0.626552 -0.386089
H10   H     H_    0.095922 0.754393 0.620897 0.307044
C31   C     C_3   0.157387 0.654573 0.726232 -0.528013
H11   H     H_    0.088203 0.714908 0.777891 0.226240
H12   H     H_    0.263679 0.687008 0.739649 0.226133
H13   H     H_    0.143397 0.557025 0.741677 0.238958
N6    N     N_2   0.685162 0.452950 0.965468 -0.457202
H14   H     H_    0.679176 0.407448 0.896344 0.252033
C32   C     C_3   0.795169 0.409240 0.014728 -0.580854
H15   H     H_    0.889275 0.396882 0.963218 0.240787
H16   H     H_    0.764276 0.318911 0.040666 0.246568
H17   H     H_    0.820128 0.477493 0.077103 0.250761
Cl3   Cl    Cl    0.717554 0.884222 0.619410 -0.515549
N7    N     N_2   0.286585 0.780109 0.355890 -0.375890
H18   H     H_    0.197261 0.736682 0.334355 0.309461
C33   C     C_3   0.384630 0.802712 0.274575 -0.636504
H19   H     H_    0.385060 0.721855 0.217735 0.251904
H20   H     H_    0.490391 0.816273 0.298137 0.222103
H21   H     H_    0.355331 0.885207 0.242029 0.226910
Cl4   Cl    Cl    0.991153 0.826451 0.451620 -0.618484
Cl5   Cl    Cl    0.010826 0.002433 0.659773 -0.474333
Cl6   Cl    Cl    0.232944 0.216672 0.662664 -0.565114
N8    N     N_2   0.718270 0.145618 0.595444 -0.355615
H22   H     H_    0.690189 0.226904 0.637495 0.260905
C34   C     C_3   0.845179 0.154620 0.533808 -0.459269
H23   H     H_    0.880443 0.061733 0.502678 0.278336
H24   H     H_    0.925162 0.204795 0.576160 0.236484
H25   H     H_    0.830618 0.205515 0.472421 0.222221
N9    N     N_2   0.846406 0.626276 0.656416 -0.373736
H26   H     H_    0.754629 0.661660 0.644790 0.341213
C35   C     C_3   0.845344 0.571723 0.747301 -0.624783
H27   H     H_    0.741048 0.538720 0.770995 0.228714
H28   H     H_    0.874321 0.642940 0.806133 0.248160
H29   H     H_    0.914905 0.491862 0.740871 0.216709

loop_
_geom_bond_atom_site_label_1
_geom_bond_atom_site_label_2
_ccdc_geom_bond_type
C2    C12   S    
C7    C8    A    
N3    H2    S    
C25   C28   S    
C29   H5    S    
C26   Cl1   S    
C26   C27   S    
Cu1   Cu2   S    
Cu2   O2    S    
C3    N7    S    
C16   N4    S    
C15   N3    S    
C5    C6    A    
N8    C34   S    
C21   N2    A    
C31   H12   S    
C15   C16   A    
C22   O5    A    
Cu1   N2    S    
N5    H10   S    
C18   C19   A    
C12   O4    A    
N7    C33   S    
C4    Cl4   S    
N6    C32   S    
N3    C29   S    
C8    C9    A    
Cu1   O5    S    
C13   C22   S    
N4    C30   S    
C23   C24   S    
Cu2   O8    S    
C2    C27   T    
C12   O3    A    
C9    C10   A    
C30   H9    S    
C31   H13   S    
C34   H25   S    
C19   N1    A    
C30   H8    S    
C1    O1    A    
N4    H6    S    
C29   H4    S    
C32   H17   S    
C1    C9    S    
N9    H26   S    
C34   H24   S    
C3    C8    A    
C33   H20   S    
C35   H27   S    
C4    C5    A    
C6    Cl6   S    
C25   C26   D    
Cu1   O1    S    
Cu2   O4    S    
C32   H16   S    
N6    H14   S    
C11   N8    S    
C33   H21   S    
Cu1   O3    S    
C17   C18   A    
C20   N9    S    
C17   H1    S    
C3    C4    A    
C30   H7    S    
C1    O2    A    
C20   N1    A    
C29   H3    S    
N8    H22   S    
C14   C19   A    
C24   C28   T    
N9    C35   S    
C34   H23   S    
C35   H29   S    
C21   N5    S    
C6    C7    A    
C10   Cl3   S    
C23   O8    A    
C32   H15   S    
C5    Cl5   S    
C31   H11   S    
C33   H19   S    
Cu2   N1    S    
C11   C13   A    
C16   C17   A    
C22   O6    A    
Cu1   O7    S    
N5    C31   S    
Cu2   O6    S    
C35   H28   S    
C25   N6    S    
N7    H18   S    
C18   N2    A    
C10   C11   A    
C7    C13   A    
C20   C21   A    
C14   C15   A    
C23   O7    A    
C14   Cl2   S    
