data_mof_unit_40072.cif
_audit_creation_date              2012-10-26T20:22:05-0400
_audit_creation_method            fapswitch 2.2
_symmetry_space_group_name_H-M    P1
_symmetry_Int_Tables_number       1
_space_group_crystal_system       triclinic
_cell_length_a                    10.847254
_cell_length_b                    9.52256
_cell_length_c                    10.638709
_cell_angle_alpha                 89.669363
_cell_angle_beta                  90.48136
_cell_angle_gamma                 90.197789
_cell_volume                      1098.84739606

loop_
_atom_site_label
_atom_site_type_symbol
_atom_type_description
_atom_site_fract_x
_atom_site_fract_y
_atom_site_fract_z
_atom_type_partial_charge
C1    C     C_R   0.871554 0.502531 0.503544 -0.059132
C2    C     C_3   0.388160 0.458477 0.041630 -0.151782
C3    C     C_3   0.414066 0.587763 0.958039 0.049196
C4    C     C_3   0.585642 0.411551 0.041520 0.068536
C5    C     C_3   0.499319 0.499247 0.877074 0.005987
C6    C     C_3   0.500447 0.500223 0.122650 -0.004622
C7    C     C_R   0.429051 0.074655 0.416032 0.068653
C8    C     C_R   0.570998 0.925356 0.583933 0.056360
C9    C     C_R   0.570855 0.074151 0.584025 0.050622
C10   C     C_R   0.429212 0.925868 0.415919 0.055508
C11   C     C_R   0.064726 0.405006 0.579758 0.016175
C12   C     C_R   0.128292 0.498344 0.499063 -0.057382
C13   C     C_R   0.935105 0.598005 0.424858 0.009075
C14   C     C_R   0.935763 0.408525 0.583651 0.006495
C15   C     C_R   0.064123 0.594843 0.421455 0.007118
C16   C     C_2   0.318101 0.686867 0.908327 0.606908
C17   C     C_2   0.681553 0.311338 0.089610 0.628846
C18   C     C_2   0.132803 0.310297 0.667082 0.646935
C19   C     C_2   0.866492 0.696107 0.340829 0.637567
C20   C     C_2   0.869074 0.318248 0.676005 0.612444
C21   C     C_2   0.131556 0.685130 0.329985 0.610210
C22   C     C_R   0.262409 0.499550 0.500074 0.588256
C23   C     C_R   0.737536 0.500517 0.501057 0.599013
C24   C     C_R   0.500424 0.500231 0.259319 0.603825
C25   C     C_R   0.499510 0.499675 0.740587 0.596266
C26   C     C_3   0.525197 0.630707 0.040612 -0.148875
C27   C     C_3   0.474444 0.368775 0.958929 -0.134506
C28   C     C_3   0.611572 0.540888 0.957976 -0.126442
Cu1   Cu    Cu3+1 0.500000 0.640660 0.500000 1.038465
Cu2   Cu    Cu3+1 0.500000 0.359340 0.500000 1.055791
H1    H     H_    0.544832 0.737996 0.076033 0.158610
H2    H     H_    0.835613 0.282885 0.193801 0.356351
H3    H     H_    0.198367 0.276704 0.842507 0.341431
H4    H     H_    0.756223 0.720605 0.189070 0.336503
H5    H     H_    0.844946 0.125249 0.751302 0.342478
H6    H     H_    0.253442 0.695607 0.188329 0.343462
H7    H     H_    0.454150 0.261765 0.923159 0.166404
H8    H     H_    0.702900 0.573802 0.921580 0.177198
H9    H     H_    0.296840 0.425064 0.077646 0.182865
H10   H     H_    0.372081 0.130877 0.348828 0.137354
H11   H     H_    0.628002 0.869146 0.651118 0.128047
H12   H     H_    0.627346 0.130018 0.651493 0.141863
H13   H     H_    0.372782 0.870071 0.348357 0.146881
H14   H     H_    0.165637 0.713267 0.801248 0.356278
N1    N     N_R   0.500000 0.852070 0.500000 -0.239975
N2    N     N_R   0.500000 0.147930 0.500000 -0.237100
O1    O     O_R   0.319640 0.618740 0.499990 -0.481272
O2    O     O_R   0.224259 0.636586 0.829871 -0.643281
O3    O     O_2   0.675450 0.187183 0.061691 -0.506684
O4    O     O_R   0.777196 0.360318 0.166426 -0.634366
O5    O     O_2   0.170268 0.197044 0.629856 -0.449882
O6    O     O_R   0.150696 0.349536 0.792249 -0.642350
O7    O     O_2   0.866445 0.821891 0.363267 -0.446379
O8    O     O_R   0.799623 0.643813 0.238541 -0.647679
O9    O     O_2   0.792461 0.369963 0.745393 -0.529191
O10   O     O_R   0.894946 0.174712 0.684108 -0.646737
O11   O     O_2   0.118192 0.812550 0.330714 -0.461030
O12   O     O_R   0.680360 0.381260 0.500010 -0.478600
O13   O     O_R   0.211816 0.623674 0.244461 -0.707806
O14   O     O_R   0.680360 0.618740 0.500010 -0.495279
O15   O     O_R   0.319640 0.381260 0.499990 -0.484463
O16   O     O_R   0.499970 0.618770 0.316850 -0.503222
O17   O     O_R   0.500030 0.381230 0.683150 -0.494395
O18   O     O_R   0.500030 0.618770 0.683150 -0.506807
O19   O     O_R   0.499970 0.381230 0.316850 -0.504373
O20   O     O_2   0.322841 0.811187 0.935887 -0.510366

loop_
_geom_bond_atom_site_label_1
_geom_bond_atom_site_label_2
_ccdc_geom_bond_type
C17   O4    S    
C7    C10   A    
H14   O2    S    
C7    H10   S    
Cu1   O14   S    
C11   C18   S    
C21   O11   D    
Cu1   Cu2   S    
C12   C22   S    
C23   O12   A    
C5    C28   S    
C26   C28   S    
C12   C15   A    
C28   H8    S    
C20   O10   S    
H6    O13   S    
C6    C24   S    
C19   O7    D    
C10   N1    A    
C2    C3    S    
C10   H13   S    
Cu1   O18   S    
C18   O6    S    
C9    N2    A    
C21   O13   S    
C2    C6    S    
Cu2   O17   S    
H3    O6    S    
H4    O8    S    
C16   O2    S    
C9    H12   S    
C6    C26   S    
C24   O19   A    
Cu1   O1    S    
C20   O9    D    
C5    C25   S    
C4    C17   S    
Cu2   O12   S    
C19   O8    S    
C4    C28   S    
C27   H7    S    
C18   O5    D    
C1    C23   S    
C13   C15   A    
C2    C27   S    
C23   O14   A    
C11   C14   A    
C22   O1    A    
Cu2   O19   S    
C16   O20   D    
C13   C19   S    
C7    N2    A    
C14   C20   S    
C15   C21   S    
C4    C27   S    
C1    C13   A    
C8    H11   S    
C4    C6    S    
C25   O17   A    
Cu2   O15   S    
C17   O3    D    
Cu1   O16   S    
C24   O16   A    
C1    C14   A    
C3    C5    S    
H5    O10   S    
C5    C27   S    
C26   H1    S    
C2    H9    S    
Cu2   N2    S    
C3    C26   S    
H2    O4    S    
C3    C16   S    
C8    N1    A    
C11   C12   A    
Cu1   N1    S    
C8    C9    A    
C22   O15   A    
C25   O18   A    
