data_mof_unit_14257.cif
_audit_creation_date              2012-12-11T14:42:19-0500
_audit_creation_method            fapswitch 2.2
_symmetry_space_group_name_H-M    P1
_symmetry_Int_Tables_number       1
_space_group_crystal_system       triclinic
_cell_length_a                    18.988816
_cell_length_b                    10.937987
_cell_length_c                    18.895015
_cell_angle_alpha                 89.800532
_cell_angle_beta                  90.255702
_cell_angle_gamma                 90.13395
_cell_volume                      3924.41025781

loop_
_atom_site_label
_atom_site_type_symbol
_atom_type_description
_atom_site_fract_x
_atom_site_fract_y
_atom_site_fract_z
_atom_type_partial_charge
C1    C     C_R   0.728247 0.952519 0.851832 0.535918
C2    C     C_R   0.251657 0.398938 0.918272 -0.019572
C3    C     C_2   0.651999 0.720081 0.052132 0.248184
C4    C     C_2   0.513486 0.408091 0.557346 0.362382
C5    C     C_2   0.567314 0.352233 0.412423 0.307702
C6    C     C_2   0.013486 0.908091 0.557346 0.362382
C7    C     C_2   0.067314 0.852233 0.412423 0.307703
C8    C     C_2   0.454283 0.936393 0.438659 0.264166
C9    C     C_2   0.447522 0.969011 0.589178 0.248915
C10   C     C_2   0.954283 0.436393 0.438659 0.264167
C11   C     C_2   0.947522 0.469011 0.589178 0.248915
C12   C     C_R   0.262569 0.930717 0.070547 -0.017168
C13   C     C_R   0.751657 0.898938 0.918272 -0.019572
C14   C     C_R   0.821792 0.420920 0.026966 -0.151715
C15   C     C_R   0.207530 0.314753 0.950578 -0.108463
C16   C     C_R   0.321792 0.920920 0.026966 -0.151715
C17   C     C_R   0.707530 0.814753 0.950578 -0.108463
C18   C     C_R   0.815327 0.419519 0.953905 -0.008809
C19   C     C_R   0.211391 0.293282 0.022548 -0.018079
C20   C     C_R   0.315327 0.919519 0.953905 -0.008809
C21   C     C_R   0.274417 0.958404 0.145009 0.529678
C22   C     C_R   0.711391 0.793282 0.022548 -0.018079
C23   C     C_R   0.747395 0.420405 0.923156 -0.002573
C24   C     C_R   0.267366 0.347810 0.062977 -0.037202
C25   C     C_R   0.247395 0.920405 0.923156 -0.002573
C26   C     C_R   0.767366 0.847810 0.062977 -0.037202
C27   C     C_R   0.515831 0.281108 0.528868 -0.012513
C28   C     C_R   0.528869 0.261932 0.457360 0.006191
C29   C     C_R   0.015831 0.781108 0.528868 -0.012513
C30   C     C_R   0.028869 0.761932 0.457360 0.006191
C31   C     C_R   0.501074 0.156445 0.426187 0.005251
C32   C     C_R   0.228247 0.452519 0.851832 0.535918
C33   C     C_R   0.499639 0.178286 0.572663 -0.016757
C34   C     C_R   0.001074 0.656445 0.426187 0.005251
C35   C     C_R   0.999638 0.678286 0.572663 -0.016757
C36   C     C_R   0.478354 0.055171 0.468993 -0.037184
C37   C     C_R   0.476194 0.068309 0.542909 -0.038953
C38   C     C_R   0.978353 0.555171 0.468993 -0.037183
C39   C     C_R   0.976194 0.568309 0.542909 -0.038952
C40   C     C_R   0.779110 0.299248 0.525530 0.228834
C41   C     C_R   0.185186 0.406264 0.453973 0.179417
C42   C     C_R   0.279110 0.799248 0.525530 0.228834
C43   C     C_R   0.774417 0.458404 0.145009 0.529678
C44   C     C_R   0.685186 0.906263 0.453973 0.179416
C45   C     C_R   0.774918 0.310585 0.452140 0.190489
C46   C     C_R   0.176205 0.413664 0.527004 0.269786
C47   C     C_R   0.274917 0.810585 0.452140 0.190489
C48   C     C_R   0.676205 0.913663 0.527004 0.269785
C49   C     C_R   0.531259 0.177358 0.851684 0.585877
C50   C     C_R   0.470633 0.178138 0.149566 0.542706
C51   C     C_R   0.031259 0.677358 0.851684 0.585877
C52   C     C_R   0.970633 0.678137 0.149566 0.542706
C53   C     C_R   0.750681 0.420493 0.423218 -0.084426
C54   C     C_R   0.695852 0.439110 0.040627 -0.133674
C55   C     C_R   0.235972 0.430730 0.571271 0.022030
C56   C     C_R   0.250681 0.920493 0.423218 -0.084426
C57   C     C_R   0.735972 0.930730 0.571271 0.022029
C58   C     C_R   0.721541 0.510955 0.466928 -0.081830
C59   C     C_R   0.303038 0.436350 0.542624 -0.109295
C60   C     C_R   0.221542 0.010955 0.466928 -0.081831
C61   C     C_R   0.803038 0.936351 0.542624 -0.109295
C62   C     C_R   0.719846 0.496569 0.539924 0.213351
C63   C     C_R   0.312144 0.431065 0.469982 0.186635
C64   C     C_R   0.219846 0.996568 0.539924 0.213351
C65   C     C_R   0.308205 0.448948 0.955411 -0.108075
C66   C     C_R   0.812144 0.931066 0.469982 0.186636
C67   C     C_R   0.747775 0.388720 0.569764 0.016099
C68   C     C_R   0.252784 0.410481 0.425272 0.028772
C69   C     C_R   0.247775 0.888720 0.569764 0.016099
C70   C     C_R   0.752784 0.910482 0.425272 0.028772
C71   C     C_R   0.738071 0.365781 0.852569 0.572331
C72   C     C_R   0.274181 0.318140 0.139203 0.527373
C73   C     C_R   0.238071 0.865781 0.852569 0.572331
C74   C     C_R   0.774181 0.818140 0.139203 0.527373
C75   C     C_R   0.725514 0.958948 0.645658 0.576305
C76   C     C_R   0.195852 0.939110 0.040627 -0.133674
C77   C     C_R   0.271664 0.955766 0.352316 0.522131
C78   C     C_R   0.225514 0.458948 0.645658 0.576305
C79   C     C_R   0.771664 0.455766 0.352316 0.522131
C80   C     C_R   0.528917 0.178106 0.644598 0.595759
C81   C     C_R   0.470764 0.173863 0.355404 0.554261
C82   C     C_R   0.028917 0.678106 0.644598 0.595760
C83   C     C_R   0.970764 0.673863 0.355404 0.554260
C84   C     C_R   0.738784 0.358144 0.644613 0.585978
C85   C     C_R   0.261480 0.362207 0.353982 0.589349
C86   C     C_R   0.238784 0.858144 0.644613 0.585979
C87   C     C_R   0.808205 0.948948 0.955411 -0.108075
C88   C     C_R   0.761480 0.862207 0.353982 0.589349
C89   C     C_2   0.502512 0.166853 0.923247 -0.070014
C90   C     C_2   0.505462 0.172335 0.080760 -0.106656
C91   C     C_2   0.002512 0.666853 0.923247 -0.070014
C92   C     C_2   0.005462 0.672335 0.080760 -0.106656
C93   C     C_2   0.505127 0.070463 0.041658 -0.169501
C94   C     C_2   0.522319 0.073755 0.965812 -0.164279
C95   C     C_2   0.005127 0.570463 0.041658 -0.169501
C96   C     C_2   0.022319 0.573755 0.965812 -0.164279
C97   C     C_R   0.687560 0.440736 0.967096 -0.037183
C98   C     C_R   0.762569 0.430717 0.070547 -0.017168
C99   C     C_R   0.316937 0.425134 0.027521 -0.022716
C100  C     C_R   0.187560 0.940736 0.967096 -0.037183
C101  C     C_R   0.816937 0.925134 0.027521 -0.022716
C102  C     C_2   0.616666 0.470214 0.938486 0.287434
C103  C     C_2   0.373911 0.494281 0.063607 0.257324
C104  C     C_2   0.116666 0.970214 0.938486 0.287434
C105  C     C_2   0.873911 0.994281 0.063607 0.257324
C106  C     C_2   0.881146 0.418953 0.911899 0.251405
C107  C     C_2   0.151999 0.220081 0.052132 0.248184
C108  C     C_2   0.381146 0.918953 0.911899 0.251405
Cr1   Cr    Cr6+3 0.769270 0.163730 0.750710 1.093651
Cr2   Cr    Cr6+3 0.385840 0.322500 0.252290 1.070760
Cr3   Cr    Cr6+3 0.114160 0.822500 0.747710 1.054983
Cr4   Cr    Cr6+3 0.885840 0.822500 0.252290 1.070760
Cr5   Cr    Cr6+3 0.230730 0.163730 0.249290 1.056607
Cr6   Cr    Cr6+3 0.269270 0.663730 0.750710 1.093651
Cr7   Cr    Cr6+3 0.730730 0.663730 0.249290 1.056608
Cr8   Cr    Cr6+3 0.612620 0.009790 0.748780 1.112974
Cr9   Cr    Cr6+3 0.387380 0.009790 0.251220 1.093854
Cr10  Cr    Cr6+3 0.112620 0.509790 0.748780 1.112974
Cr11  Cr    Cr6+3 0.887380 0.509790 0.251220 1.093854
Cr12  Cr    Cr6+3 0.614160 0.322500 0.747710 1.054983
H1    H     H_    0.491462 0.982936 0.065115 0.171232
H2    H     H_    0.472547 0.243066 0.944096 0.157105
H3    H     H_    0.023348 0.758016 0.057734 0.180066
H4    H     H_    0.972547 0.743066 0.944096 0.157105
H5    H     H_    0.650650 0.450535 0.074780 0.165843
H6    H     H_    0.342376 0.514812 0.929562 0.175252
H7    H     H_    0.150650 0.950534 0.074780 0.165843
H8    H     H_    0.842376 0.014812 0.929562 0.175252
H9    H     H_    0.874113 0.420378 0.049865 0.134026
H10   H     H_    0.165304 0.272582 0.920362 0.171971
H11   H     H_    0.374114 0.920377 0.049865 0.134026
H12   H     H_    0.551291 0.996580 0.944724 0.179256
H13   H     H_    0.665304 0.772582 0.920362 0.171971
H14   H     H_    0.775474 0.221849 0.363030 0.335197
H15   H     H_    0.075516 0.373717 0.522275 0.340983
H16   H     H_    0.275474 0.721849 0.363030 0.335197
H17   H     H_    0.575516 0.873718 0.522275 0.340984
H18   H     H_    0.709778 0.583000 0.629369 0.335756
H19   H     H_    0.377906 0.503534 0.405476 0.383664
H20   H     H_    0.209779 0.083000 0.629369 0.335756
H21   H     H_    0.877906 0.003536 0.405475 0.383664
H22   H     H_    0.610930 0.517016 0.888137 0.136727
H23   H     H_    0.991462 0.482936 0.065115 0.171232
H24   H     H_    0.364592 0.540701 0.113207 0.142770
H25   H     H_    0.110930 0.017016 0.888137 0.136727
H26   H     H_    0.864592 0.040701 0.113207 0.142770
H27   H     H_    0.928866 0.380453 0.934464 0.118728
H28   H     H_    0.159207 0.158081 0.095781 0.163168
H29   H     H_    0.428866 0.880453 0.934464 0.118728
H30   H     H_    0.659207 0.658081 0.095781 0.163168
H31   H     H_    0.471211 0.433396 0.592733 0.102271
H32   H     H_    0.607793 0.319671 0.376825 0.079394
H33   H     H_    0.971211 0.933396 0.592733 0.102271
H34   H     H_    0.051291 0.496580 0.944724 0.179256
H35   H     H_    0.107793 0.819671 0.376825 0.079394
H36   H     H_    0.409669 0.889154 0.461296 0.102625
H37   H     H_    0.452160 0.873720 0.574304 0.121559
H38   H     H_    0.909669 0.389154 0.461296 0.102624
H39   H     H_    0.952160 0.373720 0.574304 0.121559
H40   H     H_    0.849952 0.171602 0.521861 0.367687
H41   H     H_    0.109114 0.311570 0.418314 0.363121
H42   H     H_    0.349951 0.671601 0.521861 0.367687
H43   H     H_    0.609113 0.811569 0.418315 0.363121
H44   H     H_    0.704105 0.597420 0.444868 0.184431
H45   H     H_    0.348225 0.451151 0.576662 0.147080
H46   H     H_    0.204105 0.097420 0.444869 0.184431
H47   H     H_    0.848225 0.951152 0.576661 0.147080
H48   H     H_    0.523348 0.258016 0.057734 0.180066
O1    O     O_R   0.784320 0.290430 0.830510 -0.467215
O2    O     O_R   0.456080 0.282180 0.333210 -0.477924
O3    O     O_R   0.043920 0.782180 0.666790 -0.541162
O4    O     O_R   0.956080 0.782180 0.333210 -0.477924
O5    O     O_R   0.679040 0.374160 0.674430 -0.496800
O6    O     O_R   0.320960 0.374160 0.325570 -0.492795
O7    O     O_R   0.179040 0.874160 0.674430 -0.496800
O8    O     O_R   0.820960 0.874160 0.325570 -0.492795
O9    O     O_3   0.665350 0.165340 0.749070 -0.287534
O10   O     O_3   0.334650 0.165340 0.250930 -0.292136
O11   O     O_3   0.165350 0.665340 0.749070 -0.287534
O12   O     O_R   0.215680 0.290430 0.169490 -0.515108
O13   O     O_3   0.834650 0.665340 0.250930 -0.292136
O14   O     O_R   0.762640 0.040960 0.825200 -0.512641
O15   O     O_R   0.237360 0.040960 0.174800 -0.539583
O16   O     O_R   0.262640 0.540960 0.825200 -0.512641
O17   O     O_R   0.737360 0.540960 0.174800 -0.539583
O18   O     O_R   0.667400 0.923970 0.829950 -0.529907
O19   O     O_R   0.332600 0.923970 0.170050 -0.510546
O20   O     O_R   0.167400 0.423970 0.829950 -0.529907
O21   O     O_R   0.832600 0.423970 0.170050 -0.510546
O22   O     O_R   0.553960 0.081340 0.821780 -0.480358
O23   O     O_R   0.284320 0.790430 0.830510 -0.467215
O24   O     O_R   0.446040 0.081340 0.178220 -0.496695
O25   O     O_R   0.053960 0.581340 0.821780 -0.480358
O26   O     O_R   0.946040 0.581340 0.178220 -0.496695
O27   O     O_R   0.543180 0.283240 0.826740 -0.504885
O28   O     O_R   0.456820 0.283240 0.173260 -0.501896
O29   O     O_R   0.043180 0.783240 0.826740 -0.504885
O30   O     O_R   0.956820 0.783240 0.173260 -0.501896
O31   O     O_R   0.678360 0.375140 0.822710 -0.540860
O32   O     O_R   0.321640 0.375140 0.177290 -0.515959
O33   O     O_R   0.178360 0.875140 0.822710 -0.540860
O34   O     O_R   0.715680 0.790430 0.169490 -0.515108
O35   O     O_R   0.821640 0.875140 0.177290 -0.515959
O36   O     O_R   0.785050 0.289380 0.670560 -0.423480
O37   O     O_R   0.214950 0.289380 0.329440 -0.471286
O38   O     O_R   0.285050 0.789380 0.670560 -0.423480
O39   O     O_R   0.714950 0.789380 0.329440 -0.471285
O40   O     O_R   0.763320 0.039990 0.676930 -0.492232
O41   O     O_R   0.236680 0.039990 0.323070 -0.503704
O42   O     O_R   0.263320 0.539990 0.676930 -0.492232
O43   O     O_R   0.736680 0.539990 0.323070 -0.503704
O44   O     O_R   0.668130 0.922920 0.670000 -0.443517
O45   O     O_R   0.554640 0.080370 0.673500 -0.428044
O46   O     O_R   0.331870 0.922920 0.330000 -0.471633
O47   O     O_R   0.168130 0.422920 0.670000 -0.443518
O48   O     O_R   0.831870 0.422920 0.330000 -0.471633
O49   O     O_3   0.797444 0.214694 0.410531 -0.705156
O50   O     O_3   0.109501 0.409401 0.556068 -0.652221
O51   O     O_3   0.297444 0.714694 0.410531 -0.705156
O52   O     O_3   0.609501 0.909399 0.556068 -0.652221
O53   O     O_3   0.694297 0.592485 0.579595 -0.643885
O54   O     O_3   0.379743 0.444078 0.445101 -0.660644
O55   O     O_3   0.194297 0.092485 0.579595 -0.643886
O56   O     O_R   0.445360 0.080370 0.326500 -0.452097
O57   O     O_3   0.879743 0.944079 0.445101 -0.660644
O58   O     O_2   0.563661 0.446228 0.972094 -0.465192
O59   O     O_2   0.431598 0.505216 0.036059 -0.446657
O60   O     O_2   0.063661 0.946228 0.972094 -0.465192
O61   O     O_2   0.931598 0.005216 0.036059 -0.446657
O62   O     O_2   0.883437 0.465380 0.853071 -0.467487
O63   O     O_2   0.092797 0.228264 0.026938 -0.494046
O64   O     O_2   0.383437 0.965380 0.853071 -0.467487
O65   O     O_2   0.592797 0.728264 0.026938 -0.494046
O66   O     O_2   0.560262 0.481969 0.546026 -0.417548
O67   O     O_R   0.054640 0.580370 0.673500 -0.428044
O68   O     O_2   0.550515 0.459825 0.410110 -0.422256
O69   O     O_2   0.060262 0.981969 0.546027 -0.417548
O70   O     O_2   0.050515 0.959825 0.410110 -0.422256
O71   O     O_2   0.485513 0.887715 0.390069 -0.427356
O72   O     O_2   0.416961 0.993370 0.644081 -0.472961
O73   O     O_2   0.985513 0.387715 0.390069 -0.427357
O74   O     O_2   0.916961 0.493370 0.644081 -0.472962
O75   O     O_3   0.813221 0.200069 0.555017 -0.668560
O76   O     O_3   0.127874 0.395114 0.409849 -0.644169
O77   O     O_3   0.313220 0.700069 0.555017 -0.668560
O78   O     O_R   0.945360 0.580370 0.326500 -0.452097
O79   O     O_3   0.627874 0.895112 0.409849 -0.644169
O80   O     O_R   0.543920 0.282180 0.666790 -0.541162

loop_
_geom_bond_atom_site_label_1
_geom_bond_atom_site_label_2
_ccdc_geom_bond_type
Cr1   O14   S    
C58   C62   A    
C99   C103  S    
C42   O77   S    
C95   H23   S    
C93   C94   S    
C46   O50   S    
C53   C58   A    
Cr7   O39   S    
C24   C99   A    
C45   O49   S    
C14   C18   A    
H43   O79   S    
C95   C96   S    
C43   C98   S    
C102  O58   D    
C2    C65   A    
C70   C88   S    
C103  H24   S    
C86   O38   A    
C11   H39   S    
C48   C57   A    
H16   O51   S    
Cr4   O4    S    
C1    O18   A    
C27   C33   A    
C15   C19   A    
C5    H32   S    
C62   C67   A    
C11   O74   D    
Cr3   O7    S    
C14   C98   A    
C36   C37   A    
C53   C79   S    
Cr11  O78   S    
C93   H1    S    
Cr5   O12   S    
C55   C59   A    
C26   C101  A    
C108  O64   D    
C38   C39   A    
Cr7   O17   S    
C69   C86   S    
C83   O78   A    
C20   C25   A    
C43   O17   A    
C103  O59   D    
Cr7   O34   S    
C100  C104  S    
Cr12  O31   S    
C66   O57   S    
C2    C32   S    
C86   O7    A    
Cr11  O13   S    
C62   O53   S    
C89   C94   D    
Cr10  O25   S    
C16   H11   S    
C104  O60   D    
C22   C26   A    
C51   O29   A    
C44   O79   S    
C51   C91   S    
C91   C96   D    
C87   C101  A    
C50   O28   A    
C61   C66   A    
C50   C90   S    
C96   H34   S    
C73   O33   A    
C12   C16   A    
H41   O76   S    
C5    O68   D    
C10   H38   S    
C46   C55   A    
C41   C46   A    
C71   O1    A    
C54   C97   A    
C44   C70   A    
Cr10  O47   S    
C50   O24   A    
C78   O42   A    
C52   O30   A    
Cr3   O3    S    
C97   C102  S    
C59   H45   S    
C77   O41   A    
C40   O75   S    
C8    C36   S    
Cr10  O11   S    
C84   O36   A    
Cr5   O10   S    
C58   H44   S    
Cr11  O48   S    
C7    C30   S    
C82   O67   A    
Cr3   O11   S    
C68   C85   S    
C63   O54   S    
Cr3   O33   S    
C10   O73   D    
C85   O37   A    
Cr10  O67   S    
Cr4   O30   S    
C87   H8    S    
C6    O69   D    
C35   C82   S    
Cr1   O1    S    
C77   O46   A    
C21   O19   A    
C41   C68   A    
Cr2   O6    S    
H21   O57   S    
C40   C45   A    
C54   H5    S    
C75   O44   A    
C101  C105  S    
C107  O63   D    
C30   C34   A    
C41   O76   S    
Cr2   O32   S    
C18   C23   A    
Cr12  O27   S    
C23   C71   S    
C52   O26   A    
C65   C99   A    
C51   O25   A    
C92   H3    S    
C55   C78   S    
C32   O20   A    
C49   O22   A    
C49   O27   A    
H18   O53   S    
C81   O2    A    
H15   O50   S    
C47   O51   S    
C12   C21   S    
C40   C67   A    
C42   C69   A    
C60   H46   S    
C56   C77   S    
Cr6   O38   S    
C64   O55   S    
C106  O62   D    
C61   H47   S    
C105  O61   D    
C10   C38   S    
Cr1   O40   S    
C35   C39   A    
Cr12  O9    S    
C18   C106  S    
C29   C30   A    
Cr9   O24   S    
Cr1   O9    S    
C72   O32   A    
C5    C28   S    
C75   O40   A    
C25   C100  A    
C7    O70   D    
C9    H37   S    
C16   C20   A    
C83   O4    A    
C13   C87   A    
C9    O72   D    
C80   O80   A    
C85   O6    A    
H20   O55   S    
C64   C69   A    
C11   C39   S    
C2    C15   A    
C73   O23   A    
Cr2   O2    S    
H19   O54   S    
C79   O48   A    
C23   C97   A    
C91   H4    S    
C12   C76   A    
C94   H12   S    
Cr9   O19   S    
C102  H22   S    
C52   C92   S    
C1    C13   S    
C34   C83   S    
C72   O12   A    
C88   O39   A    
C84   O5    A    
C81   O56   A    
C4    C27   S    
Cr9   O10   S    
C24   C72   S    
C90   C93   D    
C9    C37   S    
C48   O52   S    
C8    O71   D    
C21   O15   A    
C4    H31   S    
Cr8   O22   S    
C63   C68   A    
C3    H30   S    
Cr10  O20   S    
Cr6   O23   S    
C90   H48   S    
C34   C38   A    
C4    O66   D    
C104  H25   S    
C32   O16   A    
C28   C31   A    
Cr11  O21   S    
C49   C89   S    
Cr8   O45   S    
Cr9   O56   S    
C31   C81   S    
C78   O47   A    
C1    O14   A    
C33   C80   S    
C71   O31   A    
Cr4   O13   S    
C13   C17   A    
C76   C100  A    
H14   O49   S    
C74   O34   A    
C29   C35   A    
C80   O45   A    
C59   C63   A    
C17   C22   A    
C88   O8    A    
Cr7   O43   S    
C57   C61   A    
C60   C64   A    
Cr11  O26   S    
C65   H6    S    
C57   C75   S    
H42   O77   S    
C19   C24   A    
Cr7   O13   S    
Cr8   O44   S    
Cr3   O29   S    
Cr4   O8    S    
C17   H13   S    
C107  H28   S    
C79   O43   A    
Cr6   O42   S    
Cr5   O15   S    
C15   H10   S    
Cr8   O18   S    
Cr6   O16   S    
C105  H26   S    
H17   O52   S    
C26   C74   S    
C82   O3    A    
Cr2   O28   S    
C25   C73   S    
C42   C47   A    
C92   C95   D    
H40   O75   S    
Cr9   O46   S    
C8    H36   S    
C33   C37   A    
C6    H33   S    
C106  H27   S    
C45   C53   A    
C108  H29   S    
C56   C60   A    
Cr12  O5    S    
C67   C84   S    
C6    C29   S    
C7    H35   S    
C66   C70   A    
C43   O21   A    
Cr6   O11   S    
C74   O35   A    
C27   C28   A    
C76   H7    S    
Cr2   O10   S    
C31   C36   A    
C54   C98   A    
C3    C22   S    
Cr12  O80   S    
Cr4   O35   S    
C20   C108  S    
Cr8   O9    S    
Cr1   O36   S    
C3    O65   D    
C89   H2    S    
C44   C48   A    
Cr5   O37   S    
C47   C56   A    
Cr5   O41   S    
C14   H9    S    
C19   C107  S    
