data_mof_unit_10699.cif
_audit_creation_date              2012-12-11T14:29:47-0500
_audit_creation_method            fapswitch 2.2
_symmetry_space_group_name_H-M    P1
_symmetry_Int_Tables_number       1
_space_group_crystal_system       triclinic
_cell_length_a                    6.936003
_cell_length_b                    14.864136
_cell_length_c                    16.174288
_cell_angle_alpha                 90.375097
_cell_angle_beta                  90.507928
_cell_angle_gamma                 90.645973
_cell_volume                      1667.32342371

loop_
_atom_site_label
_atom_site_type_symbol
_atom_type_description
_atom_site_fract_x
_atom_site_fract_y
_atom_site_fract_z
_atom_type_partial_charge
O1    O     O_R   0.494400 0.416610 0.413880 -0.545996
O2    O     O_R   0.823920 0.406790 0.585520 -0.553379
O3    O     O_R   0.994250 0.583390 0.586120 -0.543605
C1    C     C_R   0.655284 0.387393 0.615097 0.693323
O4    O     O_R   0.824110 0.405730 0.414490 -0.546468
O5    O     O_R   0.994440 0.582310 0.413870 -0.549057
C2    C     C_R   0.653409 0.382460 0.387801 0.752801
O6    O     O_R   0.494210 0.417690 0.586130 -0.518467
O7    O     O_3   0.660810 0.557940 0.500000 -0.372267
V1    V     V_3+5 0.935650 0.489250 0.500000 1.466810
O8    O     O_R   0.324160 0.593210 0.414480 -0.527650
C3    C     C_R   0.155691 0.615283 0.386652 0.779218
O9    O     O_R   0.323970 0.594270 0.585510 -0.521348
C4    C     C_R   0.157210 0.619118 0.611996 0.684781
V2    V     V_3+5 0.435660 0.510750 0.500000 1.535855
O10   O     O_3   0.160630 0.442060 0.500000 -0.375395
H1    H     H_    0.301254 0.925184 0.508644 0.180196
C5    C     C_R   0.082258 0.566892 0.781560 -0.151732
C6    C     C_R   0.043525 0.538620 0.862512 0.019085
C7    C     C_R   0.026723 0.602995 0.925187 -0.140605
C8    C     C_R   0.050291 0.693821 0.908193 -0.163252
C9    C     C_R   0.090475 0.723920 0.827349 0.062623
C10   C     C_R   0.106804 0.659249 0.762504 0.066068
C11   C     C_R   0.112407 0.817020 0.811039 -0.148050
C12   C     C_R   0.147154 0.846032 0.728439 0.006381
C13   C     C_R   0.194429 0.780461 0.666667 -0.020199
C14   C     C_R   0.156107 0.687068 0.681356 -0.129548
C15   C     C_R   0.136232 0.938190 0.703750 0.347571
C16   C     C_R   0.175234 0.962804 0.622643 -0.130622
C17   C     C_R   0.247809 0.901041 0.567343 -0.197962
C18   C     C_R   0.274136 0.811914 0.590959 -0.061725
H2    H     H_    0.097682 0.515971 0.734055 0.161101
H3    H     H_    0.997603 0.583129 0.988218 0.163254
H4    H     H_    0.036875 0.739975 0.959745 0.096381
H5    H     H_    0.162464 0.032305 0.603745 0.166344
C19   C     C_2   0.985047 0.715268 0.289107 -0.173526
C20   C     C_2   0.151173 0.684557 0.321374 -0.320296
H6    H     H_    0.849788 0.688737 0.312652 0.185688
H7    H     H_    0.288761 0.711845 0.301773 0.180027
C21   C     C_2   0.969569 0.786843 0.225230 0.427086
C22   C     C_2   0.119844 0.814271 0.177713 -0.344011
H8    H     H_    0.260457 0.784685 0.186548 0.138719
C23   C     C_2   0.770525 0.207332 0.778906 -0.036147
C24   C     C_2   0.609055 0.171892 0.810924 -0.212094
H9    H     H_    0.908909 0.188861 0.804529 0.183682
H10   H     H_    0.470660 0.185825 0.782137 0.191251
C25   C     C_2   0.770578 0.264863 0.704133 -0.172521
C26   C     C_2   0.644242 0.331532 0.689907 0.237637
H11   H     H_    0.885359 0.253437 0.660156 0.133339
C27   C     C_2   0.763898 0.196817 0.228149 0.360371
C28   C     C_2   0.625373 0.192190 0.167450 -0.249797
C29   C     C_2   0.785319 0.272957 0.287719 -0.117311
C30   C     C_2   0.633872 0.309992 0.325683 -0.301876
H12   H     H_    0.930726 0.293581 0.305433 0.164048
H13   H     H_    0.489139 0.285147 0.311954 0.145261
O11   O     O_R   0.770210 0.079270 0.910680 -0.527398
O12   O     O_R   0.440150 0.091160 0.082270 -0.521049
O13   O     O_R   0.269970 0.914530 0.082860 -0.539617
C31   C     C_R   0.610580 0.114177 0.109732 0.787599
O14   O     O_R   0.440480 0.090100 0.911240 -0.534703
O15   O     O_R   0.270310 0.913460 0.910610 -0.542559
C32   C     C_R   0.608402 0.110211 0.882062 0.745464
O16   O     O_R   0.769870 0.080340 0.082930 -0.511544
O17   O     O_3   0.603660 0.938980 0.996790 -0.378601
V3    V     V_3+5 0.328750 0.007610 0.996740 1.616332
O18   O     O_R   0.940600 0.902510 0.911180 -0.538146
C33   C     C_R   0.107767 0.882128 0.881556 0.765092
O19   O     O_R   0.940270 0.903570 0.082200 -0.510282
C34   C     C_R   0.108413 0.882871 0.111442 0.810659
V4    V     V_3+5 0.828770 0.986010 0.996670 1.629254
O20   O     O_3   0.103730 0.054750 0.996710 -0.352861
Cl1   Cl    Cl    0.737230 0.833704 0.215748 -0.611687
Cl2   Cl    Cl    0.477552 0.366054 0.765147 -0.642542
Cl3   Cl    Cl    0.929825 0.109018 0.244005 -0.587107
C35   C     C_2   0.496628 0.269349 0.149028 0.736533
O21   O     O_2   0.561403 0.346245 0.149271 -0.538463
O22   O     O_R   0.302570 0.253681 0.128919 -0.630110
H14   H     H_    0.230462 0.311208 0.117089 0.321162
C36   C     C_2   0.028322 0.441646 0.882460 0.851406
O23   O     O_2   0.989684 0.417662 0.952687 -0.550415
O24   O     O_R   0.062552 0.377121 0.821522 -0.633998
H15   H     H_    0.071685 0.314541 0.845390 0.313328
Cl4   Cl    Cl    0.064365 0.028016 0.766871 -0.728858
C37   C     C_2   0.435837 0.766286 0.550242 0.793425
O25   O     O_2   0.449003 0.766418 0.474901 -0.554952
O26   O     O_R   0.584614 0.731666 0.599069 -0.645059
H16   H     H_    0.699663 0.712721 0.565275 0.305697

loop_
_geom_bond_atom_site_label_1
_geom_bond_atom_site_label_2
_ccdc_geom_bond_type
C22   H8    S    
C6    C7    A    
C1    O6    A    
O24   H15   S    
C25   H11   S    
O22   H14   S    
C12   C15   A    
C13   C14   A    
C15   C16   A    
C37   O26   S    
C27   Cl3   S    
O5    C3    A    
C17   C18   A    
O17   V4    S    
O12   C31   A    
V2    O10   S    
O14   C32   A    
C5    C6    A    
C3    C20   S    
C11   C33   S    
O8    V2    S    
C24   H10   S    
O19   C34   A    
C27   C29   S    
V4    O20   S    
O1    V2    S    
C10   C14   A    
C4    C14   S    
O7    V1    S    
O18   C33   A    
C13   C18   A    
O9    C4    A    
C15   Cl4   S    
H1    C17   S    
C29   H12   S    
O4    C2    A    
C30   H13   S    
C5    C10   A    
C19   C21   S    
C37   O25   D    
O12   V3    S    
C36   O24   S    
O26   H16   S    
C8    H4    S    
C24   C32   S    
C12   C13   A    
V3    O20   S    
C18   C37   S    
O2    C1    A    
C35   O21   D    
C16   C17   A    
C23   H9    S    
O15   C33   A    
O13   V3    S    
C25   C26   D    
O16   V4    S    
C27   C28   D    
C11   C12   A    
C6    C36   S    
C35   O22   S    
O3    C4    A    
C7    H3    S    
C21   C22   D    
O14   V3    S    
O6    V2    S    
O11   V4    S    
O9    V2    S    
C23   C24   D    
C9    C11   A    
C28   C31   S    
C2    C30   S    
O2    V1    S    
C29   C30   D    
C22   C34   S    
C1    C26   S    
C19   C20   D    
C21   Cl1   S    
O1    C2    A    
C26   Cl2   S    
C28   C35   S    
O5    V1    S    
O8    C3    A    
O13   C34   A    
C16   H5    S    
C31   O16   A    
O17   V3    S    
C19   H6    S    
O7    V2    S    
O4    V1    S    
C20   H7    S    
O3    V1    S    
V1    O10   S    
O18   V4    S    
O11   C32   A    
C36   O23   D    
O15   V3    S    
C5    H2    S    
C7    C8    A    
O19   V4    S    
C9    C10   A    
C8    C9    A    
C23   C25   S    
