data_mof_unit_16566.cif
_audit_creation_date              2012-12-10T18:00:20-0500
_audit_creation_method            fapswitch 2.2
_symmetry_space_group_name_H-M    P1
_symmetry_Int_Tables_number       1
_space_group_crystal_system       triclinic
_cell_length_a                    10.820036
_cell_length_b                    9.536933
_cell_length_c                    10.640628
_cell_angle_alpha                 90.252444
_cell_angle_beta                  91.07903
_cell_angle_gamma                 89.230404
_cell_volume                      1097.70274997

loop_
_atom_site_label
_atom_site_type_symbol
_atom_type_description
_atom_site_fract_x
_atom_site_fract_y
_atom_site_fract_z
_atom_type_partial_charge
C1    C     C_R   0.871833 0.495245 0.503151 -0.140635
C2    C     C_R   0.128167 0.504755 0.496849 -0.140635
C3    C     C_R   0.262337 0.501292 0.499769 0.891277
C4    C     C_R   0.737663 0.498708 0.500231 0.891278
C5    C     C_R   0.498989 0.499647 0.259335 0.862538
C6    C     C_R   0.501011 0.500353 0.740664 0.862537
C7    C     C_3   0.405085 0.581352 0.039570 -0.299391
C8    C     C_3   0.594915 0.418648 0.960430 -0.299391
C9    C     C_3   0.514313 0.633102 0.960361 -0.237960
C10   C     C_3   0.485687 0.366898 0.039639 -0.237960
C11   C     C_3   0.394479 0.450416 0.955027 0.656920
C12   C     C_3   0.605521 0.549584 0.044973 0.656920
C13   C     C_3   0.501924 0.501248 0.877316 -0.163888
C14   C     C_3   0.498076 0.498752 0.122683 -0.163888
C15   C     C_R   0.427068 0.074931 0.416893 0.515802
C16   C     C_R   0.572932 0.925069 0.583107 0.515803
C17   C     C_R   0.573061 0.073656 0.583009 0.490584
C18   C     C_R   0.426939 0.926344 0.416991 0.490584
C19   C     C_R   0.064710 0.413505 0.414552 0.139398
C20   C     C_R   0.935290 0.586495 0.585448 0.139398
C21   C     C_R   0.935704 0.405226 0.420499 0.148104
C22   C     C_R   0.064296 0.594774 0.579501 0.148104
Cu1   Cu    Cu3+1 0.500000 0.640660 0.500000 1.076914
Cu2   Cu    Cu3+1 0.500000 0.359340 0.500000 1.076914
H1    H     H_    0.326865 0.646690 0.073713 0.199530
H2    H     H_    0.673135 0.353310 0.926287 0.199530
H3    H     H_    0.527890 0.741495 0.926081 0.212881
H4    H     H_    0.472110 0.258505 0.073919 0.212881
N1    N     N_R   0.500000 0.852070 0.500000 -0.326682
N2    N     N_R   0.500000 0.147930 0.500000 -0.326682
O1    O     O_R   0.319640 0.618740 0.499990 -0.552784
O2    O     O_R   0.680360 0.381260 0.500010 -0.552784
O3    O     O_R   0.680360 0.618740 0.500010 -0.526828
O4    O     O_R   0.319640 0.381260 0.499990 -0.526828
O5    O     O_R   0.499970 0.618770 0.316850 -0.525708
O6    O     O_R   0.500030 0.381230 0.683150 -0.525708
O7    O     O_R   0.500030 0.618770 0.683150 -0.546440
O8    O     O_R   0.499970 0.381230 0.316850 -0.546440
F1    F     F_    0.354034 0.145017 0.332937 -0.608429
F2    F     F_    0.645966 0.854982 0.667063 -0.608429
F3    F     F_    0.646870 0.142533 0.666291 -0.617934
F4    F     F_    0.353130 0.857467 0.333709 -0.617934
F5    F     F_    0.285264 0.399389 0.904446 -0.669617
F6    F     F_    0.714736 0.600611 0.095554 -0.669617
N3    N     N_2   0.131654 0.333680 0.324026 -0.377738
H5    H     H_    0.097784 0.235777 0.303602 0.287971
C23   C     C_3   0.163205 0.410696 0.212625 -0.547633
H6    H     H_    0.078190 0.440959 0.158601 0.219851
H7    H     H_    0.222353 0.343711 0.152262 0.270702
H8    H     H_    0.215325 0.506465 0.238203 0.202016
N4    N     N_2   0.868346 0.666320 0.675974 -0.377738
H9    H     H_    0.902216 0.764223 0.696399 0.287971
C24   C     C_3   0.836796 0.589303 0.787375 -0.547634
H10   H     H_    0.921810 0.559040 0.841399 0.219851
H11   H     H_    0.784675 0.493534 0.761797 0.202016
H12   H     H_    0.777647 0.656288 0.847738 0.270702
N5    N     N_2   0.868698 0.313427 0.338652 -0.418203
H13   H     H_    0.895446 0.315400 0.246209 0.270497
C25   C     C_3   0.853741 0.172318 0.385714 -0.586119
H14   H     H_    0.940905 0.110638 0.378106 0.206195
H15   H     H_    0.780529 0.119003 0.329636 0.224743
H16   H     H_    0.826336 0.173639 0.485726 0.270068
N6    N     N_2   0.131302 0.686573 0.661348 -0.418202
H17   H     H_    0.104554 0.684601 0.753790 0.270497
C26   C     C_3   0.146258 0.827682 0.614285 -0.586120
H18   H     H_    0.059093 0.889361 0.621891 0.206195
H19   H     H_    0.173666 0.826361 0.514274 0.270068
H20   H     H_    0.219468 0.880999 0.670364 0.224743

loop_
_geom_bond_atom_site_label_1
_geom_bond_atom_site_label_2
_ccdc_geom_bond_type
C2    C22   A    
C15   C18   A    
Cu2   O8    S    
Cu1   Cu2   S    
C19   N3    S    
C1    C21   A    
C8    C13   S    
C23   H8    S    
C8    H2    S    
C21   N5    S    
C24   H11   S    
C23   H6    S    
C7    H1    S    
C8    C12   S    
C1    C4    S    
C26   H20   S    
N6    C26   S    
C2    C3    S    
C22   N6    S    
C6    O7    A    
C25   H14   S    
C12   F6    S    
C18   N1    A    
C4    O2    A    
N3    H5    S    
C6    C13   S    
C3    O1    A    
C17   N2    A    
C11   C13   S    
C15   F1    S    
N5    H13   S    
Cu2   O6    S    
C16   F2    S    
Cu1   N1    S    
C23   H7    S    
C19   C21   A    
C6    O6    A    
C7    C11   S    
C20   N4    S    
Cu1   O5    S    
N3    C23   S    
C9    C12   S    
Cu2   N2    S    
C11   F5    S    
C25   H15   S    
C17   F3    S    
N5    C25   S    
C10   C11   S    
C20   C22   A    
N4    C24   S    
C24   H10   S    
N6    H17   S    
C5    O5    A    
C5    O8    A    
C3    O4    A    
C9    H3    S    
C15   N2    A    
C8    C10   S    
C26   H18   S    
C10   C14   S    
C24   H12   S    
C10   H4    S    
Cu2   O2    S    
C7    C9    S    
C9    C13   S    
C4    O3    A    
C1    C20   A    
C18   F4    S    
C26   H19   S    
C16   N1    A    
Cu1   O7    S    
C5    C14   S    
C7    C14   S    
Cu2   O4    S    
Cu1   O3    S    
N4    H9    S    
C2    C19   A    
C12   C14   S    
C16   C17   A    
C25   H16   S    
Cu1   O1    S    
