data_mof_unit_5848.cif
_audit_creation_date              2012-12-10T20:51:25-0500
_audit_creation_method            fapswitch 2.2
_symmetry_space_group_name_H-M    P1
_symmetry_Int_Tables_number       1
_space_group_crystal_system       triclinic
_cell_length_a                    17.667044
_cell_length_b                    8.919355
_cell_length_c                    8.093418
_cell_angle_alpha                 90.021995
_cell_angle_beta                  89.922649
_cell_angle_gamma                 89.973952
_cell_volume                      1275.34839074

loop_
_atom_site_label
_atom_site_type_symbol
_atom_type_description
_atom_site_fract_x
_atom_site_fract_y
_atom_site_fract_z
_atom_type_partial_charge
C1    C     C_R   0.499737 0.217991 0.499975 1.013393
C2    C     C_R   0.849796 0.592049 0.402092 0.564746
C3    C     C_R   0.767962 0.383886 0.593267 0.237774
C4    C     C_R   0.232028 0.384971 0.405077 0.285147
C5    C     C_R   0.229066 0.599541 0.598135 0.289944
C6    C     C_R   0.770933 0.600740 0.403674 0.277977
C7    C     C_R   0.729443 0.495059 0.499259 -0.452979
C8    C     C_R   0.270553 0.495061 0.500700 -0.478447
C9    C     C_R   0.886557 0.485561 0.498161 -0.320805
C10   C     C_R   0.113447 0.485261 0.502578 -0.344540
C11   C     C_1   0.966413 0.482773 0.499744 0.306641
C12   C     C_R   0.499932 0.782006 0.500016 1.015223
C13   C     C_1   0.033590 0.482650 0.501127 0.309811
C14   C     C_1   0.499700 0.065186 0.499957 -0.064656
C15   C     C_1   0.499773 0.934805 0.500016 -0.106963
C16   C     C_R   0.353149 0.499637 0.500148 1.086087
C17   C     C_R   0.646849 0.499708 0.499839 1.086489
C18   C     C_R   0.846862 0.383432 0.594354 0.563981
C19   C     C_R   0.153114 0.384224 0.404737 0.590575
C20   C     C_R   0.150222 0.590701 0.599984 0.574052
F1    F     F_    0.885923 0.283677 0.688207 -0.555261
F2    F     F_    0.113991 0.285137 0.310172 -0.533174
F3    F     F_    0.108261 0.685481 0.694545 -0.542533
F4    F     F_    0.891778 0.688006 0.309212 -0.545605
H1    H     H_    0.787929 0.042304 0.662053 0.396495
H2    H     H_    0.254257 0.032812 0.171571 0.400283
H3    H     H_    0.349699 0.926649 0.646888 0.388735
H4    H     H_    0.650712 0.929053 0.360404 0.390702
N1    N     N_1   0.500000 0.500000 0.073640 0.031515
N2    N     N_1   0.500000 0.500000 0.926360 0.031103
O1    O     O_R   0.500000 0.285350 0.636850 -0.610005
O2    O     O_2   0.659495 0.173664 0.594600 -0.365563
O3    O     O_3   0.778032 0.101679 0.763320 -0.375962
O4    O     O_2   0.318322 0.310825 0.144180 -0.253448
O5    O     O_2   0.339218 0.172994 0.402233 -0.356144
O6    O     O_3   0.221421 0.106671 0.228506 -0.384897
O7    O     O_2   0.217092 0.859151 0.772855 -0.152589
O8    O     O_2   0.315607 0.682125 0.855717 -0.258388
O9    O     O_3   0.335033 0.835005 0.585650 -0.575973
O10   O     O_2   0.782827 0.861870 0.232009 -0.144679
O11   O     O_2   0.683897 0.686276 0.148073 -0.242071
O12   O     O_R   0.500000 0.714650 0.363150 -0.610894
O13   O     O_3   0.665308 0.836635 0.420252 -0.586236
O14   O     O_R   0.500000 0.714650 0.636850 -0.608108
O15   O     O_R   0.500000 0.285350 0.363150 -0.611046
O16   O     O_R   0.389120 0.500000 0.636930 -0.585047
O17   O     O_R   0.610880 0.500000 0.363070 -0.585653
O18   O     O_R   0.610880 0.500000 0.636930 -0.579084
O19   O     O_R   0.389120 0.500000 0.363070 -0.579229
O20   O     O_2   0.682766 0.305980 0.854212 -0.207491
S1    S     S_3+6 0.719505 0.240113 0.703158 0.133141
S2    S     S_3+6 0.280502 0.242587 0.292641 0.122331
S3    S     S_3+6 0.273741 0.746575 0.710634 0.121964
S4    S     S_3+6 0.726193 0.749062 0.293456 0.121227
Zn1   Zn    Zn3+2 0.500000 0.500000 0.682780 1.140098
Zn2   Zn    Zn3+2 0.500000 0.500000 0.317220 1.138038

loop_
_geom_bond_atom_site_label_1
_geom_bond_atom_site_label_2
_ccdc_geom_bond_type
O16   Zn1   S    
O18   Zn1   S    
C12   O12   A    
C4    C19   A    
C12   C15   S    
O2    S1    D    
C6    C7    A    
N1    Zn2   S    
C5    C8    A    
C18   F1    S    
C9    C11   S    
N2    Zn1   S    
H4    O13   S    
O10   S4    D    
O6    S2    S    
C17   O18   A    
C10   C19   A    
C4    C8    A    
O7    S3    D    
O20   S1    D    
C8    C16   S    
C5    C20   A    
C2    C6    A    
C11   C13   T    
O14   Zn1   S    
C1    O15   A    
O9    S3    S    
O8    S3    D    
H3    O9    S    
C6    S4    S    
O1    Zn1   S    
C5    S3    S    
C4    S2    S    
C3    C7    A    
C2    F4    S    
O11   S4    D    
C20   F3    S    
O3    S1    S    
N1    N2    T    
O19   Zn2   S    
C9    C18   A    
C1    O1    A    
C19   F2    S    
C16   O19   A    
C3    C18   A    
C12   O14   A    
C10   C20   A    
O5    S2    D    
H2    O6    S    
C14   C15   T    
C16   O16   A    
C3    S1    S    
C1    C14   S    
O13   S4    S    
O12   Zn2   S    
C2    C9    A    
O4    S2    D    
C17   O17   A    
O15   Zn2   S    
H1    O3    S    
O17   Zn2   S    
C7    C17   S    
C10   C13   S    
