data_mof_unit_27351.cif
_audit_creation_date              2012-12-10T16:35:06-0500
_audit_creation_method            fapswitch 2.2
_symmetry_space_group_name_H-M    P1
_symmetry_Int_Tables_number       1
_space_group_crystal_system       triclinic
_cell_length_a                    10.857975
_cell_length_b                    10.89874
_cell_length_c                    10.912047
_cell_angle_alpha                 80.200864
_cell_angle_beta                  97.820623
_cell_angle_gamma                 90.223143
_cell_volume                      1260.39203222

loop_
_atom_site_label
_atom_site_type_symbol
_atom_type_description
_atom_site_fract_x
_atom_site_fract_y
_atom_site_fract_z
_atom_type_partial_charge
C1    C     C_R   0.833951 0.471753 0.527946 0.538501
C2    C     C_2   0.464825 0.027326 0.529697 -0.005089
C3    C     C_2   0.533184 0.966837 0.460415 0.019903
C4    C     C_2   0.028898 0.537086 0.464802 0.263485
C5    C     C_3   0.378832 0.950093 0.614258 -0.287156
C6    C     C_3   0.289736 0.019002 0.677492 -0.415732
C7    C     C_3   0.616163 0.028409 0.364968 -0.266472
C8    C     C_3   0.672721 0.939999 0.291574 -0.450891
C9    C     C_3   0.972291 0.740898 0.398847 -0.132030
C10   C     C_3   0.961638 0.272134 0.685517 -0.116964
C11   C     C_3   0.431541 0.667912 0.935615 -0.284995
C12   C     C_2   0.967457 0.457166 0.542758 0.283226
C13   C     C_3   0.388630 0.774394 0.995661 -0.413775
C14   C     C_3   0.579224 0.326200 0.046150 -0.262388
C15   C     C_3   0.615285 0.231524 0.967303 -0.445907
C16   C     C_2   0.480801 0.546306 0.022971 0.002304
C17   C     C_2   0.529612 0.453422 0.972383 0.025609
C18   C     C_R   0.164032 0.527590 0.473701 0.530439
C19   C     C_R   0.523601 0.470264 0.838074 0.513289
C20   C     C_R   0.478803 0.529404 0.159809 0.529369
C21   C     C_R   0.524065 0.833903 0.474495 0.513212
C22   C     C_R   0.475134 0.163491 0.522769 0.515810
H1    H     H_    0.341819 0.066435 0.750284 0.175898
H2    H     H_    0.695053 0.073647 0.414973 0.167292
H3    H     H_    0.070115 0.769886 0.420057 0.127896
H4    H     H_    0.921429 0.746955 0.479554 0.121019
H5    H     H_    0.928599 0.808374 0.316933 0.139340
H6    H     H_    0.926071 0.223842 0.606113 0.110631
H7    H     H_    0.884199 0.298532 0.733472 0.114555
H8    H     H_    0.023284 0.205083 0.754716 0.138829
H9    H     H_    0.301399 0.750481 0.036112 0.189621
H10   H     H_    0.462876 0.798251 0.067810 0.165494
H11   H     H_    0.368503 0.858532 0.922584 0.115117
H12   H     H_    0.229270 0.086006 0.606769 0.183169
H13   H     H_    0.506989 0.706741 0.882180 0.159606
H14   H     H_    0.352925 0.645539 0.866929 0.141613
H15   H     H_    0.532264 0.203605 0.907796 0.171875
H16   H     H_    0.686059 0.270421 0.907600 0.145807
H17   H     H_    0.655758 0.146515 0.030707 0.124855
H18   H     H_    0.664903 0.340593 0.109965 0.181664
H19   H     H_    0.507331 0.281970 0.101729 0.157369
H20   H     H_    0.228200 0.950583 0.725345 0.112648
H21   H     H_    0.318820 0.892554 0.556376 0.143937
H22   H     H_    0.437458 0.885367 0.689064 0.139848
H23   H     H_    0.728041 0.864912 0.356979 0.155368
H24   H     H_    0.598415 0.898370 0.232108 0.158101
H25   H     H_    0.735177 0.992407 0.229673 0.124077
H26   H     H_    0.560293 0.098843 0.293604 0.167056
O1    O     O_3   0.500000 0.500000 0.500000 -0.440418
O2    O     O_R   0.597340 0.765700 0.560080 -0.549120
O3    O     O_R   0.548200 0.222430 0.451790 -0.573782
O4    O     O_R   0.441590 0.789440 0.401000 -0.555891
O5    O     O_R   0.412860 0.222430 0.587130 -0.543593
O6    O     O_3   0.963950 0.620564 0.367347 -0.587919
O7    O     O_3   0.031609 0.377168 0.645280 -0.574576
O8    O     O_R   0.441590 0.410520 0.779910 -0.542584
O9    O     O_R   0.548210 0.443940 0.230290 -0.562394
O10   O     O_R   0.787780 0.544200 0.591150 -0.548290
O11   O     O_R   0.222430 0.601350 0.398650 -0.538294
O12   O     O_R   0.767360 0.410530 0.454140 -0.552837
O13   O     O_R   0.222430 0.443930 0.556060 -0.503847
O14   O     O_R   0.597340 0.544190 0.781580 -0.550101
O15   O     O_R   0.412870 0.601350 0.208220 -0.539248
Zn1   Zn    Zn3+2 0.396020 0.396030 0.603970 0.933698
Zn2   Zn    Zn3+2 0.618560 0.587010 0.606350 0.915335
Zn3   Zn    Zn3+2 0.396030 0.620930 0.379070 0.920073
Zn4   Zn    Zn3+2 0.589390 0.396030 0.410610 0.907355

loop_
_geom_bond_atom_site_label_1
_geom_bond_atom_site_label_2
_ccdc_geom_bond_type
C19   O8    A    
C2    C22   S    
O13   Zn1   S    
O8    Zn1   S    
C15   H16   S    
C13   H11   S    
C4    C12   D    
C11   C16   S    
C10   H8    S    
O10   Zn2   S    
C10   H7    S    
C16   C20   S    
C4    C18   S    
C7    H26   S    
C20   O15   A    
C11   H13   S    
C2    C3    D    
C5    H21   S    
O15   Zn3   S    
C9    H3    S    
C7    C8    S    
C18   O13   A    
O1    Zn1   S    
O3    Zn4   S    
C1    O10   A    
C10   O7    S    
C11   C13   S    
C14   C17   S    
C15   H17   S    
C16   C17   D    
C1    C12   S    
O1    Zn2   S    
O9    Zn4   S    
C14   H19   S    
C6    H1    S    
C21   O2    A    
C17   C19   S    
C5    H22   S    
C9    H4    S    
C22   O5    A    
C3    C7    S    
O11   Zn3   S    
C5    C6    S    
O2    Zn2   S    
C8    H24   S    
C8    H25   S    
C2    C5    S    
C3    C21   S    
O1    Zn3   S    
C19   O14   A    
C14   H18   S    
C7    H2    S    
C12   O7    S    
C18   O11   A    
O4    Zn3   S    
C9    H5    S    
C6    H20   S    
C1    O12   A    
C10   H6    S    
C14   C15   S    
C11   H14   S    
C9    O6    S    
O1    Zn4   S    
O14   Zn2   S    
C4    O6    S    
C20   O9    A    
C8    H23   S    
C13   H10   S    
O5    Zn1   S    
C13   H9    S    
C21   O4    A    
C15   H15   S    
C6    H12   S    
O12   Zn4   S    
C22   O3    A    
