data_mof_unit_19642.cif
_audit_creation_date              2012-12-10T17:31:07-0500
_audit_creation_method            fapswitch 2.2
_symmetry_space_group_name_H-M    P1
_symmetry_Int_Tables_number       1
_space_group_crystal_system       triclinic
_cell_length_a                    11.98934
_cell_length_b                    12.898737
_cell_length_c                    15.462517
_cell_angle_alpha                 87.213296
_cell_angle_beta                  115.370585
_cell_angle_gamma                 93.34696
_cell_volume                      2156.1913128

loop_
_atom_site_label
_atom_site_type_symbol
_atom_type_description
_atom_site_fract_x
_atom_site_fract_y
_atom_site_fract_z
_atom_type_partial_charge
C1    C     C_R   0.477304 0.299445 0.498407 0.892814
C2    C     C_R   0.522709 0.700549 0.501620 0.890809
C3    C     C_R   0.657002 0.586107 0.109479 -0.229097
C4    C     C_R   0.362722 0.592312 0.888611 -0.232621
C5    C     C_R   0.743503 0.580197 0.072369 -0.236767
C6    C     C_R   0.275830 0.595259 0.925600 -0.238566
C7    C     C_R   0.535943 0.811838 0.502281 -0.055060
C8    C     C_R   0.464121 0.188137 0.497841 -0.057966
C9    C     C_R   0.352518 0.029396 0.504838 -0.219277
C10   C     C_R   0.647594 0.970569 0.495367 -0.219388
C11   C     C_R   0.360507 0.136866 0.502368 -0.203515
C12   C     C_R   0.639562 0.863103 0.497765 -0.203473
C13   C     C_R   0.558930 0.132681 0.494673 -0.278897
C14   C     C_R   0.441183 0.867286 0.505535 -0.278603
C15   C     C_R   0.552013 0.025968 0.497482 0.186333
C16   C     C_R   0.448113 0.973998 0.502748 0.186200
C17   C     C_R   0.000061 0.593322 0.405379 -0.338773
C18   C     C_R   0.999829 0.406560 0.594426 -0.336692
C19   C     C_R   0.121613 0.585163 0.415440 0.015630
C20   C     C_R   0.878329 0.414730 0.584434 0.014264
C21   C     C_R   0.162694 0.460682 0.542061 -0.057197
C22   C     C_R   0.837260 0.539340 0.457903 -0.053945
C23   C     C_R   0.576351 0.497141 0.680497 0.875449
C24   C     C_R   0.424344 0.507650 0.319600 0.878232
C25   C     C_R   0.041135 0.466351 0.534621 0.092514
C26   C     C_R   0.958793 0.533646 0.465276 0.095445
C27   C     C_R   0.624307 0.512671 0.783359 -0.061906
C28   C     C_R   0.381222 0.528971 0.216975 -0.060155
C29   C     C_R   0.791017 0.544778 0.939375 -0.202393
C30   C     C_R   0.221918 0.568807 0.059501 -0.203234
C31   C     C_R   0.751085 0.521364 0.843170 -0.197800
C32   C     C_R   0.256828 0.544642 0.156327 -0.200208
C33   C     C_R   0.538859 0.528968 0.819757 -0.261227
C34   C     C_R   0.470053 0.540874 0.181138 -0.264884
C35   C     C_R   0.576438 0.558334 0.913870 0.092551
C36   C     C_R   0.438145 0.568654 0.085609 0.092345
C37   C     C_R   0.704402 0.561845 0.975470 0.178964
C38   C     C_R   0.311424 0.578592 0.023329 0.179258
C39   C     C_R   0.488817 0.576831 0.949422 0.067804
C40   C     C_R   0.528571 0.578042 0.049394 0.070445
H1    H     H_    0.841065 0.585626 0.120339 0.142997
H2    H     H_    0.179784 0.605712 0.877062 0.147522
H3    H     H_    0.847355 0.368753 0.631011 0.128978
H4    H     H_    0.152561 0.631035 0.368789 0.126832
H5    H     H_    0.938906 0.645667 0.351074 0.140398
H6    H     H_    0.060909 0.354064 0.648584 0.145866
H7    H     H_    0.186964 0.537400 0.183392 0.151736
H8    H     H_    0.818766 0.510253 0.815759 0.153596
H9    H     H_    0.889186 0.549018 0.985568 0.128851
H10   H     H_    0.125055 0.578055 0.012674 0.129068
H11   H     H_    0.692918 0.599225 0.185277 0.139975
H12   H     H_    0.329366 0.604322 0.812151 0.151748
H13   H     H_    0.361165 0.827730 0.509695 0.162573
H14   H     H_    0.638957 0.172233 0.490524 0.163277
H15   H     H_    0.713217 0.820435 0.495173 0.160792
H16   H     H_    0.286818 0.179533 0.504903 0.161415
H17   H     H_    0.272454 0.989790 0.508722 0.139194
H18   H     H_    0.727659 0.010174 0.491482 0.139512
H19   H     H_    0.773224 0.591229 0.405197 0.118617
H20   H     H_    0.226715 0.408801 0.594772 0.123760
N1    N     N_R   0.799120 0.480200 0.517090 -0.095956
N2    N     N_R   0.200880 0.519800 0.482910 -0.096038
O1    O     O_R   0.580150 0.341050 0.504560 -0.623425
O2    O     O_R   0.419850 0.658950 0.495440 -0.625231
O3    O     O_R   0.388090 0.353760 0.493600 -0.621763
O4    O     O_R   0.611910 0.646240 0.506400 -0.623972
O5    O     O_R   0.650890 0.490020 0.640860 -0.619797
O6    O     O_R   0.349110 0.509980 0.359140 -0.619306
O7    O     O_R   0.458830 0.502730 0.629890 -0.622684
O8    O     O_R   0.541170 0.497270 0.370110 -0.621571
Zn1   Zn    Zn3+2 0.628240 0.491510 0.507320 0.938946
Zn2   Zn    Zn3+2 0.371760 0.508490 0.492680 0.938531
H21   H     H_    0.564263 0.524128 0.228217 0.159941
H22   H     H_    0.442037 0.515699 0.774019 0.158206

loop_
_geom_bond_atom_site_label_1
_geom_bond_atom_site_label_2
_ccdc_geom_bond_type
C8    C13   A    
C5    C37   A    
C1    C8    S    
C23   O7    A    
C2    C7    S    
C24   O8    A    
C29   H9    S    
C27   C33   A    
C4    H12   S    
C17   C26   A    
C35   C37   A    
C9    C16   A    
C17   H5    S    
C10   C15   A    
O5    Zn1   S    
C19   N2    A    
C15   C16   A    
C18   H6    S    
C30   C38   A    
C23   O5    A    
C20   N1    A    
C21   C25   A    
C33   C35   A    
C7    C14   A    
C1    O3    A    
C6    C38   A    
O8    Zn1   S    
C23   C27   S    
C34   C36   A    
N1    Zn1   S    
C30   H10   S    
C28   C34   A    
C18   C25   A    
C1    O1    A    
C2    O2    A    
C7    C12   A    
C27   C31   A    
C36   C40   A    
C9    H17   S    
C4    C6    A    
C22   H19   S    
C3    H11   S    
C3    C5    A    
C25   C26   A    
O7    Zn2   S    
C35   C39   A    
O4    Zn1   S    
C4    C39   A    
C28   C32   A    
O6    Zn2   S    
N2    Zn2   S    
C9    C11   A    
C21   N2    A    
C10   C12   A    
C21   H20   S    
O1    Zn1   S    
C3    C40   A    
C31   H8    S    
C13   C15   A    
C22   C26   A    
C32   H7    S    
C14   C16   A    
C39   C40   A    
C20   H3    S    
C19   H4    S    
C13   H14   S    
C5    H1    S    
C10   H18   S    
C24   C28   S    
C2    O4    A    
O3    Zn2   S    
C36   C38   A    
C29   C31   A    
C22   N1    A    
C30   C32   A    
C8    C11   A    
C17   C19   A    
C18   C20   A    
O2    Zn2   S    
C12   H15   S    
C24   O6    A    
C34   H21   S    
C33   H22   S    
C14   H13   S    
C6    H2    S    
C29   C37   A    
C11   H16   S    
