data_mof_unit_6977.cif
_audit_creation_date              2012-12-11T20:22:15-0500
_audit_creation_method            fapswitch 2.2
_symmetry_space_group_name_H-M    P1
_symmetry_Int_Tables_number       1
_space_group_crystal_system       triclinic
_cell_length_a                    8.280726
_cell_length_b                    17.369184
_cell_length_c                    26.940229
_cell_angle_alpha                 99.519164
_cell_angle_beta                  92.892899
_cell_angle_gamma                 81.507919
_cell_volume                      3778.1987081

loop_
_atom_site_label
_atom_site_type_symbol
_atom_type_description
_atom_site_fract_x
_atom_site_fract_y
_atom_site_fract_z
_atom_type_partial_charge
Ba1   Ba    Ba6+2 0.860160 0.462360 0.521850 1.696863
Ba2   Ba    Ba6+2 0.329680 0.537570 0.478140 1.672569
Br1   Br    Br    0.750145 0.189081 0.608981 -0.597782
Br2   Br    Br    0.255131 0.122185 0.414052 -0.644371
Br3   Br    Br    0.843037 0.707648 0.702574 -0.587875
Br4   Br    Br    0.838224 0.760306 0.142415 -0.495296
C1    C     C_3   0.540884 0.236947 0.690098 -0.329774
C2    C     C_R   0.913675 0.588441 0.183472 0.599936
C3    C     C_2   0.760289 0.561120 0.276468 -0.020838
C4    C     C_3   0.122913 0.285227 0.649097 0.394655
C5    C     C_3   0.735902 0.580106 0.332405 -0.054522
C6    C     C_1   0.984399 0.488197 0.342976 0.050166
C7    C     C_2   0.027403 0.488917 0.295858 -0.086634
C8    C     C_2   0.906864 0.524116 0.258780 0.192967
C9    C     C_R   0.024446 0.516067 0.103913 -0.116894
C10   C     C_R   0.057311 0.447822 0.126932 -0.024727
C11   C     C_R   0.128863 0.377147 0.098521 -0.064627
C12   C     C_3   0.614202 0.273017 0.650345 0.591563
C13   C     C_R   0.952826 0.587642 0.132557 -0.065674
C14   C     C_2   0.842190 0.523944 0.361161 -0.216826
C15   C     C_2   0.347535 0.477946 0.640466 -0.287832
C16   C     C_3   0.102603 0.254848 0.697903 -0.312685
C17   C     C_R   0.180868 0.437853 0.972815 0.019173
C18   C     C_R   0.057914 0.576750 0.976710 0.032613
C19   C     C_R   0.138214 0.505773 0.949195 0.055723
C20   C     C_R   0.265232 0.369464 0.944050 -0.100619
C21   C     C_R   0.303144 0.367436 0.893968 -0.056715
C22   C     C_R   0.259229 0.433463 0.869997 -0.027422
C23   C     C_3   0.473925 0.658523 0.635204 0.295944
C24   C     C_R   0.176296 0.502775 0.897508 -0.081650
C25   C     C_R   0.131630 0.569160 0.873356 -0.042617
C26   C     C_R   0.171702 0.565727 0.822499 0.606621
C27   C     C_R   0.297147 0.431557 0.819083 0.584886
C28   C     C_3   0.190949 0.287053 0.402925 0.253020
C29   C     C_2   0.453045 0.477283 0.728706 -0.090163
C30   C     C_3   0.494057 0.484420 0.675453 -0.055512
C31   C     C_1   0.205916 0.514616 0.657334 0.040096
C32   C     C_2   0.166069 0.516481 0.704840 -0.097801
C33   C     C_2   0.295682 0.495467 0.743511 0.202443
C34   C     C_3   0.399142 0.693635 0.685936 -0.298853
C35   C     C_R   0.138583 0.440530 0.024073 0.032648
C36   C     C_R   0.063136 0.512455 0.052119 0.049637
C37   C     C_R   0.026229 0.580804 0.028845 -0.025490
C38   C     C_R   0.168623 0.373462 0.048491 -0.099667
C39   C     C_R   0.924269 0.656114 0.109223 0.321336
C40   C     C_3   0.132157 0.207375 0.384429 0.050964
C41   C     C_R   0.010561 0.641384 0.950718 -0.093600
C42   C     C_R   0.047437 0.637721 0.900477 -0.046745
C43   C     C_R   0.960881 0.651873 0.058861 -0.106512
C44   C     C_2   0.442060 0.278815 0.511235 -0.223419
C45   C     C_3   0.042727 0.706399 0.348734 0.313993
C46   C     C_3   0.379077 0.230427 0.545496 -0.024707
C47   C     C_2   0.433674 0.143344 0.531692 -0.008727
C48   C     C_2   0.561452 0.116899 0.500977 0.082388
C49   C     C_2   0.638649 0.175017 0.478370 -0.040610
C50   C     C_1   0.573710 0.250218 0.484763 0.087171
C51   C     C_R   0.782569 0.861479 0.471824 -0.123535
C52   C     C_3   0.898263 0.705862 0.632781 0.559475
C53   C     C_R   0.851428 0.783072 0.471587 0.024717
C54   C     C_R   0.621486 0.760746 0.516477 0.016343
C55   C     C_R   0.552046 0.839244 0.517369 -0.112220
C56   C     C_3   0.058737 0.728228 0.296995 -0.256101
C57   C     C_R   0.631692 0.890400 0.494938 0.004179
C58   C     C_2   0.636525 0.032971 0.492702 -0.026648
C59   C     C_2   0.554221 0.973401 0.497389 -0.059925
C60   C     C_R   0.769450 0.732822 0.493103 -0.273638
C61   C     C_3   0.886547 0.790459 0.622523 -0.331686
C62   C     C_3   0.682913 0.358538 0.365523 0.306552
C63   C     C_3   0.644072 0.337554 0.309374 0.241421
C64   C     C_3   0.620902 0.381324 0.233050 0.200577
C65   C     C_3   0.495614 0.749195 0.371327 0.322042
C66   C     C_3   0.439871 0.829336 0.355701 -0.320009
C67   C     C_R   0.017188 0.451054 0.177810 0.581791
H1    H     H_    0.146628 0.191090 0.343015 0.120067
H2    H     H_    0.727097 0.283149 0.294133 0.045178
H3    H     H_    0.515010 0.325574 0.305005 0.055050
H4    H     H_    0.513837 0.299198 0.626903 -0.089150
H5    H     H_    0.470569 0.189916 0.671635 0.088530
H6    H     H_    0.380804 0.628869 0.611350 0.040599
H7    H     H_    0.581028 0.614005 0.640758 0.037232
H8    H     H_    0.291682 0.738231 0.680713 0.153953
H9    H     H_    0.359194 0.646987 0.703967 0.077507
H10   H     H_    0.489312 0.722674 0.711446 0.169098
H11   H     H_    0.458560 0.282987 0.713744 0.139917
H12   H     H_    0.000653 0.211056 0.392314 0.104368
H13   H     H_    0.122340 0.301050 0.730528 0.099073
H14   H     H_    0.131968 0.652932 0.352191 0.086756
H15   H     H_    0.916948 0.693512 0.351875 -0.062185
H16   H     H_    0.164314 0.760455 0.296320 0.149071
H17   H     H_    0.079388 0.673659 0.268957 0.110132
H18   H     H_    0.946259 0.766244 0.286577 0.153512
H19   H     H_    0.631273 0.738362 0.369960 -0.058782
H20   H     H_    0.457691 0.751629 0.410621 0.068809
H21   H     H_    0.502632 0.874675 0.379913 0.092467
H22   H     H_    0.306233 0.845971 0.360099 0.158623
H23   H     H_    0.813824 0.675796 0.605989 0.014005
H24   H     H_    0.034509 0.339075 0.647883 0.105185
H25   H     H_    0.470496 0.827914 0.315855 0.140661
H26   H     H_    0.149690 0.463564 0.283846 0.123223
H27   H     H_    0.154791 0.323624 0.114983 0.123050
H28   H     H_    0.551003 0.464851 0.755827 0.108823
H29   H     H_    0.368014 0.313372 0.873982 0.124060
H30   H     H_    0.306315 0.316249 0.959251 0.073584
H31   H     H_    0.221087 0.316270 0.029805 0.072989
H32   H     H_    0.666219 0.584995 0.251444 0.107038
H33   H     H_    0.941581 0.695804 0.967776 0.083170
H34   H     H_    0.947764 0.827084 0.653088 0.148381
H35   H     H_    0.247710 0.300932 0.649174 -0.125786
H36   H     H_    0.008837 0.689352 0.882808 0.139429
H37   H     H_    0.040743 0.534359 0.716196 0.154414
H38   H     H_    0.939792 0.706828 0.044524 0.115318
H39   H     H_    0.810626 0.523030 0.399634 0.057825
H40   H     H_    0.355755 0.439901 0.604106 0.062722
H41   H     H_    0.425165 0.985968 0.505568 0.100762
H42   H     H_    0.745171 0.154606 0.455296 0.089273
H43   H     H_    0.846763 0.898524 0.453685 0.086106
H44   H     H_    0.764708 0.021331 0.483848 0.090540
H45   H     H_    0.757722 0.816976 0.619032 0.099258
H46   H     H_    0.381197 0.104184 0.551737 0.068894
H47   H     H_    0.978221 0.239213 0.699521 0.175465
H48   H     H_    0.437704 0.860633 0.536158 0.093246
H49   H     H_    0.388475 0.340089 0.513426 0.056151
H50   H     H_    0.824062 0.672344 0.493297 0.073426
H51   H     H_    0.192633 0.201567 0.700527 0.112848
H52   H     H_    0.325788 0.278590 0.407640 0.025250
H53   H     H_    0.135162 0.313528 0.439558 0.062256
H54   H     H_    0.489237 0.374514 0.228290 0.044110
H55   H     H_    0.698040 0.327245 0.214576 0.058765
H56   H     H_    0.947289 0.790639 0.586948 0.080255
H57   H     H_    0.640228 0.430327 0.213447 0.068531
H58   H     H_    0.812398 0.367798 0.371101 -0.019756
H59   H     H_    0.601496 0.413230 0.380681 0.064656
H60   H     H_    0.638543 0.210965 0.714645 0.149451
N1    N     N_R   0.946928 0.520982 0.205865 -0.435750
N2    N     N_R   0.253946 0.497419 0.795801 -0.426340
O1    O     O_2   0.906370 0.542040 0.619810 -0.471561
O2    O     O_2   0.186530 0.781207 0.478134 -0.472808
O3    O     O_3   0.074565 0.769545 0.385739 -0.601606
O4    O     O_3   0.138370 0.541980 0.559630 -0.465414
O5    O     O_3   0.572820 0.404940 0.471170 -0.495149
O6    O     O_2   0.345130 0.693150 0.532000 -0.431204
O7    O     O_3   0.525149 0.719209 0.614186 -0.638508
O8    O     O_2   0.413286 0.537836 0.323722 -0.473239
O9    O     O_3   0.424080 0.690586 0.338760 -0.600428
O10   O     O_2   0.042468 0.391051 0.196814 -0.597742
O11   O     O_2   0.367707 0.370929 0.795400 -0.619722
O12   O     O_3   0.657797 0.294636 0.388260 -0.675384
O13   O     O_2   0.849884 0.649562 0.208104 -0.564133
O14   O     O_2   0.135273 0.624074 0.802219 -0.558340
O15   O     O_3   0.686580 0.398330 0.583860 -0.460491
O16   O     O_2   0.828400 0.453176 0.670987 -0.487440
O17   O     O_3   0.058924 0.668850 0.625028 -0.639194
O18   O     O_3   0.713026 0.327616 0.674592 -0.599315
O19   O     O_2   0.844570 0.306830 0.467970 -0.465404
O20   O     O_3   0.101900 0.357890 0.557750 -0.505288
O21   O     O_2   0.055695 0.215326 0.509482 -0.418680
O22   O     O_3   0.665979 0.400155 0.284348 -0.666887
O23   O     O_3   0.093683 0.227503 0.607835 -0.546309
O24   O     O_2   0.283330 0.457940 0.380160 -0.464823
O25   O     O_3   0.051340 0.457960 0.440360 -0.498840
O26   O     O_3   0.503130 0.601610 0.416130 -0.480923
O27   O     O_3   0.147848 0.332807 0.364897 -0.646914
O28   O     O_3   0.616890 0.595000 0.528820 -0.485506
O29   O     O_3   0.087820 0.642040 0.442240 -0.495262
P1    P     P_3+3 0.071770 0.565500 0.613330 1.017202
P2    P     P_3+3 0.664870 0.318630 0.453960 0.984949
P3    P     P_3+3 0.155545 0.256319 0.553473 1.021068
P4    P     P_3+3 0.117940 0.434440 0.386660 0.988727
P5    P     P_3+3 0.051312 0.744436 0.444922 0.970270
P6    P     P_3+3 0.676038 0.416121 0.650152 0.981652
P7    P     P_3+3 0.529427 0.693642 0.548562 0.952388
P8    P     P_3+3 0.518607 0.598934 0.351639 0.971419

loop_
_geom_bond_atom_site_label_1
_geom_bond_atom_site_label_2
_ccdc_geom_bond_type
C64   H54   S    
C49   C50   D    
C57   C59   S    
Br4   C39   S    
C4    H24   S    
Ba1   O20   S    
C59   H41   S    
C4    H35   S    
C29   C30   S    
C44   H49   S    
O6    P7    D    
O17   P1    S    
C38   H31   S    
C15   C30   S    
Br2   C40   S    
C47   C48   D    
C4    C16   S    
C9    C13   A    
C20   C21   A    
O16   P6    D    
C49   H42   S    
Br3   C52   S    
Br1   C12   S    
Ba2   O4    S    
C1    H11   S    
O8    P8    D    
C1    H60   S    
C12   H4    S    
C53   C60   A    
C32   C33   S    
C61   H56   S    
C51   C53   A    
O1    P1    D    
C23   O7    S    
C3    H32   S    
C9    C10   A    
C56   H16   S    
C64   H57   S    
O24   P4    D    
C63   H3    S    
C55   H48   S    
Ba1   Ba2   S    
C35   C36   A    
C17   C20   A    
O4    P1    S    
C52   H23   S    
O15   P6    S    
C14   H39   S    
O26   P8    S    
C65   H19   S    
C25   C26   A    
O20   P3    S    
C10   C11   A    
O18   P6    S    
C63   O22   S    
C28   C40   S    
C39   C43   A    
C32   H37   S    
Ba1   O1    S    
O28   P7    S    
C4    O23   S    
O2    P5    D    
Ba1   O4    S    
C43   H38   S    
C40   H12   S    
C66   H21   S    
C41   H33   S    
O25   P4    S    
C42   H36   S    
C54   C60   A    
C5    P8    S    
C7    C8    S    
O3    P5    S    
C66   H22   S    
C34   H10   S    
O29   P5    S    
C2    O13   D    
C45   C56   S    
Ba2   O26   S    
C61   H45   S    
C52   O17   S    
O23   P3    S    
C51   C57   A    
C51   H43   S    
O5    P2    S    
C5    C14   S    
C2    C13   A    
C26   O14   D    
C2    N1    Am   
C10   C67   A    
C34   H9    S    
C62   O12   S    
C18   C19   A    
C15   H40   S    
C45   H14   S    
C62   C63   S    
C33   N2    S    
C8    N1    S    
O21   P3    D    
C28   O27   S    
C44   C50   D    
C58   H44   S    
C67   O10   D    
C54   C55   A    
C62   H59   S    
C7    H26   S    
C62   H58   S    
C16   H47   S    
C3    C8    D    
C31   C32   D    
C66   H25   S    
O12   P2    S    
C20   H30   S    
C27   N2    Am   
C44   C46   S    
C41   C42   A    
C23   H6    S    
Ba1   P1    S    
C28   H53   S    
C1    C12   S    
C56   H18   S    
C6    C14   D    
C55   C57   A    
Ba1   O15   S    
C6    C7    D    
C3    C5    S    
C12   O18   S    
C1    H5    S    
O27   P4    S    
C22   C27   A    
C25   C42   A    
C35   C38   A    
C36   C37   A    
Ba2   O24   S    
Ba2   O29   S    
Ba2   P4    S    
C47   H46   S    
C40   H1    S    
C46   C47   S    
C45   H15   S    
C64   H55   S    
C19   C24   A    
Ba2   O6    S    
C48   C49   S    
O7    P7    S    
C54   P7    S    
C34   H8    S    
Ba1   O25   S    
C37   C43   A    
C9    C36   A    
C29   H28   S    
Ba2   O28   S    
C6    P4    S    
C26   N2    Am   
C31   P1    S    
C13   C39   A    
C16   H51   S    
C65   H20   S    
O9    P8    S    
C21   H29   S    
C30   P6    S    
C17   C35   A    
C64   O22   S    
Ba2   O5    S    
C58   C59   D    
C18   C41   A    
C22   C24   A    
C11   C38   A    
C65   C66   S    
C46   P3    S    
C61   H34   S    
C24   C25   A    
C23   H7    S    
C48   C58   S    
Ba1   P2    S    
C28   H52   S    
C29   C33   D    
C56   H17   S    
C23   C34   S    
C63   H2    S    
C16   H13   S    
Ba1   O19   S    
C11   H27   S    
C27   O11   D    
C45   O3    S    
C52   C61   S    
C17   C19   A    
C15   C31   D    
C67   N1    Am   
Ba1   O28   S    
Ba2   O25   S    
C50   P2    S    
C21   C22   A    
C18   C37   A    
C60   H50   S    
O19   P2    D    
Ba1   O5    S    
C53   P5    S    
C65   O9    S    
