data_mof_unit_26398.cif
_audit_creation_date              2012-12-10T17:36:18-0500
_audit_creation_method            fapswitch 2.2
_symmetry_space_group_name_H-M    P1
_symmetry_Int_Tables_number       1
_space_group_crystal_system       triclinic
_cell_length_a                    12.385287
_cell_length_b                    13.167152
_cell_length_c                    15.883807
_cell_angle_alpha                 77.297487
_cell_angle_beta                  102.173123
_cell_angle_gamma                 116.670784
_cell_volume                      2239.28313638

loop_
_atom_site_label
_atom_site_type_symbol
_atom_type_description
_atom_site_fract_x
_atom_site_fract_y
_atom_site_fract_z
_atom_type_partial_charge
C1    C     C_R   0.854797 0.286541 0.506620 0.767140
C2    C     C_3   0.117454 0.492081 0.072431 -0.395511
C3    C     C_3   0.000820 0.500682 0.083501 0.279108
C4    C     C_3   0.001598 0.613889 0.028379 -0.400167
C5    C     C_3   0.012368 0.617434 0.932099 -0.426414
C6    C     C_1   0.999317 0.501078 0.175192 -0.094310
C7    C     C_1   0.003543 0.501126 0.825212 -0.109915
C8    C     C_1   0.002634 0.500936 0.749542 -0.210064
C9    C     C_R   0.269294 0.025974 0.393830 -0.204845
C10   C     C_R   0.227336 0.835438 0.471072 -0.050289
C11   C     C_R   0.815776 0.083343 0.557063 -0.196870
C12   C     C_R   0.000764 0.500193 0.659699 0.826835
C13   C     C_R   0.737041 0.968243 0.572421 -0.149315
C14   C     C_R   0.613146 0.932015 0.544082 -0.190179
C15   C     C_R   0.565198 0.010427 0.495786 0.075319
C16   C     C_R   0.648074 0.125090 0.471618 0.054834
C17   C     C_R   0.438146 0.978627 0.470473 0.043274
C18   C     C_R   0.395926 0.059095 0.416547 0.132225
C19   C     C_R   0.481188 0.169478 0.385601 0.053796
C20   C     C_R   0.605175 0.198311 0.410433 -0.240787
C21   C     C_R   0.351367 0.868993 0.498926 -0.240087
C22   C     C_R   0.186139 0.914927 0.420068 -0.200433
C23   C     C_R   0.144985 0.713614 0.487818 0.785684
C24   C     C_R   0.772416 0.163429 0.508980 -0.088693
C25   C     C_R   0.356449 0.334394 0.637170 -0.292626
C26   C     C_R   0.763206 0.647059 0.384163 0.038568
C27   C     C_R   0.675980 0.690300 0.362175 -0.296994
C28   C     C_R   0.574882 0.645341 0.407738 0.108020
C29   C     C_R   0.555446 0.545214 0.472009 -0.039670
C30   C     C_R   0.653431 0.508870 0.494705 0.249097
C31   C     C_R   0.448853 0.481144 0.517776 -0.038575
C32   C     C_R   0.451916 0.394392 0.587927 0.138184
C33   C     C_R   0.550071 0.365921 0.609962 -0.284026
C34   C     C_R   0.999770 0.500557 0.340341 0.822004
C35   C     C_R   0.647476 0.420829 0.563825 -0.159658
C36   C     C_R   0.336885 0.493427 0.496708 -0.042568
C37   C     C_R   0.256769 0.360471 0.620941 0.332668
C38   C     C_3   0.110574 0.475517 0.977316 -0.034825
C39   C     C_3   0.877564 0.408269 0.948617 -0.078157
C40   C     C_3   0.887301 0.396607 0.049301 -0.411080
C41   C     C_1   0.999036 0.501039 0.250616 -0.186000
C42   C     C_3   0.002953 0.500016 0.917651 0.302971
Cu1   Cu    Cu3+1 0.098280 0.475420 0.519630 0.915069
Cu2   Cu    Cu3+1 0.901720 0.524580 0.480370 0.916268
H1    H     H_    0.127050 0.418220 0.117979 0.140764
H2    H     H_    0.198868 0.570498 0.090199 0.174503
H3    H     H_    0.916192 0.620406 0.032015 0.168602
H4    H     H_    0.089996 0.890287 0.397942 0.148188
H5    H     H_    0.232680 0.083694 0.353520 0.141887
H6    H     H_    0.910441 0.109994 0.584858 0.144157
H7    H     H_    0.558481 0.841540 0.559971 0.123115
H8    H     H_    0.771635 0.906989 0.609181 0.141198
H9    H     H_    0.085721 0.383161 0.981264 0.122942
H10   H     H_    0.668082 0.278754 0.379196 0.176145
H11   H     H_    0.551522 0.299192 0.663681 0.144496
H12   H     H_    0.360630 0.267753 0.690139 0.146541
H13   H     H_    0.317499 0.543003 0.437668 0.166460
H14   H     H_    0.842408 0.686520 0.350002 0.137408
H15   H     H_    0.717959 0.392466 0.586035 0.206766
H16   H     H_    0.810377 0.445933 0.922285 0.139999
H17   H     H_    0.894708 0.315603 0.081421 0.169749
H18   H     H_    0.802861 0.392686 0.066715 0.151732
H19   H     H_    0.097546 0.690308 0.913810 0.168340
H20   H     H_    0.938270 0.636834 0.889354 0.158977
H21   H     H_    0.079181 0.689291 0.054637 0.163352
N1    N     N_R   0.246300 0.438200 0.549400 -0.197168
N2    N     N_R   0.754300 0.561180 0.451130 -0.205869
O1    O     O_R   0.972520 0.318130 0.524690 -0.596508
O2    O     O_R   0.806530 0.359650 0.491530 -0.603184
O3    O     O_R   0.083030 0.479240 0.637150 -0.590053
O4    O     O_R   0.917040 0.520750 0.603990 -0.584714
O5    O     O_R   0.193470 0.640350 0.508470 -0.588484
O6    O     O_R   0.027480 0.681870 0.475310 -0.583605
O7    O     O_R   0.082960 0.479250 0.396010 -0.578854
O8    O     O_R   0.916970 0.520760 0.362850 -0.588680
C43   C     C_3   0.237388 0.531768 0.944577 -0.415662
C44   C     C_3   0.296824 0.663320 0.924242 -0.321489
C45   C     C_3   0.430308 0.707598 0.912010 -0.869929
H22   H     H_    0.482851 0.684933 0.973075 0.250233
H23   H     H_    0.438077 0.670022 0.858620 0.257598
H24   H     H_    0.470250 0.802542 0.894948 0.240750
H25   H     H_    0.249445 0.690998 0.862440 0.217478
H26   H     H_    0.292418 0.702868 0.977595 0.214111
H27   H     H_    0.299746 0.503258 0.994623 0.203172
H28   H     H_    0.229172 0.496805 0.885019 0.196785
C46   C     C_3   0.444646 0.260506 0.327893 -0.395763
C47   C     C_3   0.409402 0.239171 0.232706 -0.342539
C48   C     C_3   0.367775 0.328099 0.175876 -0.879952
H29   H     H_    0.286247 0.323142 0.198368 0.249773
H30   H     H_    0.441844 0.415993 0.178395 0.255605
H31   H     H_    0.343650 0.311216 0.107340 0.236611
H32   H     H_    0.489438 0.244254 0.207876 0.217434
H33   H     H_    0.334751 0.152196 0.227261 0.216653
H34   H     H_    0.369721 0.264819 0.352836 0.194676
H35   H     H_    0.521539 0.347131 0.330765 0.202573
H36   H     H_    0.377496 0.806604 0.542673 0.148430
C49   C     C_3   0.164492 0.297722 0.684987 -0.367774
C50   C     C_3   0.205075 0.351768 0.769432 -0.335955
C51   C     C_3   0.295241 0.314570 0.834517 -0.880332
H37   H     H_    0.261837 0.219698 0.844664 0.251410
H38   H     H_    0.386189 0.355595 0.811816 0.256608
H39   H     H_    0.305811 0.342311 0.898072 0.232692
H40   H     H_    0.246362 0.446980 0.754255 0.235015
H41   H     H_    0.123031 0.325247 0.801368 0.196108
H42   H     H_    0.074567 0.294254 0.657669 0.215191
H43   H     H_    0.148082 0.205726 0.700372 0.152837
C52   C     C_3   0.505685 0.719465 0.391915 -0.402480
C53   C     C_3   0.420268 0.703780 0.305355 -0.358114
C54   C     C_3   0.336102 0.762926 0.295837 -0.830526
H44   H     H_    0.274447 0.722124 0.346843 0.261838
H45   H     H_    0.390062 0.855643 0.301334 0.257948
H46   H     H_    0.279591 0.754297 0.231212 0.229584
H47   H     H_    0.475561 0.741237 0.250332 0.213038
H48   H     H_    0.364094 0.611214 0.300229 0.215853
H49   H     H_    0.459428 0.707962 0.447987 0.190410
H50   H     H_    0.572313 0.811283 0.388075 0.201634
H51   H     H_    0.691337 0.764241 0.312041 0.140625
C55   C     C_3   0.813297 0.291281 0.912759 -0.413305
C56   C     C_3   0.886061 0.218979 0.927929 -0.335769
C57   C     C_3   0.807149 0.101613 0.898498 -0.863720
H52   H     H_    0.729019 0.052836 0.936643 0.250738
H53   H     H_    0.772273 0.111743 0.828175 0.254416
H54   H     H_    0.862406 0.051818 0.908868 0.240241
H55   H     H_    0.963585 0.262935 0.889206 0.209813
H56   H     H_    0.920512 0.205539 0.997965 0.210642
H57   H     H_    0.727400 0.239513 0.942471 0.201265
H58   H     H_    0.785707 0.307448 0.841540 0.196317

loop_
_geom_bond_atom_site_label_1
_geom_bond_atom_site_label_2
_ccdc_geom_bond_type
C33   H11   S    
C22   H4    S    
C47   C48   S    
Cu1   O5    S    
C19   C20   A    
C25   H12   S    
C5    C42   S    
C3    C6    S    
C43   H27   S    
C37   C49   S    
C49   C50   S    
C7    C8    T    
C38   C43   S    
C44   C45   S    
C2    H2    S    
C26   C27   A    
C30   C35   A    
C26   N2    A    
C28   C29   A    
C38   C42   S    
C54   H45   S    
C4    H21   S    
C36   N1    A    
C9    C22   A    
C44   H26   S    
C28   C52   S    
C50   H40   S    
C11   C24   A    
C1    O1    A    
C40   H18   S    
C53   C54   S    
C5    H19   S    
Cu2   O4    S    
C35   H15   S    
C18   C19   A    
C7    C42   S    
C53   H48   S    
C55   C56   S    
C46   H34   S    
C25   C37   A    
C14   H7    S    
Cu1   O1    S    
C6    C41   T    
C52   C53   S    
C30   N2    A    
C57   H54   S    
C16   C20   A    
C34   O8    A    
C49   H42   S    
C19   C46   S    
Cu1   O7    S    
C16   C24   A    
C13   C14   A    
C34   C41   S    
C23   O6    A    
C57   H53   S    
C39   C42   S    
C27   H51   S    
C10   C21   A    
C9    H5    S    
C43   C44   S    
C20   H10   S    
C36   H13   S    
C54   H46   S    
C39   C40   S    
C45   H22   S    
C56   H55   S    
C10   C22   A    
C40   H17   S    
C5    H20   S    
C53   H47   S    
Cu2   O8    S    
Cu1   Cu2   S    
C29   C30   A    
C13   H8    S    
C2    C38   S    
C51   H37   S    
C14   C15   A    
C48   H31   S    
C8    C12   S    
C37   N1    A    
C17   C18   A    
Cu2   O2    S    
C26   H14   S    
C52   H49   S    
C34   O7    A    
C49   H43   S    
C56   H56   S    
C51   H38   S    
C12   O4    A    
C48   H30   S    
C3    C40   S    
Cu1   O3    S    
C2    H1    S    
C55   H58   S    
C3    C4    S    
C57   H52   S    
C15   C17   A    
C12   O3    A    
C46   C47   S    
C23   O5    A    
C31   C32   A    
C4    C5    S    
C56   C57   S    
C21   H36   S    
C10   C23   S    
C39   C55   S    
C32   C33   A    
C2    C3    S    
C29   C31   A    
C11   H6    S    
C54   H44   S    
C11   C13   A    
C45   H24   S    
C38   H9    S    
C44   H25   S    
C25   C32   A    
Cu1   N1    S    
C50   H41   S    
C39   H16   S    
C47   H33   S    
C33   C35   A    
C45   H23   S    
Cu2   O6    S    
C1    O2    A    
C52   H50   S    
C46   H35   S    
C9    C18   A    
C51   H39   S    
C48   H29   S    
C1    C24   S    
C50   C51   S    
C27   C28   A    
C31   C36   A    
Cu2   N2    S    
C55   H57   S    
C47   H32   S    
C43   H28   S    
C15   C16   A    
C4    H3    S    
C17   C21   A    
