data_mof_unit_39311.cif
_audit_creation_date              2012-12-11T14:04:25-0500
_audit_creation_method            fapswitch 2.2
_symmetry_space_group_name_H-M    P1
_symmetry_Int_Tables_number       1
_space_group_crystal_system       triclinic
_cell_length_a                    19.291721
_cell_length_b                    11.065073
_cell_length_c                    18.880821
_cell_angle_alpha                 90.358779
_cell_angle_beta                  91.044586
_cell_angle_gamma                 90.536265
_cell_volume                      4029.4515529

loop_
_atom_site_label
_atom_site_type_symbol
_atom_type_description
_atom_site_fract_x
_atom_site_fract_y
_atom_site_fract_z
_atom_type_partial_charge
C1    C     C_R   0.239052 0.467868 0.647883 0.514499
C2    C     C_R   0.761318 0.465218 0.351573 0.588240
C3    C     C_R   0.739183 0.967131 0.648263 0.573581
C4    C     C_R   0.261324 0.965238 0.351582 0.587571
C5    C     C_2   0.288011 0.879649 0.543435 0.208836
C6    C     C_2   0.714950 0.885786 0.460459 0.225045
C7    C     C_2   0.787864 0.379833 0.543456 0.203078
C8    C     C_2   0.214703 0.384104 0.460225 0.281745
C9    C     C_R   0.008511 0.679771 0.422380 -0.021208
C10   C     C_R   0.003883 0.653278 0.569961 -0.010002
C11   C     C_R   0.508586 0.179053 0.422269 -0.023073
C12   C     C_R   0.504300 0.152929 0.569842 -0.003493
C13   C     C_R   0.977041 0.899653 0.439247 0.300955
C14   C     C_R   0.944254 0.847112 0.581347 0.268158
C15   C     C_R   0.477737 0.399195 0.439101 0.300304
C16   C     C_R   0.444161 0.346303 0.580955 0.266416
C17   C     C_R   0.940870 0.981657 0.480781 -0.098659
C18   C     C_R   0.923851 0.954663 0.550141 -0.151488
C19   C     C_R   0.441608 0.481326 0.480581 -0.100388
C20   C     C_R   0.424200 0.454178 0.549815 -0.152150
C21   C     C_R   0.980736 0.761408 0.540057 -0.044661
C22   C     C_R   0.989796 0.780763 0.466088 -0.035807
C23   C     C_R   0.480995 0.260844 0.539840 -0.045018
C24   C     C_R   0.490243 0.280221 0.465948 -0.035235
C25   C     C_R   0.018973 0.554297 0.524620 0.008745
C26   C     C_R   0.033689 0.575214 0.453708 0.009690
C27   C     C_R   0.519358 0.053658 0.524679 0.005312
C28   C     C_R   0.533212 0.073943 0.453546 -0.042900
C29   C     C_R   0.015001 0.433301 0.546340 -0.092283
C30   C     C_R   0.060840 0.481618 0.411736 -0.066456
C31   C     C_R   0.515370 0.932771 0.546672 -0.089574
C32   C     C_R   0.559875 0.979838 0.411552 -0.122529
C33   C     C_R   0.029019 0.337771 0.500092 0.277277
C34   C     C_R   0.052414 0.361591 0.432145 0.353298
C35   C     C_R   0.528739 0.836845 0.500523 0.278052
C36   C     C_R   0.551380 0.860053 0.432242 0.360758
C37   C     C_2   0.256189 0.925775 0.917469 -0.035499
C38   C     C_2   0.745387 0.922008 0.081789 -0.030778
C39   C     C_2   0.756191 0.425774 0.917469 -0.034902
C40   C     C_2   0.245386 0.422009 0.081790 -0.030752
C41   C     C_2   0.251235 0.933684 0.075047 0.210708
C42   C     C_2   0.750305 0.931410 0.923822 0.214622
C43   C     C_2   0.751235 0.433679 0.075048 0.210678
C44   C     C_2   0.250302 0.431410 0.923822 0.212702
C45   C     C_R   0.209795 0.831729 0.640707 0.562430
C46   C     C_R   0.772162 0.879452 0.348606 0.580709
C47   C     C_R   0.709694 0.331474 0.640697 0.607083
C48   C     C_R   0.272076 0.379312 0.348587 0.564295
C49   C     C_2   0.241890 0.025742 0.029255 -0.088418
C50   C     C_2   0.762600 0.022389 0.970606 -0.064062
C51   C     C_2   0.741902 0.525739 0.029256 -0.088450
C52   C     C_2   0.262594 0.522389 0.970606 -0.064538
C53   C     C_2   0.221441 0.007550 0.954642 0.265693
C54   C     C_2   0.781187 0.003503 0.045164 0.255735
C55   C     C_2   0.721444 0.507548 0.954645 0.265830
C56   C     C_2   0.281185 0.503499 0.045161 0.255990
C57   C     C_2   0.011587 0.655461 0.925412 -0.053826
C58   C     C_2   0.008147 0.662484 0.083960 -0.062029
C59   C     C_2   0.511532 0.155468 0.925384 -0.053088
C60   C     C_2   0.508133 0.162505 0.083953 -0.062027
C61   C     C_2   0.018991 0.565409 0.042841 0.197058
C62   C     C_2   0.045124 0.582411 0.971306 0.204555
C63   C     C_2   0.518970 0.065448 0.042820 0.196955
C64   C     C_2   0.545104 0.082483 0.971289 0.204427
C65   C     C_R   0.032099 0.652282 0.643297 0.573113
C66   C     C_R   0.971658 0.658351 0.353922 0.553646
C67   C     C_R   0.532221 0.152222 0.643256 0.594286
C68   C     C_R   0.471733 0.158246 0.353837 0.563076
C69   C     C_R   0.239230 0.467572 0.850764 0.560223
C70   C     C_R   0.761030 0.468371 0.148800 0.519262
C71   C     C_R   0.739230 0.967572 0.850765 0.554315
C72   C     C_R   0.261030 0.968375 0.148798 0.519459
C73   C     C_R   0.228385 0.874774 0.851807 0.572241
C74   C     C_R   0.771793 0.874255 0.148095 0.552182
C75   C     C_R   0.728385 0.374773 0.851808 0.569680
C76   C     C_R   0.271793 0.374256 0.148096 0.552898
C77   C     C_R   0.032008 0.651765 0.851898 0.575136
C78   C     C_R   0.970450 0.652352 0.149685 0.558350
C79   C     C_R   0.531951 0.151774 0.851866 0.573869
C80   C     C_R   0.470446 0.152354 0.149683 0.557669
C81   C     C_2   0.223579 0.857389 0.567080 -0.101637
C82   C     C_2   0.746159 0.944439 0.408415 -0.100725
C83   C     C_2   0.723444 0.357161 0.567039 -0.072047
C84   C     C_2   0.245223 0.443818 0.408108 -0.074580
C85   C     C_2   0.254362 0.900326 0.417462 -0.078237
C86   C     C_2   0.749235 0.915287 0.580284 -0.064767
C87   C     C_2   0.754378 0.400373 0.417482 -0.071891
C88   C     C_2   0.248952 0.419306 0.579031 -0.121871
C89   C     C_2   0.298395 0.928423 0.471685 0.231900
C90   C     C_2   0.710618 0.953777 0.526814 0.178890
C91   C     C_2   0.798164 0.428998 0.471798 0.230204
C92   C     C_2   0.208436 0.453242 0.525212 0.180342
Cr1   Cr    Cr6+3 0.113970 0.508630 0.747920 1.015389
Cr2   Cr    Cr6+3 0.886030 0.508630 0.252080 1.077265
Cr3   Cr    Cr6+3 0.613970 0.008630 0.747920 1.026710
Cr4   Cr    Cr6+3 0.386030 0.008630 0.252080 1.078653
Cr5   Cr    Cr6+3 0.269200 0.666740 0.749850 0.983646
Cr6   Cr    Cr6+3 0.730800 0.666740 0.250150 1.026706
Cr7   Cr    Cr6+3 0.769200 0.166740 0.749850 0.995686
Cr8   Cr    Cr6+3 0.230800 0.166740 0.250150 1.026898
Cr9   Cr    Cr6+3 0.112300 0.820070 0.749800 1.057913
Cr10  Cr    Cr6+3 0.887700 0.820070 0.250200 1.063773
Cr11  Cr    Cr6+3 0.612300 0.320070 0.749800 1.064171
Cr12  Cr    Cr6+3 0.387700 0.320070 0.250200 1.063901
H1    H     H_    0.301496 0.882186 0.940655 0.103846
H2    H     H_    0.701011 0.875327 0.057879 0.088517
H3    H     H_    0.801500 0.382187 0.940653 0.103835
H4    H     H_    0.201008 0.375328 0.057883 0.088501
H5    H     H_    0.020780 0.752534 0.064983 0.045933
H6    H     H_    0.969644 0.713687 0.941693 0.029014
H7    H     H_    0.520764 0.252560 0.064983 0.045933
H8    H     H_    0.469553 0.213621 0.941657 0.029349
H9    H     H_    0.211965 0.836286 0.422692 0.007917
H10   H     H_    0.787446 0.846145 0.572027 0.024142
H11   H     H_    0.712272 0.335721 0.422622 -0.014100
H12   H     H_    0.288748 0.353049 0.570260 0.049110
H13   H     H_    0.178321 0.860190 0.532670 0.028482
H14   H     H_    0.763900 0.037499 0.415866 0.047854
H15   H     H_    0.678201 0.360505 0.532611 0.024325
H16   H     H_    0.260746 0.538193 0.414918 0.072049
H17   H     H_    0.925959 0.067987 0.458869 0.177524
H18   H     H_    0.894980 0.018060 0.580705 0.136412
H19   H     H_    0.426882 0.567747 0.458664 0.178317
H20   H     H_    0.395171 0.517556 0.580246 0.138281
H21   H     H_    0.079327 0.501151 0.359077 0.084608
H22   H     H_    0.993824 0.410597 0.596363 0.149521
H23   H     H_    0.578214 0.998919 0.358780 0.089459
H24   H     H_    0.494373 0.910288 0.596799 0.148173
H25   H     H_    0.244677 0.118700 0.048299 0.126050
H26   H     H_    0.763076 0.115715 0.952742 0.147831
H27   H     H_    0.744701 0.618697 0.048299 0.126100
H28   H     H_    0.263071 0.615715 0.952743 0.147750
O1    O     O_R   0.043230 0.549300 0.667990 -0.558441
O2    O     O_R   0.956770 0.549300 0.332010 -0.501347
O3    O     O_R   0.543230 0.049300 0.667990 -0.553894
O4    O     O_R   0.456770 0.049300 0.332010 -0.494901
O5    O     O_R   0.262920 0.788600 0.824420 -0.526760
O6    O     O_R   0.737080 0.788600 0.175580 -0.533105
O7    O     O_R   0.762920 0.288600 0.824420 -0.529667
O8    O     O_R   0.237080 0.288600 0.175580 -0.532589
O9    O     O_R   0.167530 0.905110 0.830340 -0.448603
O10   O     O_R   0.832470 0.905110 0.169660 -0.466976
O11   O     O_R   0.667530 0.405110 0.830340 -0.450662
O12   O     O_R   0.332470 0.405110 0.169660 -0.466461
O13   O     O_R   0.054010 0.748440 0.822860 -0.498411
O14   O     O_R   0.945990 0.748440 0.177140 -0.536697
O15   O     O_R   0.554010 0.248440 0.822860 -0.500295
O16   O     O_R   0.445990 0.248440 0.177140 -0.536828
O17   O     O_3   0.165160 0.665150 0.749190 -0.287746
O18   O     O_3   0.834840 0.665150 0.250810 -0.271307
O19   O     O_3   0.665160 0.165150 0.749190 -0.281387
O20   O     O_3   0.334840 0.165150 0.250810 -0.271276
O21   O     O_R   0.178620 0.457600 0.674100 -0.501851
O22   O     O_R   0.821380 0.457600 0.325900 -0.447620
O23   O     O_R   0.678620 0.957600 0.674100 -0.485896
O24   O     O_R   0.321380 0.957600 0.325900 -0.446581
O25   O     O_R   0.284680 0.542100 0.669460 -0.550509
O26   O     O_R   0.715320 0.542100 0.330540 -0.518819
O27   O     O_R   0.784680 0.042100 0.669460 -0.546457
O28   O     O_R   0.215320 0.042100 0.330540 -0.518209
O29   O     O_R   0.262860 0.790390 0.676650 -0.471430
O30   O     O_R   0.737140 0.790390 0.323350 -0.442939
O31   O     O_R   0.762860 0.290390 0.676650 -0.469512
O32   O     O_R   0.237140 0.290390 0.323350 -0.444842
O33   O     O_R   0.167460 0.907030 0.670940 -0.519617
O34   O     O_R   0.832540 0.907030 0.329060 -0.497103
O35   O     O_R   0.667460 0.407030 0.670940 -0.531252
O36   O     O_R   0.332540 0.407030 0.329060 -0.498855
O37   O     O_R   0.053950 0.750220 0.675100 -0.459734
O38   O     O_R   0.946050 0.750220 0.324900 -0.446729
O39   O     O_R   0.553950 0.250220 0.675100 -0.458393
O40   O     O_R   0.446050 0.250220 0.324900 -0.447769
O41   O     O_R   0.043300 0.547370 0.827390 -0.475577
O42   O     O_R   0.956700 0.547370 0.172610 -0.444300
O43   O     O_R   0.543300 0.047370 0.827390 -0.478131
O44   O     O_R   0.456700 0.047370 0.172610 -0.444974
O45   O     O_R   0.178690 0.455820 0.821860 -0.460730
O46   O     O_R   0.821310 0.455820 0.178140 -0.495616
O47   O     O_R   0.678690 0.955820 0.821860 -0.466731
O48   O     O_R   0.321310 0.955820 0.178140 -0.495695
O49   O     O_R   0.284750 0.540170 0.828860 -0.546187
O50   O     O_R   0.715250 0.540170 0.171140 -0.553798
O51   O     O_R   0.784750 0.040170 0.828860 -0.550555
O52   O     O_R   0.215250 0.040170 0.171140 -0.553890
O53   O     O_3   0.351343 0.011468 0.460719 -0.659546
H29   H     H_    0.372513 0.034941 0.506984 0.338913
O54   O     O_3   0.676427 0.062710 0.532107 -0.725637
H30   H     H_    0.665659 0.091146 0.483651 0.303240
O55   O     O_3   0.850796 0.512719 0.460985 -0.662993
H31   H     H_    0.871787 0.536341 0.507312 0.338180
O56   O     O_3   0.168807 0.556978 0.524656 -0.743124
H32   H     H_    0.177938 0.606167 0.567755 0.323024
O57   O     O_3   0.172864 0.079915 0.919942 -0.542422
C93   C     C_3   0.119207 0.117025 0.964696 0.009932
H33   H     H_    0.138509 0.185639 0.003715 0.150108
H34   H     H_    0.096156 0.038456 0.992789 0.131338
C94   C     C_3   0.062844 0.175228 0.919300 -0.354069
H35   H     H_    0.041827 0.108765 0.879950 0.158230
H36   H     H_    0.019929 0.206583 0.952812 0.075659
H37   H     H_    0.084562 0.254201 0.890869 0.198352
O58   O     O_3   0.828884 0.078842 0.080062 -0.542504
C95   C     C_3   0.891874 0.083782 0.043325 0.009904
H38   H     H_    0.887202 0.145864 0.997402 0.135828
H39   H     H_    0.907913 0.992520 0.024605 0.132587
C96   C     C_3   0.948184 0.132065 0.093753 -0.341846
H40   H     H_    0.952094 0.073482 0.141203 0.168559
H41   H     H_    0.999032 0.132841 0.067409 0.075218
H42   H     H_    0.935667 0.225485 0.110801 0.199036
O59   O     O_3   0.672856 0.579902 0.919954 -0.542757
C97   C     C_3   0.619212 0.617016 0.964722 0.009962
H43   H     H_    0.638524 0.685631 0.003736 0.150169
H44   H     H_    0.596169 0.538447 0.992822 0.131419
C98   C     C_3   0.562836 0.675218 0.919344 -0.354564
H45   H     H_    0.541810 0.608758 0.879997 0.157970
H46   H     H_    0.519930 0.706565 0.952870 0.075910
H47   H     H_    0.584544 0.754197 0.890909 0.197771
O60   O     O_3   0.328893 0.578832 0.080046 -0.542414
C99   C     C_3   0.391908 0.583593 0.043347 0.009947
H48   H     H_    0.387288 0.645529 0.997351 0.135818
H49   H     H_    0.407930 0.492252 0.024742 0.132671
C100  C     C_3   0.448202 0.631981 0.093760 -0.341886
H50   H     H_    0.452045 0.573576 0.141290 0.168747
H51   H     H_    0.499071 0.632575 0.067457 0.075142
H52   H     H_    0.435718 0.725487 0.110672 0.199010
O61   O     O_3   0.244355 0.814304 0.054246 -0.730485
H53   H     H_    0.247934 0.764099 0.097439 0.348395
O62   O     O_3   0.755051 0.811657 0.942925 -0.750915
H54   H     H_    0.750960 0.762630 0.898904 0.345243
O63   O     O_3   0.744338 0.314301 0.054249 -0.730565
H55   H     H_    0.747909 0.264097 0.097444 0.348213
O64   O     O_3   0.255051 0.311658 0.942924 -0.750897
H56   H     H_    0.250964 0.262632 0.898903 0.345627
O65   O     O_3   0.005168 0.449526 0.066465 -0.689996
H57   H     H_    0.010005 0.392076 0.026402 0.316700
O66   O     O_3   0.100424 0.514133 0.949118 -0.682199
H58   H     H_    0.117452 0.465562 0.989539 0.317716
O67   O     O_3   0.505151 0.949556 0.066431 -0.690019
H59   H     H_    0.510015 0.892118 0.026366 0.316698
O68   O     O_3   0.600447 0.014295 0.949118 -0.682091
H60   H     H_    0.617484 0.965745 0.989543 0.317675
O69   O     O_3   0.344644 0.876948 0.589688 -0.562421
C101  C     C_3   0.371486 0.758622 0.589427 0.011416
H61   H     H_    0.404103 0.748357 0.542896 0.176198
H62   H     H_    0.330588 0.687521 0.583207 0.145495
C102  C     C_3   0.411751 0.735152 0.659057 -0.334463
H63   H     H_    0.376507 0.709408 0.701966 0.196640
H64   H     H_    0.448246 0.659352 0.653008 0.087429
H65   H     H_    0.440493 0.816346 0.678111 0.135356
O70   O     O_3   0.700078 0.761426 0.453498 -0.505649
C103  C     C_3   0.681841 0.703323 0.517379 0.029604
H66   H     H_    0.649356 0.759376 0.552236 0.140292
H67   H     H_    0.729492 0.675505 0.546618 0.121934
C104  C     C_3   0.640640 0.589673 0.500939 -0.321054
H68   H     H_    0.672599 0.528308 0.472016 0.122643
H69   H     H_    0.621852 0.547673 0.550349 0.122588
H70   H     H_    0.597029 0.605611 0.464666 0.258595
O71   O     O_3   0.844496 0.377358 0.589722 -0.566235
C105  C     C_3   0.871565 0.259191 0.589421 0.009139
H71   H     H_    0.904294 0.249221 0.542942 0.174863
H72   H     H_    0.830789 0.187884 0.583140 0.158362
C106  C     C_3   0.911825 0.235848 0.659071 -0.338241
H73   H     H_    0.940274 0.317272 0.678267 0.137766
H74   H     H_    0.876603 0.209520 0.701884 0.194591
H75   H     H_    0.948594 0.160467 0.652957 0.087054
O72   O     O_3   0.202314 0.258936 0.454432 -0.514787
C107  C     C_3   0.182620 0.202669 0.518429 0.026526
H76   H     H_    0.149553 0.259471 0.552275 0.145154
H77   H     H_    0.229703 0.175724 0.548971 0.122772
C108  C     C_3   0.141196 0.089392 0.501898 -0.320922
H78   H     H_    0.173177 0.027813 0.473223 0.124180
H79   H     H_    0.121864 0.047732 0.551182 0.125271
H80   H     H_    0.097985 0.105819 0.465174 0.257310
O73   O     O_3   0.993422 0.937508 0.371398 -0.520173
C109  C     C_3   0.065284 0.931142 0.358253 -0.004859
H81   H     H_    0.095362 0.876558 0.397151 0.092269
H82   H     H_    0.086206 0.024494 0.359259 0.200407
C110  C     C_3   0.077067 0.881897 0.283702 -0.332964
H83   H     H_    0.041921 0.926701 0.244937 0.163525
H84   H     H_    0.131294 0.898792 0.267896 0.122061
H85   H     H_    0.068399 0.782898 0.281483 0.128525
O74   O     O_3   0.932423 0.832487 0.653443 -0.540206
C111  C     C_3   0.878388 0.747820 0.665763 -0.009023
H86   H     H_    0.871274 0.678388 0.623125 0.121071
H87   H     H_    0.829850 0.797296 0.672500 0.134547
C112  C     C_3   0.889822 0.684825 0.736536 -0.342336
H88   H     H_    0.902744 0.752298 0.778659 0.160671
H89   H     H_    0.841713 0.635862 0.751308 0.105102
H90   H     H_    0.931682 0.617663 0.733407 0.167934
O75   O     O_3   0.494189 0.436956 0.371248 -0.519993
C113  C     C_3   0.565997 0.429815 0.358011 -0.004845
H91   H     H_    0.595912 0.374841 0.396837 0.087136
H92   H     H_    0.587210 0.522947 0.359041 0.200702
C114  C     C_3   0.577570 0.380629 0.283412 -0.333884
H93   H     H_    0.542656 0.426063 0.244688 0.164099
H94   H     H_    0.631892 0.396825 0.267673 0.121138
H95   H     H_    0.568442 0.281758 0.281066 0.126408
O76   O     O_3   0.431289 0.330950 0.652798 -0.541483
C115  C     C_3   0.377857 0.244570 0.664061 -0.009928
H96   H     H_    0.372662 0.174367 0.621649 0.121063
H97   H     H_    0.328414 0.292017 0.669089 0.140710
C116  C     C_3   0.388380 0.182917 0.735382 -0.343248
H98   H     H_    0.398817 0.251440 0.777587 0.160373
H99   H     H_    0.340781 0.131302 0.748848 0.109282
H100  H     H_    0.431680 0.118372 0.733827 0.165719
O77   O     O_3   0.019586 0.220412 0.520766 -0.754171
H101  H     H_    0.025157 0.217199 0.572923 0.297405
O78   O     O_3   0.064322 0.267144 0.386043 -0.667887
H102  H     H_    0.080718 0.299907 0.340472 0.315202
O79   O     O_3   0.519385 0.719709 0.521663 -0.755091
H103  H     H_    0.525476 0.716923 0.573783 0.296872
O80   O     O_3   0.562358 0.765330 0.386063 -0.664752
H104  H     H_    0.578336 0.797735 0.340244 0.316718

loop_
_geom_bond_atom_site_label_1
_geom_bond_atom_site_label_2
_ccdc_geom_bond_type
C93   H34   S    
C87   C91   D    
C113  C114  S    
C19   C20   A    
C116  H98   S    
C12   C23   A    
C111  H86   S    
Cr6   O6    S    
C14   C21   A    
C93   C94   S    
C103  H67   S    
C29   C33   A    
C109  H81   S    
Cr2   O46   S    
C83   H15   S    
C94   H36   S    
Cr3   O43   S    
C35   C36   A    
C101  H62   S    
C8    C92   S    
C47   C83   S    
C46   O34   A    
C87   H11   S    
Cr9   O13   S    
C13   O73   S    
C58   C61   D    
C21   C22   A    
C41   C49   D    
Cr6   O30   S    
C9    C26   A    
C98   H46   S    
C10   C21   A    
C25   C29   A    
C101  C102  S    
C95   H38   S    
C12   C27   A    
C27   C31   A    
O56   H32   S    
C52   H28   S    
C71   O51   A    
C28   C32   A    
C72   O52   A    
C86   C90   D    
C51   H27   S    
C40   C76   S    
O63   H55   S    
C55   O59   S    
O62   H54   S    
C16   C20   A    
O79   H103  S    
Cr4   O48   S    
C75   O11   A    
C18   H18   S    
C76   O12   A    
C108  H79   S    
C7    O71   S    
Cr2   O18   S    
C115  H96   S    
C82   H14   S    
C32   H23   S    
C104  H69   S    
Cr6   O18   S    
C116  H100  S    
C45   C81   S    
C8    O72   S    
Cr11  O11   S    
C63   O67   S    
C48   O32   A    
C114  H95   S    
Cr12  O20   S    
Cr1   O21   S    
C25   C26   A    
C112  H89   S    
Cr4   O24   S    
Cr7   O19   S    
C49   C53   S    
Cr1   O41   S    
C33   C34   A    
C51   C55   S    
C78   O14   A    
C80   O16   A    
O57   C93   S    
C102  H65   S    
C5    C89   S    
C69   O49   A    
Cr10  O38   S    
C7    C83   D    
Cr11  O35   S    
Cr7   O27   S    
C61   O65   S    
Cr11  O15   S    
Cr8   O20   S    
C91   O55   S    
C19   H19   S    
O70   C103  S    
C114  H93   S    
C73   O5    A    
C32   C36   A    
Cr1   O1    S    
C106  H73   S    
Cr4   O20   S    
O71   C105  S    
C45   O29   A    
C46   C82   S    
C23   C24   A    
C39   C75   S    
O65   H57   S    
Cr7   O51   S    
C92   O56   S    
C37   C53   D    
C44   C52   D    
C30   H21   S    
C2    O22   A    
C110  H83   S    
C3    O27   A    
Cr7   O7    S    
Cr5   O5    S    
O59   C97   S    
C96   H41   S    
C14   O74   S    
C30   C34   A    
Cr6   O26   S    
Cr1   O45   S    
O60   C99   S    
C6    C90   S    
C37   H1    S    
C100  H50   S    
C35   O79   S    
C99   H49   S    
C17   C18   A    
C2    C87   S    
C107  H77   S    
C42   C50   D    
Cr7   O31   S    
C10   C25   A    
C15   C24   A    
C26   C30   A    
C16   C23   A    
C97   H44   S    
C72   O48   A    
C11   C68   S    
C99   C100  S    
C38   C74   S    
C60   C80   S    
C62   O66   S    
C89   O53   S    
C107  C108  S    
C106  H75   S    
C97   C98   S    
C111  H87   S    
C13   C17   A    
C85   H9    S    
C105  H71   S    
C60   H7    S    
C75   O7    A    
C103  C104  S    
C109  H82   S    
C61   C62   S    
C20   H20   S    
C63   C64   S    
C111  C112  S    
C110  H85   S    
Cr5   O17   S    
Cr10  O10   S    
C102  H63   S    
C109  C110  S    
C53   O57   S    
Cr12  O16   S    
Cr1   O17   S    
O68   H60   S    
Cr4   O4    S    
C73   O9    A    
C98   H45   S    
C15   C19   A    
C74   O6    A    
C50   C54   S    
C95   H39   S    
C44   O64   S    
C100  H52   S    
C96   H42   S    
C90   O54   S    
C113  H91   S    
O76   C115  S    
C69   O45   A    
C70   O50   A    
C39   C55   D    
Cr9   O33   S    
C40   C56   D    
C95   C96   S    
O66   H58   S    
Cr9   O37   S    
Cr11  O19   S    
Cr12  O40   S    
C47   O31   A    
C1    C88   S    
C93   H33   S    
C36   O80   S    
C108  H78   S    
C3    C86   S    
C115  H97   S    
C56   O60   S    
C116  H99   S    
C41   O61   S    
O78   H102  S    
C57   C77   S    
C59   C79   S    
C85   C89   D    
C79   O15   A    
C103  H66   S    
C96   H40   S    
C15   O75   S    
C65   O37   A    
C115  C116  S    
Cr6   O50   S    
C94   H37   S    
C67   O3    A    
C112  H88   S    
C104  H70   S    
C5    C81   D    
C57   H6    S    
C38   C54   D    
C84   H16   S    
C7    C91   S    
C38   H2    S    
C3    O23   A    
C59   H8    S    
C44   C69   S    
Cr8   O32   S    
C1    O21   A    
C34   O78   S    
Cr10  O18   S    
C17   H17   S    
C4    O24   A    
C102  H64   S    
C31   C35   A    
Cr3   O19   S    
C54   O58   S    
C98   H47   S    
C77   O41   A    
Cr4   O44   S    
C6    O70   S    
C8    C84   D    
C43   O63   S    
O54   H30   S    
C68   O40   A    
C43   C51   D    
O53   H29   S    
C104  H68   S    
C11   C28   A    
C42   C71   S    
C13   C22   A    
O55   H31   S    
Cr8   O52   S    
C58   C78   S    
C40   H4    S    
C114  H94   S    
O77   H101  S    
C108  H80   S    
C45   O33   A    
Cr5   O29   S    
O80   H104  S    
C6    C82   D    
C58   H5    S    
O58   C95   S    
C14   C18   A    
C57   C62   D    
C42   O62   S    
C39   H3    S    
C59   C64   D    
C60   C63   D    
O69   C101  S    
C112  H90   S    
C9    C22   A    
C11   C24   A    
C71   O47   A    
C9    C66   S    
C64   O68   S    
Cr8   O8    S    
Cr9   O9    S    
C88   C92   D    
Cr12  O12   S    
C50   H26   S    
O72   C107  S    
Cr3   O23   S    
C2    O26   A    
C74   O10   A    
Cr11  O39   S    
C66   O2    A    
C29   H22   S    
C94   H35   S    
C31   H24   S    
C101  H61   S    
C76   O8    A    
C12   C67   S    
C79   O43   A    
C68   O4    A    
C80   O44   A    
C106  H74   S    
C70   O46   A    
C4    C85   S    
C67   O39   A    
O74   C111  S    
C49   H25   S    
C16   O76   S    
C48   C84   S    
Cr5   O25   S    
C88   H12   S    
C105  H72   S    
Cr12  O36   S    
C47   O35   A    
Cr8   O28   S    
C48   O36   A    
Cr2   O22   S    
Cr3   O3    S    
O61   H53   S    
Cr2   O42   S    
C41   C72   S    
C81   H13   S    
Cr3   O47   S    
C43   C70   S    
C110  H84   S    
C105  C106  S    
C33   O77   S    
C77   O13   A    
C27   C28   A    
O75   C113  S    
C10   C65   S    
C37   C73   S    
C66   O38   A    
Cr5   O49   S    
C86   H10   S    
C1    O25   A    
C100  H51   S    
Cr10  O14   S    
C99   H48   S    
C4    O28   A    
Cr9   O17   S    
Cr2   O2    S    
C113  H92   S    
C107  H76   S    
Cr10  O34   S    
C97   H43   S    
C46   O30   A    
O64   H56   S    
C78   O42   A    
C5    O69   S    
O67   H59   S    
C65   O1    A    
C52   C56   S    
O73   C109  S    
