data_mof_unit_28014.cif
_audit_creation_date              2012-12-10T20:39:58-0500
_audit_creation_method            fapswitch 2.2
_symmetry_space_group_name_H-M    P1
_symmetry_Int_Tables_number       1
_space_group_crystal_system       triclinic
_cell_length_a                    23.174168
_cell_length_b                    10.744166
_cell_length_c                    9.938166
_cell_angle_alpha                 88.466434
_cell_angle_beta                  90.694273
_cell_angle_gamma                 92.860426
_cell_volume                      2470.36290953

loop_
_atom_site_label
_atom_site_type_symbol
_atom_type_description
_atom_site_fract_x
_atom_site_fract_y
_atom_site_fract_z
_atom_type_partial_charge
C1    C     C_R   0.503869 0.260547 0.501022 0.880138
C2    C     C_R   0.969194 0.485890 0.229216 0.326942
C3    C     C_R   0.028662 0.516618 0.214214 0.340236
C4    C     C_R   0.061092 0.559279 0.327158 -0.188078
C5    C     C_R   0.032359 0.605393 0.438914 -0.040568
C6    C     C_R   0.064361 0.661529 0.545580 -0.046746
C7    C     C_R   0.035420 0.725757 0.645806 -0.075439
C8    C     C_R   0.974517 0.713053 0.652716 -0.038450
C9    C     C_R   0.121292 0.549705 0.336862 0.595975
C10   C     C_R   0.124499 0.648277 0.549392 0.496386
C11   C     C_R   0.251834 0.670763 0.422073 -0.003591
C12   C     C_R   0.389459 0.504850 0.498294 0.888546
C13   C     C_R   0.311302 0.648095 0.433386 -0.118374
C14   C     C_R   0.328425 0.532650 0.489818 -0.111017
C15   C     C_R   0.286960 0.438202 0.521288 -0.050351
C16   C     C_R   0.228827 0.458770 0.505469 -0.031190
C17   C     C_R   0.211233 0.574122 0.457427 0.176471
C18   C     C_R   0.766887 0.420889 0.531147 -0.013761
C19   C     C_R   0.705855 0.408523 0.537609 -0.138355
C20   C     C_R   0.673102 0.512125 0.500421 -0.139626
C21   C     C_R   0.700035 0.625927 0.454549 -0.061369
C22   C     C_R   0.759738 0.634326 0.443456 -0.065645
C23   C     C_R   0.501583 0.739944 0.498843 0.850747
C24   C     C_R   0.792789 0.534161 0.480372 0.201739
C25   C     C_R   0.524327 0.061673 0.618546 0.071823
C26   C     C_R   0.515549 0.130261 0.499818 -0.122969
C27   C     C_R   0.516420 0.069204 0.376400 -0.064129
C28   C     C_R   0.513661 0.940087 0.375303 -0.129498
C29   C     C_R   0.508647 0.872447 0.497493 -0.074236
C30   C     C_R   0.516750 0.934203 0.618533 -0.032447
C31   C     C_3   0.483047 0.930510 0.748020 0.171055
C32   C     C_3   0.497771 0.070943 0.752692 0.111506
C33   C     C_R   0.452968 0.451980 0.072688 0.107022
C34   C     C_R   0.610451 0.500181 0.500537 0.816527
C35   C     C_R   0.544126 0.554244 0.073928 -0.124409
C36   C     C_R   0.545400 0.554263 0.931438 0.487522
C37   C     C_R   0.451977 0.455827 0.929718 0.095203
C38   C     C_3   0.424958 0.326008 0.927278 0.081098
C39   C     C_3   0.431106 0.318481 0.080601 0.176530
C40   C     C_R   0.884217 0.605166 0.572645 0.583351
C41   C     C_R   0.879255 0.525028 0.351367 0.678932
C42   C     C_R   0.939859 0.532802 0.340755 -0.192366
C43   C     C_R   0.971787 0.594015 0.444759 -0.069419
C44   C     C_R   0.943317 0.638380 0.558061 -0.015733
H1    H     H_    0.781589 0.720154 0.407431 0.195986
H2    H     H_    0.514755 0.119910 0.281048 0.204245
H3    H     H_    0.511485 0.894330 0.279413 0.207231
H4    H     H_    0.459114 0.126013 0.745929 0.144526
H5    H     H_    0.579869 0.594672 0.131457 0.196222
H6    H     H_    0.454366 0.265029 0.880766 0.117892
H7    H     H_    0.466466 0.257704 0.112369 0.124854
H8    H     H_    0.299310 0.346731 0.553134 0.216908
H9    H     H_    0.197036 0.384714 0.530517 0.170365
N1    N     N_R   0.853925 0.552114 0.469204 -0.353256
N2    N     N_R   0.150829 0.592762 0.446743 -0.374150
N3    N     N_R   0.499610 0.499140 0.142800 -0.156975
N4    N     N_R   0.499610 0.499180 0.857150 -0.156412
O1    O     O_R   0.500010 0.316790 0.614690 -0.637802
O2    O     O_2   0.845290 0.494817 0.244975 -0.448395
O3    O     O_2   0.150126 0.490693 0.242503 -0.436410
O4    O     O_2   0.156451 0.683927 0.657390 -0.536799
O5    O     O_R   0.500000 0.316760 0.385350 -0.593982
O6    O     O_R   0.416160 0.499980 0.614700 -0.569005
O7    O     O_R   0.416150 0.499940 0.385360 -0.561574
O8    O     O_R   0.500000 0.683240 0.614650 -0.558683
O9    O     O_R   0.499990 0.683210 0.385310 -0.643650
O10   O     O_R   0.583850 0.500060 0.614640 -0.521332
O11   O     O_R   0.583840 0.500020 0.385300 -0.635143
O12   O     O_2   0.856965 0.623329 0.689228 -0.496283
Zn1   Zn    Zn3+2 0.500000 0.500020 0.653130 1.093677
Zn2   Zn    Zn3+2 0.500000 0.499980 0.346870 1.027596
S1    S     S_3+6 0.935828 0.368914 0.124945 0.147596
O13   O     O_2   0.901977 0.430257 0.013821 -0.200024
O14   O     O_2   0.980160 0.290520 0.064312 -0.204492
O15   O     O_3   0.891163 0.273636 0.217560 -0.472510
H10   H     H_    0.870492 0.219635 0.151573 0.398917
C45   C     C_2   0.675282 0.287575 0.576663 0.423879
H11   H     H_    0.634147 0.286345 0.627574 0.142760
O16   O     O_2   0.694293 0.188113 0.546920 -0.510419
C46   C     C_2   0.666495 0.737070 0.418520 0.541301
H12   H     H_    0.620274 0.735658 0.433199 0.047867
O17   O     O_2   0.690289 0.832584 0.372377 -0.503464
S2    S     S_3+6 0.406130 0.899879 0.724092 0.079897
O18   O     O_2   0.374939 0.951109 0.840621 -0.158679
O19   O     O_2   0.386107 0.962167 0.595750 -0.283546
O20   O     O_3   0.390770 0.745608 0.718162 -0.519467
H13   H     H_    0.348033 0.736638 0.715192 0.395710
C47   C     C_2   0.507959 0.853260 0.861634 0.584207
H14   H     H_    0.554111 0.854397 0.878285 0.148969
O21   O     O_2   0.476636 0.792319 0.939319 -0.519677
S3    S     S_3+6 0.552626 0.123084 0.872212 -0.019915
O22   O     O_2   0.563539 0.261683 0.857483 -0.305567
O23   O     O_2   0.532763 0.090811 0.012750 -0.347441
O24   O     O_3   0.614804 0.054148 0.843849 -0.522149
H15   H     H_    0.642256 0.087411 0.912735 0.411456
S4    S     S_3+6 0.059214 0.525494 0.049727 0.146440
O25   O     O_2   0.087399 0.406032 0.021392 -0.169930
O26   O     O_2   0.013338 0.547676 0.944852 -0.253455
O27   O     O_3   0.109167 0.644486 0.040562 -0.483589
H16   H     H_    0.129487 0.633486 0.954888 0.419862
S5    S     S_3+6 0.611163 0.619766 0.862771 0.049408
O28   O     O_2   0.601692 0.699731 0.739195 -0.335081
O29   O     O_2   0.642252 0.699844 0.965230 -0.296401
O30   O     O_3   0.653873 0.503103 0.827548 -0.519569
H17   H     H_    0.691651 0.544641 0.803853 0.391875
S6    S     S_3+6 0.354547 0.320008 0.845441 0.142233
O31   O     O_2   0.307080 0.257630 0.927411 -0.102471
O32   O     O_2   0.337070 0.449400 0.808421 -0.259054
O33   O     O_3   0.359399 0.235419 0.706581 -0.508207
H18   H     H_    0.392736 0.272847 0.656602 0.343055
S7    S     S_3+6 0.368568 0.282362 0.183132 0.125883
O34   O     O_2   0.386335 0.270769 0.328270 -0.313643
O35   O     O_2   0.325391 0.381728 0.166559 -0.215489
O36   O     O_3   0.338740 0.142436 0.141552 -0.423735
H19   H     H_    0.305819 0.127317 0.203532 0.412521
C48   C     C_2   0.068232 0.818032 0.730696 0.512745
H20   H     H_    0.103074 0.876252 0.686685 0.120573
O37   O     O_2   0.057781 0.828465 0.849777 -0.515496
C49   C     C_2   0.943646 0.788515 0.749437 0.600045
H21   H     H_    0.953353 0.781948 0.856294 0.141206
O38   O     O_2   0.907398 0.859811 0.709290 -0.502042
C50   C     C_2   0.230594 0.793985 0.377596 0.553351
H22   H     H_    0.188615 0.799397 0.328815 0.066749
O39   O     O_2   0.258302 0.890945 0.400296 -0.489520
C51   C     C_2   0.355514 0.740886 0.381371 0.621968
H23   H     H_    0.394368 0.760130 0.438921 0.050670
O40   O     O_2   0.349467 0.793389 0.271984 -0.464931
C52   C     C_2   0.803142 0.319484 0.584411 0.583797
H24   H     H_    0.786366 0.254162 0.661080 0.115163
O41   O     O_2   0.851996 0.307200 0.543950 -0.509771

loop_
_geom_bond_atom_site_label_1
_geom_bond_atom_site_label_2
_ccdc_geom_bond_type
C39   H7    S    
C28   H3    S    
S5    O28   D    
C46   H12   S    
C41   C42   A    
S7    O34   D    
C43   C44   A    
C52   H24   S    
O36   H19   S    
C7    C8    A    
C45   H11   S    
C26   C27   A    
C33   C39   S    
S2    O18   D    
C18   C24   A    
C5    C6    A    
C23   C29   S    
C23   O9    A    
C28   C29   A    
C37   C38   S    
C30   C31   S    
C12   O7    A    
C32   S3    S    
S6    O31   D    
C24   N1    S    
C15   C16   A    
S4    O27   S    
C31   S2    S    
C48   H20   S    
C18   C19   A    
O7    Zn2   S    
C19   C45   S    
C16   H9    S    
C18   C52   S    
C19   C20   A    
C16   C17   A    
S4    O26   D    
C35   H5    S    
C3    S4    S    
C9    N2    A    
N4    Zn1   S    
C17   N2    S    
C13   C51   S    
C25   C32   S    
C39   S7    S    
C51   H23   S    
C5    C43   A    
S5    O29   D    
C21   C22   A    
C1    O5    A    
C32   H4    S    
C1    O1    A    
S1    O15   S    
C2    S1    S    
O30   H17   S    
C49   O38   D    
C40   O12   S    
C41   O2    S    
S1    O14   D    
C36   N4    A    
C34   O11   A    
S3    O22   D    
C12   O6    A    
O20   H13   S    
O1    Zn1   S    
C25   C26   A    
C33   C37   A    
C36   S5    S    
C35   C36   A    
C7    C48   S    
C38   S6    S    
O15   H10   S    
C29   C30   A    
S3    O23   D    
O9    Zn2   S    
O6    Zn1   S    
C40   C44   A    
N3    Zn2   S    
S4    O25   D    
C22   H1    S    
C45   O16   D    
S7    O35   D    
C15   H8    S    
C20   C21   A    
C10   N2    A    
C27   H2    S    
C46   O17   D    
S2    O19   D    
C12   C14   S    
S5    O30   S    
C40   N1    A    
C1    C26   S    
C22   C24   A    
C10   O4    S    
C42   C43   A    
C50   O39   D    
C3    C4    A    
C25   C30   A    
C11   C17   A    
C31   C47   S    
C35   N3    A    
C31   C32   S    
C8    C44   A    
C47   O21   D    
S1    O13   D    
C52   O41   D    
C34   O10   A    
C6    C10   A    
C49   H21   S    
C6    C7    A    
C38   H6    S    
O27   H16   S    
C9    O3    S    
C23   O8    A    
C2    C3    A    
C50   H22   S    
C20   C34   S    
O33   H18   S    
S3    O24   S    
C11   C13   A    
C33   N3    A    
C38   C39   S    
S6    O32   D    
C2    C42   A    
O11   Zn2   S    
C21   C46   S    
C48   O37   D    
O5    Zn2   S    
S7    O36   S    
O24   H15   S    
C41   N1    A    
C11   C50   S    
C4    C5    A    
S2    O20   S    
C47   H14   S    
C27   C28   A    
C51   O40   D    
C14   C15   A    
O10   Zn1   S    
C4    C9    A    
C13   C14   A    
C37   N4    A    
O8    Zn1   S    
C8    C49   S    
S6    O33   S    
