data_mof_unit_25042.cif
_audit_creation_date              2012-12-11T15:39:18-0500
_audit_creation_method            fapswitch 2.2
_symmetry_space_group_name_H-M    P1
_symmetry_Int_Tables_number       1
_space_group_crystal_system       triclinic
_cell_length_a                    17.364512
_cell_length_b                    24.455087
_cell_length_c                    14.920892
_cell_angle_alpha                 89.466614
_cell_angle_beta                  125.596166
_cell_angle_gamma                 90.841326
_cell_volume                      5151.63091001

loop_
_atom_site_label
_atom_site_type_symbol
_atom_type_description
_atom_site_fract_x
_atom_site_fract_y
_atom_site_fract_z
_atom_type_partial_charge
C1    C     C_R   0.311246 0.373175 0.907104 -0.085286
C2    C     C_R   0.650411 0.349014 0.090584 -0.093008
C3    C     C_R   0.809714 0.875608 0.908743 -0.093467
C4    C     C_R   0.158204 0.852211 0.091658 -0.156218
C5    C     C_R   0.320775 0.646303 0.996040 0.000059
C6    C     C_R   0.617229 0.684902 0.000894 0.021644
C7    C     C_R   0.812660 0.139523 0.996173 0.003479
C8    C     C_R   0.112382 0.185778 0.000454 0.033825
C9    C     C_R   0.469093 0.498974 0.296179 0.050920
C10   C     C_R   0.432163 0.498977 0.631930 0.044933
C11   C     C_R   0.066996 0.999496 0.368842 0.032300
C12   C     C_R   0.050116 0.000378 0.724866 0.056089
C13   C     C_R   0.198648 0.501136 0.631458 0.099244
C14   C     C_R   0.824952 0.501973 0.275117 0.088140
C15   C     C_R   0.698602 0.000918 0.631510 0.098101
C16   C     C_R   0.324920 0.002195 0.275726 0.087720
C17   C     C_R   0.065468 0.553442 0.483543 0.140650
C18   C     C_R   0.972559 0.553973 0.394673 0.142952
C19   C     C_R   0.565333 0.053268 0.484167 0.148506
C20   C     C_R   0.472484 0.054028 0.395284 0.150242
C21   C     C_R   0.117360 0.505277 0.516097 -0.049964
C22   C     C_R   0.927816 0.506191 0.334769 -0.044490
C23   C     C_R   0.616929 0.004982 0.516424 -0.047915
C24   C     C_R   0.427597 0.006375 0.335078 -0.044205
C25   C     C_R   0.082274 0.461999 0.438681 -0.019669
C26   C     C_R   0.985678 0.462335 0.346709 -0.033297
C27   C     C_R   0.581469 0.961684 0.438957 -0.024250
C28   C     C_R   0.485077 0.962398 0.346720 -0.040405
C29   C     C_3   0.946579 0.592802 0.450184 -0.496054
C30   C     C_3   0.048984 0.592240 0.547744 -0.486604
C31   C     C_3   0.446555 0.092721 0.451030 -0.500306
C32   C     C_3   0.548937 0.091936 0.548661 -0.492221
C33   C     C_R   0.238004 0.689067 0.061475 -0.093371
C34   C     C_R   0.719744 0.764203 0.105386 -0.164894
C35   C     C_R   0.681989 0.203773 0.892868 -0.167370
C36   C     C_R   0.212687 0.265840 0.103710 -0.166286
C37   C     C_R   0.635778 0.248151 0.894513 -0.259468
C38   C     C_R   0.263973 0.309085 0.102840 -0.254383
C39   C     C_R   0.193453 0.734380 0.063597 -0.279241
C40   C     C_R   0.767155 0.809979 0.105905 -0.258220
C41   C     C_R   0.647367 0.263023 0.992086 0.060976
C42   C     C_R   0.240588 0.329917 0.002013 0.070738
C43   C     C_R   0.177043 0.778152 0.994142 0.037088
C44   C     C_R   0.739452 0.834467 0.006042 0.071420
C45   C     C_R   0.409722 0.634739 0.088949 0.473776
C46   C     C_R   0.555048 0.652858 0.909342 0.500294
C47   C     C_R   0.903144 0.128265 0.089409 0.495596
C48   C     C_R   0.052252 0.153285 0.909143 0.475848
C49   C     C_R   0.693435 0.227479 0.083728 0.504922
C50   C     C_R   0.150538 0.318050 0.905073 0.496626
C51   C     C_R   0.203251 0.777807 0.921257 0.535661
C52   C     C_R   0.649818 0.821644 0.909501 0.495966
C53   C     C_R   0.246357 0.731940 0.918657 -0.351864
C54   C     C_R   0.602072 0.774989 0.909618 -0.312926
C55   C     C_R   0.741561 0.182595 0.081631 -0.277286
C56   C     C_R   0.099035 0.274072 0.906717 -0.311219
C57   C     C_R   0.264139 0.688640 0.989340 0.153137
C58   C     C_R   0.642988 0.742835 0.005266 0.133082
C59   C     C_R   0.741868 0.173797 0.989319 0.128782
C60   C     C_R   0.137023 0.243667 0.003815 0.126273
C61   C     C_R   0.389703 0.547422 0.463739 -0.165271
C62   C     C_R   0.402520 0.547475 0.380797 -0.171372
C63   C     C_R   0.105530 0.049798 0.626338 -0.158911
C64   C     C_R   0.108471 0.049530 0.535657 -0.159841
C65   C     C_R   0.422984 0.498240 0.351844 0.142457
C66   C     C_R   0.397875 0.498162 0.517007 0.134625
C67   C     C_R   0.100041 0.999820 0.484159 0.136146
C68   C     C_R   0.093645 0.000403 0.665378 0.138192
C69   C     C_R   0.406752 0.448463 0.385630 -0.164799
C70   C     C_R   0.393793 0.448416 0.468453 -0.155770
C71   C     C_R   0.108434 0.950518 0.537632 -0.169274
C72   C     C_R   0.106053 0.950839 0.628814 -0.156728
C73   C     C_R   0.498099 0.454010 0.268290 -0.111906
C74   C     C_R   0.450475 0.453831 0.696989 -0.116017
C75   C     C_R   0.049988 0.954275 0.304644 -0.137034
C76   C     C_R   0.017908 0.954505 0.749644 -0.100319
C77   C     C_R   0.247672 0.545883 0.696048 -0.151474
C78   C     C_R   0.766901 0.546726 0.245162 -0.132911
C79   C     C_R   0.747878 0.045717 0.695721 -0.153272
C80   C     C_R   0.266802 0.046881 0.245307 -0.136377
C81   C     C_R   0.493900 0.544934 0.263803 -0.179844
C82   C     C_R   0.450404 0.544852 0.695294 -0.132442
C83   C     C_R   0.051343 0.044900 0.305083 -0.083332
C84   C     C_R   0.020847 0.045999 0.752293 -0.165625
C85   C     C_R   0.244146 0.455069 0.694841 -0.108950
C86   C     C_R   0.769356 0.455178 0.251331 -0.122550
C87   C     C_R   0.744091 0.954934 0.695074 -0.107211
C88   C     C_R   0.269632 0.955375 0.252535 -0.112742
C89   C     C_R   0.312752 0.626573 0.905289 -0.234858
C90   C     C_R   0.647560 0.652094 0.091619 -0.276059
C91   C     C_R   0.809942 0.123188 0.905920 -0.226827
C92   C     C_R   0.145277 0.152640 0.091354 -0.276841
C93   C     C_R   0.405979 0.368809 0.090556 -0.137226
C94   C     C_R   0.557530 0.349799 0.907038 -0.154181
C95   C     C_R   0.902070 0.876920 0.092963 -0.153744
C96   C     C_R   0.063807 0.852185 0.907236 -0.054693
C97   C     C_R   0.314779 0.357401 0.999165 0.082528
C98   C     C_R   0.620546 0.318341 0.997714 0.100560
C99   C     C_R   0.811700 0.863763 0.001812 0.093979
C100  C     C_R   0.134434 0.825316 0.998502 0.108515
H1    H     H_    0.254229 0.368014 0.821350 0.163205
H2    H     H_    0.692666 0.335773 0.175428 0.159019
H3    H     H_    0.752337 0.869212 0.823426 0.159509
H4    H     H_    0.203145 0.838035 0.175976 0.102458
H5    H     H_    0.924388 0.633291 0.408508 0.185047
H6    H     H_    0.059715 0.573351 0.622310 0.207281
H7    H     H_    0.424543 0.133292 0.409681 0.186915
H8    H     H_    0.559545 0.072884 0.623042 0.207126
H9    H     H_    0.898507 0.574236 0.468843 0.205092
H10   H     H_    0.085439 0.632293 0.561607 0.183707
H11   H     H_    0.398336 0.074105 0.469423 0.203568
H12   H     H_    0.585570 0.131964 0.562938 0.186144
H13   H     H_    0.253905 0.655138 0.116830 0.125789
H14   H     H_    0.750579 0.742884 0.182658 0.123249
H15   H     H_    0.677914 0.197340 0.818684 0.126843
H16   H     H_    0.239901 0.246561 0.182093 0.122479
H17   H     H_    0.598966 0.273513 0.821515 0.140254
H18   H     H_    0.326949 0.321730 0.181081 0.132055
H19   H     H_    0.172687 0.735686 0.119400 0.143616
H20   H     H_    0.831542 0.821422 0.183856 0.136504
H21   H     H_    0.270732 0.731249 0.866270 0.134762
H22   H     H_    0.536779 0.763094 0.833529 0.197920
H23   H     H_    0.782277 0.156555 0.153437 0.170629
H24   H     H_    0.033640 0.262307 0.830625 0.200895
H25   H     H_    0.384606 0.586404 0.493318 0.116982
H26   H     H_    0.405187 0.586473 0.348010 0.126356
H27   H     H_    0.102655 0.088886 0.657400 0.119709
H28   H     H_    0.107806 0.088557 0.500773 0.118635
H29   H     H_    0.412983 0.409545 0.356726 0.105473
H30   H     H_    0.392141 0.409396 0.501864 0.111590
H31   H     H_    0.107676 0.911414 0.503968 0.109396
H32   H     H_    0.104208 0.911910 0.662405 0.132207
H33   H     H_    0.503712 0.412860 0.296969 0.082880
H34   H     H_    0.433289 0.411607 0.671509 0.086621
H35   H     H_    0.068363 0.912492 0.332610 0.087403
H36   H     H_    0.025393 0.912360 0.736283 0.112135
H37   H     H_    0.241474 0.587560 0.667952 0.097205
H38   H     H_    0.786100 0.589202 0.249376 0.114597
H39   H     H_    0.741649 0.087342 0.667324 0.104663
H40   H     H_    0.285786 0.089399 0.249244 0.116275
H41   H     H_    0.491462 0.586279 0.284437 0.147354
H42   H     H_    0.433828 0.586384 0.666279 0.110154
H43   H     H_    0.074476 0.085848 0.335524 0.100520
H44   H     H_    0.034105 0.088314 0.744433 0.126506
H45   H     H_    0.231187 0.413198 0.667022 0.103396
H46   H     H_    0.791718 0.413160 0.266218 0.108567
H47   H     H_    0.730911 0.912974 0.667740 0.103126
H48   H     H_    0.292804 0.913557 0.269448 0.105820
H49   H     H_    0.256069 0.633046 0.819396 0.132469
H50   H     H_    0.683780 0.665412 0.175991 0.125346
H51   H     H_    0.751731 0.125959 0.819993 0.128095
H52   H     H_    0.181858 0.165750 0.175896 0.121317
H53   H     H_    0.437977 0.355012 0.173312 0.092759
H54   H     H_    0.510483 0.336711 0.822202 0.095651
H55   H     H_    0.929799 0.873389 0.178706 0.101999
H56   H     H_    0.021089 0.837646 0.823056 0.101527
N1    N     N_R   0.394180 0.396910 0.943210 -0.056224
N2    N     N_R   0.605820 0.396910 0.056790 -0.053780
N3    N     N_R   0.894180 0.896910 0.943210 -0.059305
N4    N     N_R   0.105820 0.896910 0.056790 -0.041018
N5    N     N_R   0.450950 0.603070 0.056740 -0.097778
N6    N     N_R   0.549050 0.603070 0.943260 -0.096691
N7    N     N_R   0.950950 0.103070 0.056740 -0.102378
N8    N     N_R   0.049050 0.103070 0.943260 -0.094751
N9    N     N_R   0.525650 0.471570 0.206150 -0.036946
N10   N     N_R   0.474350 0.471570 0.793850 -0.038454
N11   N     N_R   0.025650 0.971570 0.206150 -0.038824
N12   N     N_R   0.974350 0.971570 0.793850 -0.043571
N13   N     N_R   0.319480 0.528420 0.793810 -0.037491
N14   N     N_R   0.680520 0.528420 0.206190 -0.041103
N15   N     N_R   0.819480 0.028420 0.793810 -0.038128
N16   N     N_R   0.180520 0.028420 0.206190 -0.042654
N17   N     N_R   0.525640 0.528390 0.206120 -0.046117
N18   N     N_R   0.474360 0.528390 0.793880 -0.046897
N19   N     N_R   0.025640 0.028390 0.206120 -0.049237
N20   N     N_R   0.974360 0.028390 0.793880 -0.047845
N21   N     N_R   0.319490 0.471590 0.793840 -0.044691
N22   N     N_R   0.680510 0.471590 0.206160 -0.045679
N23   N     N_R   0.819490 0.971590 0.793840 -0.044682
N24   N     N_R   0.180510 0.971590 0.206160 -0.043059
N25   N     N_R   0.394130 0.603080 0.943110 -0.063129
N26   N     N_R   0.605870 0.603080 0.056890 -0.059419
N27   N     N_R   0.894130 0.103080 0.943110 -0.062250
N28   N     N_R   0.105870 0.103080 0.056890 -0.057038
N29   N     N_R   0.450990 0.396900 0.056840 -0.039410
N30   N     N_R   0.549010 0.396900 0.943160 -0.040375
N31   N     N_R   0.950990 0.896900 0.056840 -0.042796
N32   N     N_R   0.049010 0.896900 0.943160 -0.051542
Ni1   Ni    Ni4+2 0.434860 0.434850 0.869700 0.211568
Ni2   Ni    Ni4+2 0.565140 0.434850 0.130300 0.225873
Ni3   Ni    Ni4+2 0.934860 0.934850 0.869700 0.212901
Ni4   Ni    Ni4+2 0.065140 0.934850 0.130300 0.211131
Ni5   Ni    Ni4+2 0.565130 0.565140 0.130240 0.200172
Ni6   Ni    Ni4+2 0.434870 0.565140 0.869760 0.202928
Ni7   Ni    Ni4+2 0.065130 0.065140 0.130240 0.196767
Ni8   Ni    Ni4+2 0.934870 0.065140 0.869760 0.212184
O1    O     O_3   0.692751 0.237741 0.174064 -0.787368
H57   H     H_    0.728486 0.208758 0.230047 0.319970
O2    O     O_3   0.115926 0.347888 0.810042 -0.786667
H58   H     H_    0.052045 0.333875 0.750633 0.319878
O3    O     O_3   0.190456 0.823421 0.858435 -0.784761
H59   H     H_    0.213240 0.815720 0.812440 0.311009
O4    O     O_3   0.612401 0.853255 0.815964 -0.782812
H60   H     H_    0.549421 0.838295 0.756295 0.317635
O5    O     O_3   0.457573 0.666489 0.182512 -0.772165
H61   H     H_    0.526123 0.659749 0.220305 0.305424
O6    O     O_3   0.487568 0.673068 0.806425 -0.802952
H62   H     H_    0.432690 0.647574 0.771808 0.302305
O7    O     O_3   0.943765 0.151353 0.191268 -0.780681
H63   H     H_    0.012262 0.155230 0.224412 0.301076
O8    O     O_3   0.984202 0.172577 0.805349 -0.801166
H64   H     H_    0.937127 0.142787 0.764301 0.310395
C101  C     C_1   0.142951 0.417620 0.453482 0.062979
N33   N     N_1   0.191404 0.382194 0.464850 -0.100264
C102  C     C_1   0.946421 0.417491 0.268843 0.077591
N34   N     N_1   0.915185 0.381650 0.206594 -0.076138
C103  C     C_1   0.641284 0.916717 0.454133 0.066959
N35   N     N_1   0.688947 0.880763 0.465735 -0.089621
C104  C     C_1   0.445513 0.917780 0.268262 0.086135
N36   N     N_1   0.414011 0.882144 0.205532 -0.061525

loop_
_geom_bond_atom_site_label_1
_geom_bond_atom_site_label_2
_ccdc_geom_bond_type
C79   H39   S    
O4    H60   S    
C77   H37   S    
C83   N19   A    
O3    H59   S    
C96   N32   A    
C19   C20   A    
C70   H30   S    
C90   H50   S    
N15   N23   A    
C8    C48   A    
C76   H36   S    
C95   N31   A    
N29   Ni2   S    
C49   O1    S    
C101  N33   T    
C65   C69   A    
C4    C100  A    
N11   Ni4   S    
C12   C68   S    
C33   C39   A    
N12   Ni3   S    
C87   H47   S    
C25   C101  S    
N14   N22   A    
N32   Ni3   S    
C34   C40   A    
C56   H24   S    
C29   H9    S    
C35   C37   A    
N1    N29   A    
C38   C42   A    
C55   C59   A    
C69   C70   A    
N2    Ni2   S    
N22   Ni2   S    
C44   C99   S    
C95   C99   A    
C94   N30   A    
C94   C98   A    
N3    N31   A    
N2    N30   A    
C78   N14   A    
C12   C84   A    
C35   C59   A    
C63   H27   S    
C79   N15   A    
C45   N5    A    
C61   C66   A    
C41   C49   A    
C15   C79   A    
C82   N18   A    
C11   C67   S    
C64   H28   S    
C92   H52   S    
C45   O5    S    
C35   H15   S    
C8    C92   A    
C23   C27   A    
C80   H40   S    
C6    C46   A    
C40   C44   A    
C95   H55   S    
C68   C72   A    
C53   H21   S    
C47   N7    A    
N16   N24   A    
C81   H41   S    
C54   H22   S    
O2    H58   S    
C16   C24   S    
C30   H6    S    
C3    N3    A    
C17   C30   S    
C29   H5    S    
C61   C62   A    
C9    C73   A    
C7    C59   S    
C86   N22   A    
C19   C32   S    
C86   H46   S    
N13   N21   A    
N16   Ni7   S    
C52   C54   A    
C88   N24   A    
C55   H23   S    
C10   C66   S    
C46   O6    S    
C13   C77   A    
C89   H49   S    
N10   N18   A    
N21   Ni1   S    
C63   C64   A    
N7    N27   A    
O6    H62   S    
C84   H44   S    
C90   N26   A    
C13   C21   S    
C43   C100  S    
C14   C86   A    
O7    H63   S    
N24   Ni4   S    
C42   C97   S    
C1    C97   A    
C104  N36   T    
C62   H26   S    
C85   N21   A    
C53   C57   A    
C39   C43   A    
C11   C83   A    
C103  N35   T    
O5    H61   S    
C5    C45   A    
C10   C82   A    
C17   C21   A    
C56   C60   A    
C26   C102  S    
C51   C53   A    
C89   N25   A    
C19   C23   A    
C102  N34   T    
C64   C67   A    
C29   C30   S    
N8    N28   A    
N19   Ni7   S    
N3    Ni3   S    
C74   H34   S    
O8    H64   S    
C48   O8    S    
N7    Ni7   S    
C94   H54   S    
C7    C91   A    
N6    Ni6   S    
C9    C65   S    
C17   C18   A    
C88   H48   S    
N5    Ni5   S    
C1    N1    A    
N26   Ni5   S    
N20   Ni8   S    
C34   C58   A    
N25   Ni6   S    
N4    Ni4   S    
N31   Ni4   S    
C42   C50   A    
C73   N9    A    
C40   H20   S    
C87   N23   A    
C73   H33   S    
N18   Ni6   S    
C28   C104  S    
C12   C76   A    
N17   Ni5   S    
C14   C22   S    
C20   C31   S    
C80   N16   A    
C96   H56   S    
N27   Ni8   S    
C36   H16   S    
C93   C97   A    
C74   N10   A    
C36   C38   A    
N11   N19   A    
C54   C58   A    
C3    H3    S    
N12   N20   A    
C77   N13   A    
C21   C25   A    
C63   C68   A    
C33   C57   A    
C32   H12   S    
C62   C65   A    
C91   N27   A    
C18   C22   A    
C30   H10   S    
C31   H7    S    
C6    C90   A    
C32   H8    S    
C31   C32   S    
C92   N28   A    
C24   C28   A    
C85   H45   S    
N15   Ni8   S    
C36   C60   A    
C49   C55   A    
C4    N4    A    
N14   Ni5   S    
C75   N11   A    
C50   O2    S    
N8    Ni8   S    
C4    H4    S    
C27   C103  S    
N13   Ni6   S    
C48   N8    A    
C8    C60   S    
C34   H14   S    
N28   Ni7   S    
C7    C47   A    
C33   H13   S    
N6    N26   A    
C5    C57   S    
C52   O4    S    
N10   Ni1   S    
N30   Ni1   S    
C93   H53   S    
C25   C26   A    
C71   C72   A    
C11   C75   A    
C50   C56   A    
C78   H38   S    
C72   H32   S    
C91   H51   S    
C10   C74   A    
C44   C52   A    
C66   C70   A    
C75   H35   S    
C1    H1    S    
C43   C51   A    
C39   H19   S    
C96   C100  A    
C15   C23   S    
C37   H17   S    
C81   N17   A    
C76   N12   A    
C31   H11   S    
C67   C71   A    
C6    C58   S    
C14   C78   A    
C37   C41   A    
O1    H57   S    
N1    Ni1   S    
N9    Ni2   S    
C18   C29   S    
C82   H42   S    
C38   H18   S    
C3    C99   A    
C47   O7    S    
N23   Ni3   S    
C2    N2    A    
C2    C98   A    
C71   H31   S    
C69   H29   S    
C22   C26   A    
C15   C87   A    
C13   C85   A    
C27   C28   A    
C16   C88   A    
C2    H2    S    
C41   C98   S    
C83   H43   S    
C61   H25   S    
C16   C80   A    
C84   N20   A    
N9    N17   A    
C46   N6    A    
C20   C24   A    
N5    N25   A    
C5    C89   A    
C51   O3    S    
C9    C81   A    
N4    N32   A    
C93   N29   A    
