data_mof_unit_53545.cif
_audit_creation_date              2012-10-26T19:51:33-0400
_audit_creation_method            fapswitch 2.2
_symmetry_space_group_name_H-M    P1
_symmetry_Int_Tables_number       1
_space_group_crystal_system       triclinic
_cell_length_a                    19.415262
_cell_length_b                    18.427664
_cell_length_c                    9.061085
_cell_angle_alpha                 90.00046
_cell_angle_beta                  92.356305
_cell_angle_gamma                 89.999883
_cell_volume                      3239.1151149

loop_
_atom_site_label
_atom_site_type_symbol
_atom_type_description
_atom_site_fract_x
_atom_site_fract_y
_atom_site_fract_z
_atom_type_partial_charge
C1    C     C_R   0.367691 0.499948 0.499830 0.535818
C2    C     C_R   0.485620 0.201830 0.371020 -0.112407
C3    C     C_R   0.500000 0.838478 0.500001 -0.071560
C4    C     C_R   0.499998 0.161447 0.500000 -0.074278
C5    C     C_R   0.540150 0.961583 0.607174 0.018079
C6    C     C_R   0.452945 0.038254 0.406489 0.021462
C7    C     C_R   0.459849 0.961581 0.392825 0.018082
C8    C     C_R   0.547053 0.038255 0.593510 0.021457
C9    C     C_R   0.499999 0.078310 0.500000 -0.063974
C10   C     C_R   0.500000 0.921571 0.500000 -0.070353
C11   C     C_R   0.499838 0.499997 0.220894 0.554322
C12   C     C_R   0.632309 0.499948 0.500174 0.535817
C13   C     C_R   0.500162 0.499997 0.779106 0.554316
C14   C     C_1   0.499940 0.499969 0.065625 -0.026497
C15   C     C_1   0.500060 0.499970 0.934375 -0.026500
C16   C     C_R   0.744091 0.434110 0.520164 -0.108780
C17   C     C_R   0.255464 0.563877 0.522356 -0.098789
C18   C     C_R   0.255908 0.434109 0.479903 -0.108787
C19   C     C_R   0.744538 0.563872 0.477646 -0.098791
C20   C     C_R   0.816311 0.431918 0.519378 0.014755
C21   C     C_R   0.183147 0.564159 0.523646 0.015051
C22   C     C_R   0.183688 0.431920 0.480705 0.014754
C23   C     C_R   0.444165 0.722251 0.442374 0.149327
C24   C     C_R   0.816856 0.564152 0.476379 0.015048
C25   C     C_R   0.852487 0.497601 0.498004 0.024631
C26   C     C_R   0.147514 0.497607 0.502048 0.024621
C27   C     C_R   0.708164 0.499452 0.499658 -0.023211
C28   C     C_R   0.291836 0.499453 0.500365 -0.023217
C29   C     C_R   0.961985 0.496384 0.365346 -0.128193
C30   C     C_R   0.038018 0.496328 0.634705 -0.128210
C31   C     C_R   0.033720 0.496833 0.366422 -0.126771
C32   C     C_R   0.966283 0.496769 0.633630 -0.126778
C33   C     C_R   0.071800 0.496766 0.501097 0.014734
C34   C     C_R   0.523508 0.277675 0.622466 0.147866
C35   C     C_R   0.928202 0.496758 0.498954 0.014743
C36   C     C_3   0.856293 0.360996 0.540018 -0.273117
C37   C     C_3   0.813056 0.292122 0.554440 -0.441873
C38   C     C_3   0.142355 0.633783 0.547431 -0.279347
C39   C     C_3   0.184440 0.703601 0.565319 -0.426949
C40   C     C_3   0.143704 0.360998 0.460113 -0.273113
C41   C     C_3   0.186937 0.292121 0.445697 -0.441882
C42   C     C_3   0.857649 0.633774 0.452582 -0.279381
C43   C     C_3   0.815572 0.703606 0.434891 -0.426918
C44   C     C_2   0.389314 0.687813 0.348316 0.252495
C45   C     C_R   0.555835 0.722251 0.557628 0.149330
C46   C     C_2   0.564666 0.311861 0.744252 0.281279
C47   C     C_2   0.610683 0.687814 0.651691 0.252501
C48   C     C_2   0.435348 0.311861 0.255731 0.281288
C49   C     C_2   0.571670 0.923362 0.737694 0.277569
C50   C     C_2   0.394273 0.076355 0.329718 0.272197
C51   C     C_2   0.428330 0.923359 0.262305 0.277569
C52   C     C_2   0.605725 0.076357 0.670280 0.272206
C53   C     C_R   0.476495 0.277674 0.377532 0.147860
C54   C     C_R   0.440699 0.798164 0.461119 -0.114276
C55   C     C_R   0.514378 0.201831 0.628979 -0.112396
C56   C     C_R   0.559300 0.798164 0.538884 -0.114274
Cu1   Cu    Cu3+1 0.500000 0.573360 0.500000 0.924426
Cu2   Cu    Cu3+1 0.500000 0.426640 0.500000 0.950028
H1    H     H_    0.715028 0.385080 0.537341 0.134405
H2    H     H_    0.523091 0.174494 0.733537 0.193050
H3    H     H_    0.607477 0.825725 0.563954 0.184792
H4    H     H_    0.476907 0.174492 0.266463 0.193039
H5    H     H_    0.781949 0.294831 0.654481 0.156517
H6    H     H_    0.778905 0.284181 0.454358 0.162158
H7    H     H_    0.847830 0.244422 0.565726 0.154920
H8    H     H_    0.889415 0.353468 0.444001 0.156512
H9    H     H_    0.890574 0.365448 0.640821 0.151316
H10   H     H_    0.220414 0.700155 0.663597 0.161270
H11   H     H_    0.213324 0.714290 0.464469 0.214160
H12   H     H_    0.284227 0.613509 0.539491 0.165291
H13   H     H_    0.149031 0.749980 0.581616 0.153564
H14   H     H_    0.105282 0.641429 0.451919 0.159436
H15   H     H_    0.112178 0.627374 0.648138 0.152437
H16   H     H_    0.218036 0.294820 0.345643 0.156507
H17   H     H_    0.221096 0.284188 0.545770 0.162156
H18   H     H_    0.152161 0.244423 0.434440 0.154919
H19   H     H_    0.110592 0.353481 0.556151 0.156502
H20   H     H_    0.109411 0.365442 0.359325 0.151337
H21   H     H_    0.779575 0.700215 0.336643 0.161277
H22   H     H_    0.786716 0.714247 0.535799 0.214193
H23   H     H_    0.284970 0.385076 0.462749 0.134415
H24   H     H_    0.850985 0.749987 0.418652 0.153560
H25   H     H_    0.894767 0.641388 0.548029 0.159443
H26   H     H_    0.887776 0.627386 0.351800 0.152418
H27   H     H_    0.399153 0.638590 0.288256 0.159212
H28   H     H_    0.597546 0.357756 0.722848 0.129977
H29   H     H_    0.600844 0.638591 0.711746 0.159215
H30   H     H_    0.402455 0.357747 0.277131 0.129956
H31   H     H_    0.540538 0.886080 0.799431 0.109720
H32   H     H_    0.363128 0.113629 0.391448 0.102911
H33   H     H_    0.459463 0.886075 0.200571 0.109718
H34   H     H_    0.715775 0.613501 0.460475 0.165272
H35   H     H_    0.636870 0.113629 0.608549 0.102919
H36   H     H_    0.932727 0.496265 0.260949 0.110890
H37   H     H_    0.067276 0.496165 0.739102 0.110898
H38   H     H_    0.059654 0.497191 0.262837 0.111299
H39   H     H_    0.940350 0.497081 0.737216 0.111288
H40   H     H_    0.392523 0.825725 0.436049 0.184790
N1    N     N_R   0.500000 0.683620 0.500000 -0.280679
N2    N     N_R   0.500000 0.316380 0.500000 -0.283500
O1    O     O_R   0.400190 0.561980 0.499980 -0.520825
O2    O     O_2   0.564223 0.287639 0.869694 -0.476076
O3    O     O_2   0.667346 0.716013 0.669095 -0.552277
O4    O     O_2   0.435819 0.287652 0.130280 -0.476068
O5    O     O_2   0.632977 0.929159 0.771177 -0.438827
O6    O     O_2   0.383153 0.070496 0.196651 -0.435110
O7    O     O_2   0.367023 0.929154 0.228820 -0.438826
O8    O     O_2   0.616844 0.070501 0.803347 -0.435099
O9    O     O_R   0.599810 0.438020 0.500020 -0.521786
O10   O     O_R   0.599810 0.561980 0.500020 -0.520822
O11   O     O_R   0.400190 0.438020 0.499980 -0.521783
O12   O     O_R   0.500000 0.561940 0.288400 -0.520469
O13   O     O_R   0.500000 0.438060 0.711600 -0.492901
O14   O     O_R   0.500000 0.561940 0.711600 -0.520469
O15   O     O_R   0.500000 0.438060 0.288400 -0.492886
O16   O     O_2   0.332651 0.716011 0.330921 -0.552265

loop_
_geom_bond_atom_site_label_1
_geom_bond_atom_site_label_2
_ccdc_geom_bond_type
C7    C10   A    
C23   N1    A    
C21   C26   A    
C18   C28   A    
Cu2   O9    S    
C24   C42   S    
C39   H10   S    
C6    C9    A    
C12   O10   A    
C36   H9    S    
C46   O2    D    
C36   C37   S    
C38   C39   S    
C11   C14   S    
C36   H8    S    
Cu1   O12   S    
C20   C25   A    
C43   H21   S    
C31   H38   S    
C48   O4    D    
C18   H23   S    
C32   H39   S    
C19   H34   S    
C51   H33   S    
C41   H16   S    
C50   H32   S    
C21   C38   S    
C45   C56   A    
C8    C9    A    
C37   H7    S    
C1    C28   S    
C34   N2    A    
C48   H30   S    
C34   C46   S    
C11   O15   A    
C8    C52   S    
C13   O14   A    
C16   C27   A    
C17   H12   S    
C55   H2    S    
Cu2   O13   S    
C5    C49   S    
C12   O9    A    
C37   H5    S    
C45   C47   S    
C53   N2    A    
C48   C53   S    
C38   H14   S    
C47   O3    D    
C12   C27   S    
Cu2   O11   S    
C32   C35   A    
C42   H26   S    
C24   C25   A    
C45   N1    A    
C49   O5    D    
C43   H22   S    
C17   C21   A    
C23   C44   S    
C16   H1    S    
C47   H29   S    
C2    C4    A    
C30   H37   S    
C41   H17   S    
C3    C56   A    
C26   C33   S    
Cu1   O10   S    
C14   C15   T    
C16   C20   A    
C22   C40   S    
C31   C33   A    
C39   H11   S    
Cu2   N2    S    
C52   H35   S    
C6    C50   S    
C44   O16   D    
Cu1   O14   S    
C25   C35   S    
C40   C41   S    
C13   C15   S    
C4    C55   A    
Cu2   O15   S    
C40   H20   S    
C42   C43   S    
C44   H27   S    
C1    O1    A    
C37   H6    S    
C19   C27   A    
C23   C54   A    
C30   C33   A    
C11   O12   A    
C18   C22   A    
C17   C28   A    
C42   H25   S    
C49   H31   S    
C2    C53   A    
C5    C8    A    
C6    C7    A    
Cu1   O1    S    
C29   C35   A    
C19   C24   A    
C7    C51   S    
C5    C10   A    
C29   C31   A    
C3    C10   S    
C1    O11   A    
C41   H18   S    
C30   C32   A    
Cu1   Cu2   S    
C29   H36   S    
C3    C54   A    
C40   H19   S    
C20   C36   S    
C34   C55   A    
C52   O8    D    
C51   O7    D    
C22   C26   A    
C50   O6    D    
C43   H24   S    
C39   H13   S    
C56   H3    S    
C54   H40   S    
C4    C9    S    
C13   O13   A    
C2    H4    S    
C46   H28   S    
C38   H15   S    
Cu1   N1    S    
