data_mof_unit_25837.cif
_audit_creation_date              2012-12-11T16:50:57-0500
_audit_creation_method            fapswitch 2.2
_symmetry_space_group_name_H-M    P1
_symmetry_Int_Tables_number       1
_space_group_crystal_system       triclinic
_cell_length_a                    6.938025
_cell_length_b                    28.749317
_cell_length_c                    32.250743
_cell_angle_alpha                 100.678385
_cell_angle_beta                  89.495199
_cell_angle_gamma                 90.657032
_cell_volume                      6320.88443047

loop_
_atom_site_label
_atom_site_type_symbol
_atom_type_description
_atom_site_fract_x
_atom_site_fract_y
_atom_site_fract_z
_atom_type_partial_charge
O1    O     O_R   0.494350 0.453170 0.452520 -0.542967
O2    O     O_R   0.820980 0.455850 0.538220 -0.529078
O3    O     O_R   0.994300 0.546830 0.547480 -0.551068
C1    C     C_R   0.651422 0.445203 0.551213 0.765281
O4    O     O_R   0.823860 0.447590 0.452270 -0.539837
O5    O     O_R   0.997200 0.538510 0.460920 -0.542796
C2    C     C_R   0.654712 0.434472 0.436757 0.728472
O6    O     O_R   0.491440 0.461490 0.539080 -0.551612
O7    O     O_3   0.661790 0.529840 0.502940 -0.367057
V1    V     V_3+5 0.935470 0.494460 0.499450 1.411793
O8    O     O_R   0.327090 0.544150 0.461780 -0.516786
C3    C     C_R   0.158967 0.554046 0.448066 0.755093
O9    O     O_R   0.324210 0.552410 0.547730 -0.534227
C4    C     C_R   0.156189 0.564220 0.563679 0.778126
V2    V     V_3+5 0.435840 0.505540 0.500550 1.434404
O10   O     O_3   0.159650 0.470160 0.497060 -0.378857
C5    C     C_R   0.224664 0.880584 0.880132 0.362773
C6    C     C_R   0.238406 0.839601 0.849240 -0.203652
H1    H     H_    0.381198 0.828003 0.839041 0.194730
C7    C     C_R   0.072439 0.816469 0.830403 0.008638
C8    C     C_R   0.893641 0.831880 0.848775 -0.205846
H2    H     H_    0.758983 0.818711 0.834617 0.199457
C9    C     C_R   0.883256 0.865505 0.886428 0.388972
C10   C     C_R   0.047390 0.893042 0.900879 -0.277688
C11   C     C_R   0.944310 0.741703 0.781575 0.354726
C12   C     C_R   0.954636 0.709516 0.742951 -0.214068
H3    H     H_    0.831464 0.686872 0.733337 0.179849
C13   C     C_R   0.121590 0.705638 0.717792 0.006261
C14   C     C_R   0.271863 0.737969 0.730213 -0.198486
H4    H     H_    0.407298 0.735341 0.713161 0.195552
C15   C     C_R   0.247572 0.776450 0.763250 0.399589
C16   C     C_R   0.087400 0.777938 0.791468 -0.055730
C17   C     C_R   0.234473 0.678620 0.641976 0.327973
C18   C     C_R   0.255428 0.642904 0.605834 0.303322
C19   C     C_R   0.150573 0.600349 0.602651 -0.243779
C20   C     C_R   0.048296 0.591006 0.637711 -0.337070
H5    H     H_    0.973254 0.557499 0.635896 0.162430
C21   C     C_R   0.051462 0.623095 0.676082 0.437126
C22   C     C_R   0.136984 0.668675 0.678344 -0.111872
C23   C     C_R   0.144200 0.648849 0.275843 0.610121
N1    N     N_R   0.096564 0.665611 0.317258 -0.543555
C24   C     C_R   0.035707 0.711355 0.329995 0.562726
C25   C     C_R   0.025627 0.742373 0.301021 -0.006411
C26   C     C_R   0.076263 0.725850 0.258483 -0.015889
C27   C     C_R   0.134424 0.678626 0.245654 -0.095089
C28   C     C_R   0.968315 0.789606 0.313747 -0.153944
C29   C     C_R   0.963612 0.820173 0.284816 -0.145804
C30   C     C_R   0.015049 0.804260 0.242329 0.001471
C31   C     C_R   0.070516 0.756792 0.228928 -0.077809
C32   C     C_R   0.120976 0.740385 0.186230 -0.131270
C33   C     C_R   0.174196 0.692319 0.173349 0.468891
C34   C     C_R   0.184186 0.662446 0.203206 -0.227192
C35   C     C_R   0.012859 0.834891 0.212982 0.567980
N2    N     N_R   0.061435 0.818827 0.171515 -0.550109
C36   C     C_R   0.114417 0.772585 0.157801 0.615296
O11   O     O_2   0.203685 0.603809 0.263968 -0.521651
O12   O     O_2   0.985220 0.726890 0.370673 -0.539202
H6    H     H_    0.928331 0.803274 0.346220 0.163877
H7    H     H_    0.919768 0.856405 0.295933 0.164665
O13   O     O_2   0.964286 0.880622 0.225979 -0.536823
O14   O     O_2   0.158340 0.757773 0.116698 -0.492511
H8    H     H_    0.231847 0.626389 0.192812 0.181242
C37   C     C_R   0.219430 0.861168 0.119749 -0.084307
H9    H     H_    0.355500 0.845126 0.124903 0.150052
C38   C     C_R   0.210821 0.891865 0.090777 -0.266512
H10   H     H_    0.340598 0.898105 0.073689 0.200807
C39   C     C_R   0.036857 0.913722 0.083458 -0.163582
C40   C     C_R   0.870724 0.904616 0.106759 0.421393
C41   C     C_R   0.879757 0.872634 0.134818 -0.173822
H11   H     H_    0.750351 0.864788 0.151371 0.140531
C42   C     C_R   0.053684 0.850969 0.141818 0.303075
C43   C     C_R   0.253232 0.648692 0.380956 -0.171610
H12   H     H_    0.345172 0.679155 0.380535 0.133162
C44   C     C_R   0.262751 0.624078 0.414791 0.391091
C45   C     C_R   0.148862 0.582893 0.414183 -0.142086
C46   C     C_R   0.017839 0.569484 0.380805 -0.260897
H13   H     H_    0.926466 0.538490 0.379805 0.148622
C47   C     C_R   0.002015 0.595924 0.348546 -0.082933
H14   H     H_    0.896934 0.585574 0.323844 0.147492
C48   C     C_R   0.119541 0.635899 0.348515 0.312391
C49   C     C_R   0.599467 0.231888 0.843550 0.631470
N3    N     N_R   0.619076 0.183810 0.832146 -0.538737
C50   C     C_R   0.657913 0.163270 0.791072 0.592676
C51   C     C_R   0.673075 0.191061 0.759239 -0.194650
C52   C     C_R   0.648218 0.240319 0.770465 -0.074184
C53   C     C_R   0.618128 0.261138 0.813155 -0.009756
C54   C     C_R   0.715388 0.171160 0.716670 0.320655
C55   C     C_R   0.699222 0.198689 0.684917 0.376444
C56   C     C_R   0.672173 0.248259 0.696101 -0.190662
C57   C     C_R   0.655995 0.269033 0.739132 -0.085262
C58   C     C_R   0.647132 0.318620 0.750992 -0.000375
C59   C     C_R   0.625236 0.339055 0.793861 -0.139403
C60   C     C_R   0.607075 0.310638 0.824444 -0.140633
C61   C     C_R   0.661168 0.277914 0.665611 0.634882
N4    N     N_R   0.657559 0.326434 0.677607 -0.539761
C62   C     C_R   0.660396 0.346766 0.719703 0.626578
O15   O     O_2   0.558955 0.251328 0.883991 -0.504459
O16   O     O_2   0.678998 0.115914 0.781074 -0.519498
O17   O     O_2   0.650652 0.258339 0.624327 -0.495161
O18   O     O_2   0.677100 0.394141 0.731507 -0.521967
H15   H     H_    0.617481 0.377093 0.803850 0.165060
H16   H     H_    0.586145 0.327651 0.857026 0.168804
C63   C     C_R   0.506195 0.390708 0.646510 0.480348
C64   C     C_R   0.508527 0.419645 0.615301 -0.414235
H17   H     H_    0.408103 0.448449 0.617216 0.150051
C65   C     C_R   0.643570 0.412627 0.582057 -0.185187
C66   C     C_R   0.779835 0.376260 0.579801 0.423882
C67   C     C_R   0.784185 0.349021 0.611784 -0.269240
H18   H     H_    0.890128 0.321374 0.609932 0.173182
C68   C     C_R   0.650823 0.356102 0.645512 0.215545
C69   C     C_R   0.441662 0.120504 0.858428 -0.302165
H19   H     H_    0.342462 0.121257 0.832933 0.137999
C70   C     C_R   0.416105 0.088315 0.886551 0.418021
C71   C     C_R   0.552642 0.088814 0.919045 -0.197173
C72   C     C_R   0.703112 0.122613 0.923896 -0.340700
H20   H     H_    0.803529 0.124512 0.949713 0.168777
C73   C     C_R   0.722232 0.155359 0.896694 0.517967
C74   C     C_R   0.593170 0.153603 0.863108 0.231359
C75   C     C_R   0.727085 0.123158 0.116197 -0.194892
H21   H     H_    0.859287 0.110495 0.100110 0.122013
C76   C     C_R   0.739030 0.159074 0.152013 -0.096992
H22   H     H_    0.879456 0.173320 0.162233 0.133655
C77   C     C_R   0.571892 0.176558 0.174258 0.136083
C78   C     C_R   0.392057 0.157797 0.159221 -0.164236
H23   H     H_    0.260705 0.170270 0.175814 0.126326
C79   C     C_R   0.379841 0.122054 0.123206 -0.165378
H24   H     H_    0.239037 0.108178 0.112856 0.116342
C80   C     C_R   0.547351 0.104048 0.101263 -0.046287
C81   C     C_R   0.462711 0.253225 0.218169 -0.327890
H25   H     H_    0.368435 0.256538 0.192377 0.143913
C82   C     C_R   0.467877 0.289079 0.254892 0.538379
C83   C     C_R   0.601514 0.285549 0.287009 -0.032313
C84   C     C_R   0.724429 0.246327 0.281928 -0.332262
H26   H     H_    0.827414 0.243272 0.306288 0.156077
C85   C     C_R   0.714761 0.210299 0.246052 0.410279
C86   C     C_R   0.584014 0.213769 0.213387 -0.065519
C87   C     C_R   0.792552 0.344227 0.338891 -0.214333
H27   H     H_    0.920755 0.333816 0.320424 0.182536
C88   C     C_R   0.806983 0.379839 0.374960 -0.141682
H28   H     H_    0.946722 0.395803 0.383404 0.147820
C89   C     C_R   0.642453 0.395370 0.399175 -0.121926
C90   C     C_R   0.464304 0.373314 0.386944 -0.252788
H29   H     H_    0.335019 0.384061 0.405117 0.138765
C91   C     C_R   0.450188 0.336525 0.351551 0.539380
C92   C     C_R   0.614253 0.322755 0.326189 0.046207
O19   O     O_R   0.699170 0.038480 0.960880 -0.543779
O20   O     O_R   0.366800 0.052460 0.047690 -0.549960
O21   O     O_R   0.193520 0.961530 0.039110 -0.548181
C93   C     C_R   0.535832 0.065383 0.063351 0.669417
O22   O     O_R   0.369630 0.044100 0.961740 -0.515023
O23   O     O_R   0.196370 0.953120 0.952550 -0.515243
C94   C     C_R   0.539421 0.054766 0.948682 0.761740
O24   O     O_R   0.696320 0.046890 0.047450 -0.545743
O25   O     O_3   0.528890 0.970170 0.997080 -0.346921
V3    V     V_3+5 0.255190 0.005530 0.000540 1.480104
O26   O     O_R   0.866460 0.947530 0.952310 -0.511042
C95   C     C_R   0.035701 0.933848 0.937219 0.754835
O27   O     O_R   0.863630 0.955880 0.038270 -0.511082
C96   C     C_R   0.031033 0.945907 0.052002 0.713901
V4    V     V_3+5 0.754830 0.994440 0.999470 1.510532
O28   O     O_3   0.031000 0.029830 0.002920 -0.379793
O29   O     O_3   0.384602 0.909771 0.887849 -0.522139
C97   C     C_3   0.381756 0.943362 0.860741 0.189804
H30   H     H_    0.400943 0.978831 0.880562 0.170974
H31   H     H_    0.242523 0.944603 0.843782 0.028607
C98   C     C_3   0.544523 0.934097 0.827851 -0.302279
H32   H     H_    0.578629 0.895782 0.820673 0.227767
H33   H     H_    0.496382 0.944521 0.798116 0.143595
C99   C     C_3   0.726282 0.962526 0.842439 -0.764035
H34   H     H_    0.701051 0.000841 0.843552 0.216457
H35   H     H_    0.846004 0.950850 0.819982 0.201637
H36   H     H_    0.768089 0.957273 0.874272 0.256313
O30   O     O_3   0.355657 0.652357 0.571147 -0.574868
C100  C     C_3   0.555708 0.650110 0.578167 0.126880
H37   H     H_    0.600540 0.612590 0.575120 0.136596
H38   H     H_    0.598607 0.669762 0.609924 0.135087
C101  C     C_3   0.660559 0.672439 0.544910 -0.310795
H39   H     H_    0.621590 0.653062 0.513014 0.237542
H40   H     H_    0.615273 0.709895 0.548386 0.205672
C102  C     C_3   0.877807 0.671251 0.549348 -0.831351
H41   H     H_    0.918049 0.683334 0.582771 0.227085
H42   H     H_    0.946062 0.695109 0.529996 0.218493
H43   H     H_    0.930463 0.634863 0.538023 0.246973
O31   O     O_3   0.965759 0.609315 0.710784 -0.556671
C103  C     C_3   0.111270 0.595088 0.735898 -0.276835
H44   H     H_    0.200977 0.566429 0.717632 0.147400
H45   H     H_    0.041835 0.580967 0.762166 0.164536
H46   H     H_    0.204385 0.625505 0.750062 0.146737
O32   O     O_3   0.229369 0.674941 0.132134 -0.526475
C104  C     C_3   0.078189 0.646568 0.111804 -0.137189
H47   H     H_    0.117102 0.635387 0.078020 0.166024
H48   H     H_    0.056825 0.613950 0.125286 0.113797
H49   H     H_    0.941135 0.666651 0.113283 0.142848
O33   O     O_3   0.696287 0.925099 0.100883 -0.555738
C105  C     C_3   0.670362 0.964690 0.133436 -0.237411
H50   H     H_    0.788940 0.991182 0.133616 0.121354
H51   H     H_    0.657888 0.953946 0.164783 0.151025
H52   H     H_    0.533792 0.982168 0.127795 0.152036
O34   O     O_3   0.375388 0.641840 0.449396 -0.572417
C106  C     C_3   0.295157 0.684664 0.471648 0.030076
H53   H     H_    0.282839 0.681511 0.505218 0.190600
H54   H     H_    0.145888 0.691992 0.461877 0.126147
C107  C     C_3   0.427008 0.726998 0.468173 -0.289959
H55   H     H_    0.578252 0.718938 0.475005 0.206167
H56   H     H_    0.423395 0.734533 0.435725 0.204973
C108  C     C_3   0.363564 0.771415 0.498639 -0.833583
H57   H     H_    0.213580 0.780558 0.491699 0.241339
H58   H     H_    0.460232 0.801499 0.495102 0.238188
H59   H     H_    0.371029 0.765883 0.531747 0.225842
O35   O     O_3   0.776010 0.124808 0.705526 -0.540838
C109  C     C_3   0.978024 0.124137 0.711134 0.170454
H60   H     H_    0.021547 0.144321 0.742716 0.101842
H61   H     H_    0.052714 0.139797 0.686169 0.114738
C110  C     C_3   0.043178 0.073006 0.707979 -0.316477
H62   H     H_    0.959416 0.056063 0.730809 0.227453
H63   H     H_    0.015100 0.052985 0.675642 0.195783
C111  C     C_3   0.257514 0.070707 0.717709 -0.802509
H64   H     H_    0.344857 0.087467 0.695377 0.241989
H65   H     H_    0.301100 0.033175 0.714598 0.232042
H66   H     H_    0.287072 0.089162 0.750484 0.243803
O36   O     O_3   0.732339 0.177697 0.643321 -0.522366
C112  C     C_3   0.565091 0.152302 0.627557 -0.100200
H67   H     H_    0.584348 0.139703 0.593147 0.157802
H68   H     H_    0.434721 0.175023 0.632060 0.125470
H69   H     H_    0.542286 0.120611 0.642228 0.129857
O37   O     O_3   0.379054 0.398050 0.680787 -0.548208
C113  C     C_3   0.188315 0.407850 0.670171 0.103086
H70   H     H_    0.089752 0.384679 0.684813 0.153820
H71   H     H_    0.158556 0.399378 0.635938 0.080603
C114  C     C_3   0.139914 0.459414 0.688494 -0.295808
H72   H     H_    0.142508 0.464819 0.723517 0.215421
H73   H     H_    0.249301 0.483485 0.678265 0.184132
C115  C     C_3   0.941494 0.472310 0.674372 -0.818488
H74   H     H_    0.939593 0.469808 0.639595 0.208511
H75   H     H_    0.906023 0.509009 0.689739 0.257441
H76   H     H_    0.829828 0.448280 0.683578 0.276590
O38   O     O_3   0.887527 0.363147 0.543131 -0.546798
C116  C     C_3   0.085060 0.371565 0.551554 -0.168500
H77   H     H_    0.143178 0.346331 0.570422 0.120479
H78   H     H_    0.113092 0.408910 0.567057 0.123956
H79   H     H_    0.164716 0.365725 0.521086 0.159834
O39   O     O_3   0.256436 0.058087 0.885456 -0.557890
C117  C     C_3   0.169521 0.046642 0.845402 -0.319155
H80   H     H_    0.277729 0.035711 0.819850 0.152253
H81   H     H_    0.079560 0.076206 0.839115 0.160207
H82   H     H_    0.070681 0.016254 0.845509 0.162630
O40   O     O_3   0.856508 0.191658 0.905129 -0.525334
C118  C     C_3   0.035202 0.174841 0.888186 -0.205200
H83   H     H_    0.026407 0.162339 0.853444 0.115193
H84   H     H_    0.088570 0.146505 0.904208 0.160216
H85   H     H_    0.141643 0.204383 0.893839 0.194738
O41   O     O_3   0.708810 0.874134 0.907145 -0.512065
C119  C     C_3   0.656483 0.834723 0.925274 -0.139130
H86   H     H_    0.526397 0.843888 0.945235 0.159330
H87   H     H_    0.772289 0.825601 0.946017 0.103044
H88   H     H_    0.618659 0.803564 0.900642 0.118618
O42   O     O_3   0.360706 0.330338 0.258561 -0.540038
C120  C     C_3   0.170901 0.321172 0.243510 -0.168654
H89   H     H_    0.106154 0.289093 0.253114 0.141037
H90   H     H_    0.166875 0.318353 0.208727 0.128501
H91   H     H_    0.080014 0.351731 0.257258 0.166026
O43   O     O_3   0.842632 0.173207 0.242219 -0.579529
C121  C     C_3   0.749103 0.133720 0.254076 0.077718
H92   H     H_    0.602042 0.127496 0.240272 0.120945
H93   H     H_    0.736857 0.139246 0.289083 0.123413
C122  C     C_3   0.869291 0.089660 0.238252 -0.297278
H94   H     H_    0.889991 0.085479 0.203530 0.195932
H95   H     H_    0.013392 0.093993 0.253364 0.198831
C123  C     C_3   0.771545 0.045086 0.248061 -0.824207
H96   H     H_    0.750757 0.048154 0.282648 0.237679
H97   H     H_    0.863182 0.013916 0.236343 0.245689
H98   H     H_    0.629464 0.039401 0.232194 0.226922
O44   O     O_3   0.273673 0.315083 0.341104 -0.556567
C124  C     C_3   0.243697 0.279863 0.365664 -0.298635
H99   H     H_    0.234191 0.295515 0.399863 0.148007
H100  H     H_    0.358566 0.252632 0.359820 0.141542
H101  H     H_    0.104419 0.261737 0.356498 0.168576
O45   O     O_3   0.786134 0.740088 0.807840 -0.577564
C125  C     C_3   0.766972 0.695611 0.820481 0.077721
H102  H     H_    0.778712 0.701703 0.855415 0.131031
H103  H     H_    0.880627 0.669463 0.807803 0.121543
C126  C     C_3   0.567503 0.674641 0.807982 -0.294008
H104  H     H_    0.454764 0.699627 0.822865 0.194765
H105  H     H_    0.550877 0.669543 0.773196 0.194137
C127  C     C_3   0.537885 0.627141 0.821909 -0.829054
H106  H     H_    0.644364 0.601082 0.805975 0.244981
H107  H     H_    0.390654 0.613349 0.813377 0.222582
H108  H     H_    0.554157 0.631332 0.856641 0.232464
O46   O     O_3   0.382845 0.812533 0.766699 -0.556499
C128  C     C_3   0.317509 0.846283 0.743556 -0.265668
H109  H     H_    0.186941 0.864529 0.758537 0.139115
H110  H     H_    0.288352 0.830132 0.710038 0.152062
H111  H     H_    0.432259 0.873382 0.743383 0.152576
O47   O     O_3   0.317751 0.722571 0.641887 -0.555015
C129  C     C_3   0.186645 0.750904 0.624877 -0.237061
H112  H     H_    0.042312 0.751688 0.640417 0.133995
H113  H     H_    0.174583 0.738957 0.590224 0.162640
H114  H     H_    0.243304 0.787743 0.630335 0.150652

loop_
_geom_bond_atom_site_label_1
_geom_bond_atom_site_label_2
_ccdc_geom_bond_type
C26   C31   A    
C121  C122  S    
O27   V4    S    
C107  H55   S    
C37   C38   A    
C104  H47   S    
C105  H51   S    
C128  H111  S    
C72   C73   A    
C99   H34   S    
C120  H90   S    
C19   C20   A    
O3    V1    S    
C51   C54   A    
C71   C94   S    
O1    V2    S    
C1    O6    A    
C7    C8    A    
C31   C32   A    
N1    C48   S    
C64   C65   A    
C49   N3    A    
C57   C58   A    
C38   H10   S    
C77   C78   A    
C129  H113  S    
C112  H69   S    
C52   C53   A    
C67   H18   S    
C63   O37   S    
C107  H56   S    
C116  H79   S    
C12   H3    S    
C79   H24   S    
C114  C115  S    
C69   C74   A    
C83   C92   S    
O23   C95   A    
C87   C92   A    
C13   C14   A    
O20   C93   A    
C46   C47   A    
C18   C19   A    
C127  H108  S    
C55   C56   A    
C41   H11   S    
O5    C3    A    
C119  H86   S    
C108  H58   S    
C103  H45   S    
V4    O28   S    
O19   V4    S    
C65   C66   A    
C117  H80   S    
C124  H101  S    
O7    V1    S    
C62   O18   S    
C127  H107  S    
C21   O31   S    
O31   C103  S    
C127  H106  S    
C128  H109  S    
N1    C24   A    
C125  C126  S    
C56   C61   A    
C41   C42   A    
C55   O36   S    
C93   O24   A    
C100  H37   S    
C104  H49   S    
C58   C62   A    
C82   O42   S    
C97   H30   S    
O8    V2    S    
O46   C128  S    
C90   H29   S    
N2    C42   S    
C50   C51   A    
C118  H84   S    
C106  H53   S    
C23   O11   S    
C9    O41   S    
C129  H112  S    
C30   C31   A    
C104  H48   S    
C66   C67   A    
C124  H99   S    
O21   V3    S    
O23   V3    S    
C34   H8    S    
C2    C89   S    
O20   V3    S    
C115  H74   S    
C6    C7    A    
C49   C53   A    
C58   C59   A    
C102  H43   S    
C105  H52   S    
C75   C80   A    
C101  C102  S    
C11   C16   A    
C75   C76   A    
O33   C105  S    
O34   C106  S    
O1    C2    A    
O9    C4    A    
C28   H6    S    
C98   H33   S    
C99   H35   S    
C98   H32   S    
C114  H72   S    
C89   C90   A    
C70   O39   S    
C24   O12   S    
C64   H17   S    
C11   C12   A    
C35   O13   S    
C102  H42   S    
C5    C6    A    
C129  H114  S    
C100  H38   S    
C73   O40   S    
C8    C9    A    
C23   C27   A    
C107  C108  S    
C116  H78   S    
C5    C10   A    
C76   H22   S    
C44   C45   A    
C37   H9    S    
C33   C34   A    
C29   C30   A    
C85   C86   A    
C97   C98   S    
C21   C22   A    
C51   C52   A    
C18   O30   S    
C69   C70   A    
C116  H77   S    
C81   C86   A    
C4    C19   S    
O4    C2    A    
C47   H14   S    
C40   C41   A    
C103  H46   S    
C27   C34   A    
C38   C39   A    
C111  H64   S    
C35   N2    A    
C1    C65   S    
C50   O16   S    
V3    O28   S    
C39   C40   A    
C91   O44   S    
C111  H66   S    
O21   C96   A    
O26   C95   A    
O27   C96   A    
O2    C1    A    
C45   C46   A    
C109  H60   S    
O25   V4    S    
C14   H4    S    
C53   C60   A    
O36   C112  S    
C87   C88   A    
C115  H76   S    
C113  H70   S    
O26   V4    S    
O40   C118  S    
C117  H82   S    
C125  H102  S    
C113  C114  S    
C17   C18   A    
C126  H104  S    
C47   C48   A    
C61   N4    A    
C32   C33   A    
C17   C22   A    
C85   O43   S    
C46   H13   S    
C75   H21   S    
C114  H73   S    
C115  H75   S    
C100  C101  S    
O25   V3    S    
O3    C4    A    
C122  H95   S    
C59   H15   S    
C126  C127  S    
O19   C94   A    
C43   C44   A    
C23   N1    A    
C109  H61   S    
C37   C42   A    
O37   C113  S    
O6    V2    S    
O22   V3    S    
C123  H97   S    
C25   C26   A    
C84   H26   S    
C54   O35   S    
C66   O38   S    
C122  C123  S    
C10   C95   S    
C120  H91   S    
C111  H65   S    
C24   C25   A    
N3    C74   S    
C82   C83   A    
O2    V1    S    
C118  H85   S    
O42   C120  S    
C90   C91   A    
C118  H83   S    
C128  H110  S    
C119  H87   S    
C70   C71   A    
C7    C16   S    
C110  H62   S    
C121  H93   S    
N2    C36   A    
C20   H5    S    
C79   C80   A    
C123  H96   S    
C69   H19   S    
O39   C117  S    
C112  H68   S    
C108  H57   S    
C12   C13   A    
C15   C16   A    
C26   C27   A    
C17   O47   S    
C98   C99   S    
C72   H20   S    
C43   H12   S    
N4    C68   S    
C33   O32   S    
C60   H16   S    
C110  C111  S    
C119  H88   S    
C40   O33   S    
C88   H28   S    
C15   O46   S    
C71   C72   A    
O43   C121  S    
C30   C35   A    
O29   C97   S    
C87   H27   S    
C126  H105  S    
C32   C36   A    
C13   C22   S    
C63   C68   A    
C77   C86   S    
C91   C92   A    
C61   O17   S    
C52   C57   A    
C78   C79   A    
O24   V4    S    
O9    V2    S    
C120  H89   S    
C81   H25   S    
C110  H63   S    
O4    V1    S    
C14   C15   A    
C113  H71   S    
V1    O10   S    
C73   C74   A    
C11   O45   S    
C88   C89   A    
C108  H59   S    
C103  H44   S    
O47   C129  S    
C67   C68   A    
C49   O15   S    
O22   C94   A    
C106  C107  S    
C121  H92   S    
C36   O14   S    
C20   C21   A    
C59   C60   A    
C99   H36   S    
C101  H40   S    
C83   C84   A    
C124  H100  S    
C125  H103  S    
O7    V2    S    
O32   C104  S    
C25   C28   A    
O38   C116  S    
C5    O29   S    
C76   C77   A    
C28   C29   A    
O5    V1    S    
C101  H39   S    
C9    C10   A    
C29   H7    S    
C105  H50   S    
C80   C93   S    
C109  C110  S    
C44   O34   S    
C54   C55   A    
C43   C48   A    
O35   C109  S    
C123  H98   S    
C3    C45   S    
C122  H94   S    
C63   C64   A    
C84   C85   A    
C6    H1    S    
O45   C125  S    
C78   H23   S    
C97   H31   S    
C39   C96   S    
C117  H81   S    
N3    C50   A    
C56   C57   A    
C8    H2    S    
O30   C100  S    
C112  H67   S    
C106  H54   S    
N4    C62   A    
C102  H41   S    
V2    O10   S    
O8    C3    A    
O41   C119  S    
C81   C82   A    
O44   C124  S    
