data_mof_unit_65898.cif
_audit_creation_date              2012-12-10T16:43:15-0500
_audit_creation_method            fapswitch 2.2
_symmetry_space_group_name_H-M    P1
_symmetry_Int_Tables_number       1
_space_group_crystal_system       tetragonal
_cell_length_a                    16.570382
_cell_length_b                    16.570382
_cell_length_c                    28.693392
_cell_angle_alpha                 90.0
_cell_angle_beta                  90.0
_cell_angle_gamma                 90.0
_cell_volume                      7878.56155275

loop_
_atom_site_label
_atom_site_type_symbol
_atom_type_description
_atom_site_fract_x
_atom_site_fract_y
_atom_site_fract_z
_atom_type_partial_charge
Br1   Br    Br    0.175399 0.187906 0.167461 -0.381497
Br2   Br    Br    0.824601 0.187896 0.167455 -0.381504
Br3   Br    Br    0.812094 0.824601 0.332539 -0.381497
Br4   Br    Br    0.187906 0.175399 0.667461 -0.381497
Br5   Br    Br    0.824601 0.187896 0.832545 -0.381504
Br6   Br    Br    0.175399 0.812104 0.167455 -0.381504
Br7   Br    Br    0.187906 0.175399 0.332539 -0.381497
Br8   Br    Br    0.812094 0.824601 0.667461 -0.381497
Br9   Br    Br    0.824601 0.812094 0.832538 -0.381497
Br10  Br    Br    0.812104 0.175399 0.667455 -0.381504
Br11  Br    Br    0.187896 0.824601 0.332545 -0.381504
Br12  Br    Br    0.824601 0.812094 0.167461 -0.381497
Br13  Br    Br    0.175399 0.187906 0.832538 -0.381497
Br14  Br    Br    0.187896 0.824601 0.667455 -0.381504
Br15  Br    Br    0.812104 0.175399 0.332545 -0.381504
Br16  Br    Br    0.175399 0.812104 0.832545 -0.381504
C1    C     C_1   0.000000 0.129506 0.194573 0.130223
C2    C     C_3   1.000000 1.000000 0.750000 -0.096288
C3    C     C_R   1.000000 0.196798 0.162660 -0.028428
C4    C     C_R   0.000000 0.803202 0.837340 -0.028428
C5    C     C_R   0.803202 1.000000 0.662660 -0.028428
C6    C     C_R   0.196798 1.000000 0.337340 -0.028428
C7    C     C_R   1.000000 0.803202 0.162660 -0.028428
C8    C     C_R   1.000000 0.196798 0.837340 -0.028428
C9    C     C_R   0.196798 1.000000 0.662660 -0.028428
C10   C     C_R   0.803202 1.000000 0.337340 -0.028428
C11   C     C_R   0.000000 0.611908 0.938785 0.828075
C12   C     C_1   1.000000 0.870494 0.805427 0.130223
C13   C     C_R   0.000000 0.388091 0.061215 0.828075
C14   C     C_R   0.388091 0.000000 0.438785 0.828075
C15   C     C_R   0.611908 1.000000 0.561215 0.828074
C16   C     C_R   1.000000 0.388091 0.938785 0.828075
C17   C     C_R   0.000000 0.611908 0.061215 0.828074
C18   C     C_R   0.611908 1.000000 0.438785 0.828075
C19   C     C_R   0.388091 1.000000 0.561215 0.828075
C20   C     C_R   0.073352 0.228771 0.146321 0.269322
C21   C     C_R   0.926648 0.771229 0.853678 0.269322
C22   C     C_R   0.771233 0.073352 0.646319 0.269320
C23   C     C_1   0.870494 1.000000 0.694573 0.130223
C24   C     C_R   0.228767 0.926648 0.353681 0.269320
C25   C     C_R   0.926648 0.771229 0.146321 0.269322
C26   C     C_R   0.073352 0.228771 0.853678 0.269322
C27   C     C_R   0.228767 0.926648 0.646319 0.269320
C28   C     C_R   0.771233 0.073352 0.353681 0.269320
C29   C     C_R   0.073352 0.771233 0.853681 0.269320
C30   C     C_R   0.926648 0.228767 0.146319 0.269320
C31   C     C_R   0.771229 0.926648 0.353678 0.269322
C32   C     C_R   0.228771 0.073352 0.646321 0.269322
C33   C     C_R   0.926648 0.228767 0.853681 0.269320
C34   C     C_1   0.129506 0.000000 0.305427 0.130223
C35   C     C_R   0.073352 0.771233 0.146319 0.269320
C36   C     C_R   0.228771 0.073352 0.353678 0.269322
C37   C     C_R   0.771229 0.926648 0.646321 0.269322
C38   C     C_R   0.073054 0.291365 0.113578 -0.187776
C39   C     C_R   0.926945 0.708635 0.886422 -0.187776
C40   C     C_R   0.708639 0.073054 0.613575 -0.187776
C41   C     C_R   0.291361 0.926945 0.386425 -0.187776
C42   C     C_R   0.926945 0.708635 0.113578 -0.187776
C43   C     C_R   0.073054 0.291365 0.886422 -0.187776
C44   C     C_R   0.291361 0.926945 0.613576 -0.187775
C45   C     C_1   1.000000 0.870494 0.194573 0.130223
C46   C     C_R   0.708639 0.073054 0.386424 -0.187776
C47   C     C_R   0.073054 0.708639 0.886424 -0.187776
C48   C     C_R   0.926945 0.291361 0.113575 -0.187775
C49   C     C_R   0.708635 0.926945 0.386422 -0.187776
C50   C     C_R   0.291365 0.073054 0.613578 -0.187776
C51   C     C_R   0.926945 0.291361 0.886424 -0.187776
C52   C     C_R   0.073054 0.708639 0.113575 -0.187776
C53   C     C_R   0.291365 0.073054 0.386422 -0.187776
C54   C     C_R   0.708635 0.926945 0.613578 -0.187776
C55   C     C_R   1.000000 0.322944 0.096626 -0.148451
C56   C     C_1   1.000000 0.129506 0.805427 0.130223
C57   C     C_R   1.000000 0.677056 0.903374 -0.148451
C58   C     C_R   0.677056 0.000000 0.596626 -0.148451
C59   C     C_R   0.322944 1.000000 0.403374 -0.148451
C60   C     C_R   1.000000 0.677056 0.096626 -0.148451
C61   C     C_R   1.000000 0.322944 0.903374 -0.148451
C62   C     C_R   0.322944 1.000000 0.596626 -0.148451
C63   C     C_R   0.677056 0.000000 0.403374 -0.148451
C64   C     C_1   1.000000 0.071856 0.220248 0.081311
C65   C     C_1   1.000000 0.928144 0.779751 0.081311
C66   C     C_1   0.928144 1.000000 0.720248 0.081311
C67   C     C_1   0.129506 1.000000 0.694573 0.130223
C68   C     C_1   0.071856 0.000000 0.279751 0.081311
C69   C     C_1   1.000000 0.928144 0.220248 0.081311
C70   C     C_1   0.000000 0.071856 0.779751 0.081311
C71   C     C_1   0.071856 1.000000 0.720248 0.081311
C72   C     C_1   0.928144 0.000000 0.279751 0.081311
C73   C     C_1   0.870494 0.000000 0.305427 0.130223
C74   C     C_3   0.000000 1.000000 0.250000 -0.096288
Cu1   Cu    Cu3+1 0.919200 0.500000 0.000000 1.025755
Cu2   Cu    Cu3+1 0.080800 0.500000 0.000000 1.025755
Cu3   Cu    Cu3+1 0.500000 0.919200 0.500000 1.025755
Cu4   Cu    Cu3+1 0.500000 0.080800 0.500000 1.025755
H1    H     H_    0.130169 0.314818 0.101212 0.199412
H2    H     H_    0.869831 0.314811 0.101207 0.199412
H3    H     H_    0.685182 0.869831 0.398788 0.199412
H4    H     H_    0.314818 0.130169 0.601212 0.199412
H5    H     H_    0.869831 0.314811 0.898793 0.199412
H6    H     H_    0.130169 0.685189 0.101207 0.199412
H7    H     H_    0.314818 0.130169 0.398788 0.199412
H8    H     H_    0.685182 0.869831 0.601212 0.199412
H9    H     H_    0.869831 0.685182 0.898788 0.199412
H10   H     H_    0.685189 0.130169 0.601207 0.199412
H11   H     H_    0.314811 0.869831 0.398793 0.199412
H12   H     H_    0.869831 0.685182 0.101212 0.199412
H13   H     H_    0.130169 0.314818 0.898788 0.199412
H14   H     H_    0.314811 0.869831 0.601207 0.199412
H15   H     H_    0.685189 0.130169 0.398793 0.199412
H16   H     H_    0.130169 0.685189 0.898793 0.199412
O1    O     O_R   0.931980 0.584070 0.954320 -0.575224
O2    O     O_R   0.068020 0.584070 0.954320 -0.575225
O3    O     O_R   0.415930 0.068020 0.545680 -0.575225
O4    O     O_R   0.584070 0.931980 0.454320 -0.575224
O5    O     O_R   0.068020 0.584070 0.045680 -0.575225
O6    O     O_R   0.931980 0.415930 0.954320 -0.575225
O7    O     O_R   0.584070 0.931980 0.545680 -0.575224
O8    O     O_R   0.415930 0.068020 0.454320 -0.575225
O9    O     O_R   0.068020 0.415930 0.045680 -0.575225
O10   O     O_R   0.415930 0.931980 0.454320 -0.575225
O11   O     O_R   0.584070 0.068020 0.545680 -0.575225
O12   O     O_R   0.068020 0.415930 0.954320 -0.575225
O13   O     O_R   0.931980 0.584070 0.045680 -0.575224
O14   O     O_R   0.584070 0.068020 0.454320 -0.575225
O15   O     O_R   0.415930 0.931980 0.545680 -0.575225
O16   O     O_R   0.931980 0.415930 0.045680 -0.575225

loop_
_geom_bond_atom_site_label_1
_geom_bond_atom_site_label_2
_ccdc_geom_bond_type
C41   H11   S    
Cu3   Cu4   S    
C49   C63   A    
Cu1   O16   S    
C8    C26   A    
C67   C71   T    
C51   C61   A    
C9    C27   A    
C3    C30   A    
C34   C68   T    
Br2   C30   S    
C10   C73   S    
C13   O9    A    
C44   C62   A    
C2    C70   S    
C68   C74   S    
C35   C52   A    
Cu2   O9    S    
Br7   C36   S    
C3    C20   A    
C39   H9    S    
C2    C65   S    
Cu1   O6    S    
C48   C55   A    
Cu1   O1    S    
C19   O15   A    
C15   O7    A    
C36   C53   A    
C1    C3    S    
C16   C61   S    
C5    C22   A    
C54   C58   A    
C53   C59   A    
Cu3   O10   S    
Br6   C35   S    
C4    C29   A    
C44   H14   S    
C51   H5    S    
C6    C34   S    
C11   O1    A    
Cu1   O13   S    
C13   O16   A    
Br5   C33   S    
Cu3   O7    S    
C37   C54   A    
Br13  C26   S    
Cu4   O3    S    
C50   C62   A    
C17   O5    A    
C40   C58   A    
C38   C55   A    
C10   C28   A    
C16   O12   A    
C46   C63   A    
C15   O11   A    
Cu1   Cu2   S    
Cu2   O2    S    
C15   C58   S    
C4    C12   S    
C28   C46   A    
C29   C47   A    
C1    C64   T    
C43   H13   S    
C30   C48   A    
C42   H12   S    
C39   C57   A    
Br16  C29   S    
C52   H6    S    
Br12  C25   S    
Cu2   O12   S    
C18   C63   S    
C17   C60   S    
C7    C35   A    
C5    C23   S    
C6    C24   A    
Br9   C21   S    
C22   C40   A    
C16   O6    A    
C9    C32   A    
C40   H10   S    
C38   H1    S    
C45   C69   T    
C10   C31   A    
C27   C44   A    
C72   C74   S    
C11   O2    A    
C18   O4    A    
C25   C42   A    
C8    C56   S    
C6    C36   A    
Br4   C32   S    
C8    C33   A    
C18   O14   A    
C24   C41   A    
C33   C51   A    
C12   C65   T    
C42   C60   A    
C9    C67   S    
C23   C66   T    
Br8   C37   S    
Br15  C28   S    
C56   C70   T    
C69   C74   S    
C54   H8    S    
C53   H7    S    
C52   C60   A    
C47   C57   A    
C19   C62   S    
C2    C71   S    
C7    C25   A    
Br10  C22   S    
C43   C61   A    
C41   C59   A    
C47   H16   S    
C49   H3    S    
C5    C37   A    
C4    C21   A    
Cu4   O8    S    
C50   H4    S    
C46   H15   S    
C14   O10   A    
Br3   C31   S    
C2    C66   S    
C19   O3    A    
C48   H2    S    
Cu3   O4    S    
C64   C74   S    
Br11  C24   S    
Cu2   O5    S    
Cu3   O15   S    
C20   C38   A    
C21   C39   A    
Cu4   O11   S    
C7    C45   S    
C14   C59   S    
C72   C73   T    
C26   C43   A    
C14   O8    A    
C17   O13   A    
C32   C50   A    
C11   C57   S    
C31   C49   A    
Br1   C20   S    
Br14  C27   S    
C13   C55   S    
Cu4   O14   S    
