data_mof_unit_67596.cif
_audit_creation_date              2013-03-05T16:04:52-0500
_audit_creation_method            fapswitch 2.2
_symmetry_space_group_name_H-M    P1
_symmetry_Int_Tables_number       1
_space_group_crystal_system       triclinic
_cell_length_a                    15.535442
_cell_length_b                    15.514914
_cell_length_c                    9.632085
_cell_angle_alpha                 89.281999
_cell_angle_beta                  90.354168
_cell_angle_gamma                 89.933983
_cell_volume                      2321.40313227

loop_
_atom_site_label
_atom_site_type_symbol
_atom_site_description
_atom_site_fract_x
_atom_site_fract_y
_atom_site_fract_z
_atom_type_partial_charge
O1    O     O_R   0.090170 0.409820 0.618740 -0.567471
O2    O     O_R   0.909830 0.590180 0.381260 -0.539289
O3    O     O_R   0.909830 0.590180 0.618740 -0.572710
O4    O     O_R   0.090170 0.409820 0.381260 -0.559918
O5    O     O_R   0.909830 0.409820 0.381260 -0.569849
O6    O     O_R   0.090170 0.590180 0.618740 -0.569721
O7    O     O_R   0.090170 0.590180 0.381260 -0.570814
O8    O     O_R   0.909830 0.409820 0.618740 -0.589375
O9    O     O_R   0.590170 0.909820 0.618740 -0.584240
O10   O     O_R   0.409830 0.090180 0.381260 -0.568210
O11   O     O_R   0.409830 0.090180 0.618740 -0.587199
O12   O     O_R   0.590170 0.909820 0.381260 -0.573290
O13   O     O_R   0.409830 0.909820 0.381260 -0.581992
O14   O     O_R   0.590170 0.090180 0.618740 -0.577805
O15   O     O_R   0.590170 0.090180 0.381260 -0.562157
O16   O     O_R   0.409830 0.909820 0.618740 -0.563036
C1    C     C_R   0.117086 0.379753 0.500783 0.810231
C2    C     C_R   0.883203 0.621080 0.500144 0.835990
C3    C     C_R   0.883498 0.379108 0.500310 0.845365
C4    C     C_R   0.119289 0.618054 0.499068 0.835578
C5    C     C_R   0.618909 0.881497 0.500988 0.836538
C6    C     C_R   0.377574 0.115561 0.499180 0.860845
C7    C     C_R   0.380495 0.881569 0.499691 0.840166
C8    C     C_R   0.621880 0.115973 0.500093 0.837379
H1    H     H_    0.918546 0.390697 0.128159 0.167713
H2    H     H_    0.083455 0.607524 0.871617 0.180408
H3    H     H_    0.081049 0.609489 0.126125 0.159461
H4    H     H_    0.912886 0.395814 0.874312 0.189666
H5    H     H_    0.602378 0.909722 0.129567 0.177403
H6    H     H_    0.403466 0.095319 0.871395 0.170472
H7    H     H_    0.396726 0.087485 0.125154 0.193222
H8    H     H_    0.596857 0.904384 0.875943 0.173004
N1    N     N_R   1.000000 0.500000 0.852070 -0.165043
N2    N     N_R   0.000000 0.500000 0.147930 -0.165501
N3    N     N_R   0.500000 1.000000 0.852070 -0.164758
N4    N     N_R   0.500000 0.000000 0.147930 -0.170254
Cu1   Cu    Cu3+1 0.000000 0.500000 0.640660 0.944462
Cu2   Cu    Cu3+1 0.000000 0.500000 0.359340 0.955268
Cu3   Cu    Cu3+1 0.500000 1.000000 0.640660 0.935483
Cu4   Cu    Cu3+1 0.500000 1.000000 0.359340 0.939495
C9    C     C_R   0.954750 0.439949 0.074354 -0.041496
C10   C     C_R   0.045761 0.559692 0.925566 -0.027049
C11   C     C_R   0.044646 0.560567 0.073094 -0.025721
C12   C     C_R   0.952469 0.441887 0.927038 -0.063405
C13   C     C_R   0.556236 0.949925 0.075200 -0.072804
C14   C     C_R   0.445612 0.051590 0.925196 -0.072154
C15   C     C_R   0.443725 0.049483 0.072412 -0.049200
C16   C     C_R   0.554472 0.948105 0.927823 -0.055633
C17   C     C_R   0.775731 0.287756 0.379176 0.316481
C18   C     C_R   0.200064 0.734961 0.613399 0.314132
C19   C     C_R   0.235109 0.702174 0.376466 0.335044
C20   C     C_R   0.809855 0.255199 0.621258 0.314289
C21   C     C_R   0.224453 0.284315 0.622056 0.359416
C22   C     C_R   0.786535 0.726517 0.377989 0.363208
C23   C     C_R   0.791536 0.728960 0.629239 0.323944
C24   C     C_R   0.188754 0.256702 0.382330 0.295481
C25   C     C_R   0.284977 0.777091 0.370698 0.343491
C26   C     C_R   0.737777 0.200969 0.625931 0.346492
C27   C     C_R   0.723116 0.215173 0.374017 0.299300
C28   C     C_R   0.271748 0.788158 0.621228 0.326262
C29   C     C_R   0.737815 0.801310 0.625323 0.327966
C30   C     C_R   0.264581 0.206782 0.373146 0.314526
C31   C     C_R   0.269231 0.206362 0.624856 0.382175
C32   C     C_R   0.709981 0.773422 0.382457 0.275572
C33   C     C_R   0.185962 0.685105 0.496059 -0.402296
C34   C     C_R   0.823405 0.305820 0.500267 -0.381087
C35   C     C_R   0.820099 0.692688 0.502626 -0.385474
C36   C     C_R   0.177579 0.306844 0.501860 -0.392121
C37   C     C_R   0.695438 0.177063 0.500225 -0.401629
C38   C     C_R   0.312162 0.815170 0.497370 -0.409788
C39   C     C_R   0.302790 0.175447 0.498375 -0.340457
C40   C     C_R   0.689712 0.818625 0.503336 -0.396658
O17   O     O_3   0.774719 0.344945 0.268148 -0.563392
C41   C     C_3   0.697254 0.392849 0.275209 0.115477
H9    H     H_    0.689275 0.423454 0.378698 0.102219
H10   H     H_    0.640767 0.350716 0.256728 0.145503
C42   C     C_3   0.696011 0.462268 0.162718 -0.466939
H11   H     H_    0.716472 0.433924 0.063091 0.240767
H12   H     H_    0.629544 0.488027 0.152204 0.171729
C43   C     C_3   0.755617 0.535849 0.198257 -0.637573
H13   H     H_    0.739105 0.561688 0.301394 0.227204
H14   H     H_    0.749263 0.587623 0.119054 0.248692
H15   H     H_    0.822874 0.513226 0.199812 0.292895
O18   O     O_3   0.143647 0.732525 0.722271 -0.567271
C44   C     C_3   0.072764 0.786056 0.687461 0.113994
H16   H     H_    0.014378 0.745722 0.672821 0.172386
H17   H     H_    0.079782 0.825286 0.589865 0.063797
C45   C     C_3   0.060508 0.848207 0.804820 -0.356240
H18   H     H_    0.123897 0.875024 0.834323 0.253669
H19   H     H_    0.020523 0.902636 0.769482 0.183136
C46   C     C_3   0.019056 0.803088 0.927775 -0.838729
H20   H     H_    0.958261 0.771830 0.894653 0.268643
H21   H     H_    0.004642 0.851325 0.007432 0.243698
H22   H     H_    0.063103 0.753482 0.972054 0.263741
O19   O     O_3   0.239805 0.644415 0.268618 -0.550631
C47   C     C_3   0.288863 0.572389 0.315962 0.134871
H23   H     H_    0.248894 0.528511 0.380901 0.125182
H24   H     H_    0.346050 0.592030 0.379018 0.058608
C48   C     C_3   0.322994 0.521691 0.193834 -0.402889
H25   H     H_    0.366529 0.563541 0.132685 0.226591
H26   H     H_    0.361315 0.466337 0.234490 0.161619
C49   C     C_3   0.250803 0.488467 0.101074 -0.742885
H27   H     H_    0.199751 0.456893 0.163754 0.274790
H28   H     H_    0.277237 0.440217 0.029238 0.207843
H29   H     H_    0.222923 0.542401 0.038906 0.256820
O20   O     O_3   0.855457 0.268404 0.743708 -0.585847
C50   C     C_3   0.941095 0.236835 0.733743 0.084963
H30   H     H_    0.983274 0.284866 0.683137 0.180061
H31   H     H_    0.945681 0.178742 0.668852 0.101577
C51   C     C_3   0.976349 0.215945 0.880137 -0.418982
H32   H     H_    0.934539 0.244519 0.960695 0.239289
H33   H     H_    0.976819 0.145313 0.896430 0.199788
C52   C     C_3   0.068081 0.248271 0.902716 -0.823536
H34   H     H_    0.111824 0.219452 0.826684 0.276865
H35   H     H_    0.090954 0.229254 0.007750 0.269162
H36   H     H_    0.071480 0.319329 0.892233 0.292362
O21   O     O_3   0.226181 0.335748 0.738319 -0.576085
C53   C     C_3   0.280516 0.407625 0.712039 0.123137
H37   H     H_    0.269619 0.454725 0.795501 0.132226
H38   H     H_    0.262368 0.443425 0.615263 0.118493
C54   C     C_3   0.376704 0.382493 0.712594 -0.399271
H39   H     H_    0.413190 0.426936 0.780015 0.198987
H40   H     H_    0.385733 0.316607 0.756728 0.250113
C55   C     C_3   0.415643 0.387075 0.567253 -0.933191
H41   H     H_    0.379221 0.345894 0.494270 0.253965
H42   H     H_    0.483416 0.364348 0.571132 0.247274
H43   H     H_    0.414630 0.454620 0.527546 0.236972
O22   O     O_3   0.825546 0.709058 0.252973 -0.560950
C56   C     C_3   0.850609 0.787060 0.186900 0.138080
H44   H     H_    0.794431 0.829744 0.164624 0.127250
H45   H     H_    0.876156 0.770086 0.084276 0.167109
C57   C     C_3   0.920133 0.837312 0.268128 -0.470339
H46   H     H_    0.941186 0.892678 0.203548 0.186804
H47   H     H_    0.892656 0.864136 0.364747 0.190828
C58   C     C_3   0.999665 0.783577 0.304186 -0.713961
H48   H     H_    0.987167 0.741999 0.395671 0.237856
H49   H     H_    0.053885 0.826910 0.331230 0.204070
H50   H     H_    0.019004 0.743111 0.215723 0.253697
O23   O     O_3   0.817043 0.697502 0.758058 -0.576927
C59   C     C_3   0.769595 0.621784 0.789011 0.138316
H51   H     H_    0.805905 0.584835 0.869812 0.162531
H52   H     H_    0.763350 0.578163 0.698287 0.131766
C60   C     C_3   0.679485 0.641020 0.844521 -0.361213
H53   H     H_    0.684617 0.669144 0.949588 0.237499
H54   H     H_    0.644949 0.688203 0.776920 0.231342
C61   C     C_3   0.627242 0.557822 0.848483 -1.000213
H55   H     H_    0.592151 0.549667 0.748686 0.263141
H56   H     H_    0.580926 0.558038 0.934732 0.265632
H57   H     H_    0.669889 0.501260 0.864181 0.267789
O24   O     O_3   0.134011 0.263628 0.268179 -0.602149
C62   C     C_3   0.051739 0.229919 0.302514 0.128385
H58   H     H_    0.003453 0.259568 0.231020 0.150158
H59   H     H_    0.030384 0.247259 0.408769 0.111982
C63   C     C_3   0.049087 0.132020 0.284361 -0.378835
H60   H     H_    0.034406 0.117028 0.174278 0.221549
H61   H     H_    0.112639 0.103550 0.311339 0.243068
C64   C     C_3   0.981635 0.090566 0.378032 -0.982202
H62   H     H_    0.000048 0.099682 0.487982 0.259849
H63   H     H_    0.978022 0.020405 0.358203 0.261522
H64   H     H_    0.917446 0.120122 0.360714 0.259086
O25   O     O_3   0.308061 0.809328 0.241397 -0.586755
C65   C     C_3   0.267514 0.890394 0.217181 0.109932
H65   H     H_    0.316538 0.936138 0.177116 0.182259
H66   H     H_    0.239777 0.920251 0.312007 0.124671
C66   C     C_3   0.197816 0.883751 0.106469 -0.349230
H67   H     H_    0.228866 0.874888 0.004112 0.250165
H68   H     H_    0.156474 0.827168 0.129212 0.241685
C67   C     C_3   0.142937 0.965681 0.104157 -0.996236
H69   H     H_    0.101032 0.965788 0.196951 0.270209
H70   H     H_    0.101296 0.969227 0.010790 0.260640
H71   H     H_    0.184297 0.024049 0.104559 0.266897
O26   O     O_3   0.710891 0.171775 0.755154 -0.590165
C68   C     C_3   0.635441 0.216913 0.794025 0.137808
H72   H     H_    0.595221 0.172120 0.856936 0.172801
H73   H     H_    0.594666 0.237723 0.703585 0.136400
C69   C     C_3   0.655041 0.295416 0.882557 -0.378041
H74   H     H_    0.674544 0.274092 0.988626 0.256074
H75   H     H_    0.707984 0.334157 0.836664 0.244375
C70   C     C_3   0.574334 0.351218 0.889964 -1.013246
H76   H     H_    0.567172 0.389375 0.792457 0.276614
H77   H     H_    0.577069 0.394990 0.979362 0.271086
H78   H     H_    0.516630 0.310249 0.901306 0.265133
O27   O     O_3   0.688334 0.193480 0.246138 -0.593513
C71   C     C_3   0.724212 0.114734 0.201182 0.131411
H79   H     H_    0.675042 0.082084 0.136462 0.174666
H80   H     H_    0.739719 0.069280 0.288752 0.124495
C72   C     C_3   0.803824 0.129047 0.111546 -0.371623
H81   H     H_    0.785106 0.158807 0.010440 0.264285
H82   H     H_    0.849562 0.173025 0.163930 0.223357
C73   C     C_3   0.847367 0.042526 0.087007 -0.974818
H83   H     H_    0.862371 0.011373 0.188067 0.255140
H84   H     H_    0.908224 0.050722 0.029689 0.265868
H85   H     H_    0.803748 0.999591 0.028273 0.258679
O28   O     O_3   0.298174 0.815488 0.750567 -0.586131
C74   C     C_3   0.367322 0.762224 0.795412 0.134188
H86   H     H_    0.401801 0.796552 0.879234 0.158369
H87   H     H_    0.415984 0.752892 0.712028 0.129851
C75   C     C_3   0.336269 0.674432 0.852443 -0.365304
H88   H     H_    0.308700 0.682540 0.957604 0.250172
H89   H     H_    0.285760 0.645637 0.786497 0.238102
C76   C     C_3   0.410154 0.610288 0.857058 -1.021932
H90   H     H_    0.433470 0.597639 0.750409 0.265369
H91   H     H_    0.388324 0.548646 0.903479 0.263725
H92   H     H_    0.463359 0.636465 0.919970 0.282039
O29   O     O_3   0.725701 0.846223 0.747036 -0.595969
C77   C     C_3   0.757419 0.931353 0.731384 0.131281
H93   H     H_    0.729287 0.971250 0.814488 0.168555
H94   H     H_    0.738232 0.962892 0.631604 0.137737
C78   C     C_3   0.854841 0.934134 0.744526 -0.395593
H95   H     H_    0.874158 0.913576 0.851018 0.235694
H96   H     H_    0.884392 0.890204 0.668028 0.215280
C79   C     C_3   0.886037 0.025143 0.715041 -0.963852
H97   H     H_    0.868941 0.044590 0.607006 0.258629
H98   H     H_    0.956700 0.028961 0.727561 0.241813
H99   H     H_    0.855419 0.070658 0.787605 0.309949
O30   O     O_3   0.301016 0.189086 0.245136 -0.588033
C80   C     C_3   0.306421 0.265435 0.161820 0.148547
H100  H     H_    0.296304 0.326165 0.220173 0.133725
H101  H     H_    0.256824 0.262469 0.078356 0.182011
C81   C     C_3   0.394377 0.274157 0.094011 -0.409024
H102  H     H_    0.405287 0.220304 0.022219 0.210336
H103  H     H_    0.394487 0.334430 0.030609 0.178933
C82   C     C_3   0.467342 0.279152 0.200664 -0.781336
H104  H     H_    0.463967 0.340755 0.257760 0.212843
H105  H     H_    0.529991 0.275316 0.147016 0.261428
H106  H     H_    0.464733 0.224944 0.275916 0.300098
O31   O     O_3   0.282499 0.167092 0.752874 -0.611070
C83   C     C_3   0.243185 0.084013 0.764034 0.078919
H107  H     H_    0.233091 0.072053 0.876566 0.138330
H108  H     H_    0.289172 0.032869 0.734858 0.201430
C84   C     C_3   0.154790 0.070293 0.690832 -0.421020
H109  H     H_    0.108041 0.046492 0.769154 0.190372
H110  H     H_    0.126894 0.130110 0.645478 0.210341
C85   C     C_3   0.161078 0.002968 0.577015 -0.919627
H111  H     H_    0.200802 0.027419 0.489894 0.250044
H112  H     H_    0.096114 0.986634 0.537473 0.256005
H113  H     H_    0.190424 0.943078 0.619061 0.265586
O32   O     O_3   0.650547 0.762742 0.277023 -0.562470
C86   C     C_3   0.588842 0.702406 0.326084 0.126695
H114  H     H_    0.547537 0.731397 0.407327 0.114299
H115  H     H_    0.619748 0.643454 0.371489 0.070606
C87   C     C_3   0.530908 0.673352 0.208350 -0.397708
H116  H     H_    0.569495 0.637510 0.131942 0.209196
H117  H     H_    0.482041 0.628776 0.252176 0.158777
C88   C     C_3   0.486121 0.749288 0.136983 -0.678552
H118  H     H_    0.475748 0.803029 0.209601 0.300080
H119  H     H_    0.422434 0.728551 0.098574 0.252341
H120  H     H_    0.525346 0.772381 0.048154 0.220416

loop_
_geom_bond_atom_site_label_1
_geom_bond_atom_site_label_2
_geom_bond_distance
_ccdc_geom_bond_type
C60   C61   1.525756 S    
C73   H83   1.104827 S    
C74   H87   1.117003 S    
C88   H118  1.107298 S    
C51   H33   1.105081 S    
O2    C2    1.315818 A    
C21   C31   1.394425 A    
C50   H31   1.105718 S    
O17   C41   1.416163 S    
N3    Cu3   2.036319 S    
O19   C47   1.420761 S    
C59   C60   1.531975 S    
C17   O17   1.381004 S    
O22   C56   1.416354 S    
C81   H103  1.110458 S    
O25   C65   1.422013 S    
C82   H106  1.104324 S    
C18   O18   1.371041 S    
C58   H48   1.103845 S    
C44   H16   1.111833 S    
O10   C6    1.309219 A    
C80   C81   1.523587 S    
C56   H45   1.102322 S    
O31   C83   1.430100 S    
C66   H67   1.110292 S    
C41   H10   1.109678 S    
N4    C15   1.363609 A    
N1    C10   1.369670 A    
C59   H52   1.115798 S    
C65   H65   1.109362 S    
O11   Cu3   1.987186 S    
C21   O21   1.383347 S    
C67   H70   1.105343 S    
C44   C45   1.507793 S    
O20   C50   1.421407 S    
C60   H53   1.109533 S    
C65   C66   1.519530 S    
C47   C48   1.521047 S    
C60   H54   1.109309 S    
O9    Cu3   1.992744 S    
C78   C79   1.517407 S    
C23   O23   1.383144 S    
C71   H79   1.109792 S    
O13   C7    1.302092 A    
O3    C2    1.298393 A    
O10   Cu4   1.992744 S    
C19   C33   1.408445 A    
C62   C63   1.531667 S    
O14   C8    1.305681 A    
C21   C36   1.404156 A    
C53   H37   1.106822 S    
C81   H102  1.104816 S    
C72   C73   1.524220 S    
C49   H29   1.108954 S    
C73   H85   1.108473 S    
O14   Cu3   1.991293 S    
C51   H32   1.111182 S    
C67   H71   1.111010 S    
C86   H114  1.113919 S    
C57   H46   1.105233 S    
O13   Cu4   1.991295 S    
C41   C42   1.518167 S    
C47   H24   1.117874 S    
C87   H117  1.109364 S    
C62   H58   1.110594 S    
C45   C46   1.515595 S    
C75   H88   1.110717 S    
C19   C25   1.398299 A    
C69   C70   1.525400 S    
C25   C38   1.424211 A    
C84   C85   1.527180 S    
C63   H61   1.109208 S    
O1    Cu1   1.992744 S    
C56   C57   1.547050 S    
O16   C7    1.311982 A    
C42   H12   1.110393 S    
O28   C74   1.416601 S    
C20   O20   1.389616 S    
C3    C34   1.472059 S    
H7    C15   1.072347 S    
O5    Cu2   1.991295 S    
C62   H59   1.113918 S    
C64   H62   1.106123 S    
C76   H92   1.102766 S    
C76   H91   1.105215 S    
C7    C38   1.480382 S    
N2    C9    1.369799 A    
C85   H112  1.107299 S    
C43   H15   1.101811 S    
N3    C16   1.368530 A    
C83   H108  1.107147 S    
C83   H107  1.109511 S    
C8    C37   1.485505 S    
C78   H95   1.109830 S    
C61   H56   1.102435 S    
C68   H73   1.118047 S    
C59   H51   1.111389 S    
O8    C3    1.305350 A    
C72   H82   1.109222 S    
C17   C34   1.409060 A    
C61   H55   1.110825 S    
C5    C40   1.469209 S    
C28   O28   1.381192 S    
C87   C88   1.522035 S    
C67   H69   1.109023 S    
C4    C33   1.469012 S    
N4    Cu4   2.036320 S    
O18   C44   1.414613 S    
C82   H104  1.110000 S    
C43   H14   1.104771 S    
C41   H9    1.117030 S    
H1    C9    1.078662 S    
Cu3   Cu4   2.709698 S    
C26   C37   1.427669 A    
C77   H93   1.109520 S    
C83   C84   1.555877 S    
C31   O31   1.382721 S    
C22   C35   1.401574 A    
C80   H100  1.114647 S    
C42   H11   1.108736 S    
C30   O30   1.390256 S    
C22   O22   1.381129 S    
O12   C5    1.304943 A    
H4    C12   1.073911 S    
N1    Cu1   2.036319 S    
C74   H86   1.108389 S    
H5    C13   1.078549 S    
C85   H113  1.105706 S    
O12   Cu4   1.987186 S    
C26   O26   1.386212 S    
O27   C71   1.416154 S    
Cu1   Cu2   2.709698 S    
C46   H21   1.102296 S    
C61   H57   1.107266 S    
C85   H111  1.108112 S    
O2    Cu2   1.992744 S    
C23   C35   1.422751 A    
C48   H25   1.105577 S    
C79   H99   1.108664 S    
C28   C38   1.410830 A    
C50   H30   1.103746 S    
C47   H23   1.111452 S    
C75   C76   1.518402 S    
C87   H116  1.106879 S    
C54   H39   1.107268 S    
O6    Cu1   1.991293 S    
N4    C13   1.370133 A    
C86   H115  1.115661 S    
C14   C15   1.418452 A    
O30   C80   1.425284 S    
C49   H28   1.106153 S    
C51   C52   1.526524 S    
C63   H60   1.110739 S    
C52   H34   1.100784 S    
C58   H50   1.107531 S    
C20   C26   1.402027 A    
C63   C64   1.524630 S    
C55   H43   1.111115 S    
O4    C1    1.303069 A    
C29   C40   1.411381 A    
C57   H47   1.111623 S    
O15   C8    1.310693 A    
C48   H26   1.110336 S    
C27   C37   1.414686 A    
C64   H64   1.107922 S    
C84   H110  1.107478 S    
C50   C51   1.540100 S    
C24   C30   1.412897 A    
C10   C11   1.421450 A    
C24   O24   1.388890 S    
C6    C39   1.486720 S    
C46   H20   1.109140 S    
C20   C34   1.414121 A    
O26   C68   1.419382 S    
H2    C10   1.076458 S    
C55   H42   1.110226 S    
C56   H44   1.113137 S    
C13   C16   1.420280 A    
C58   H49   1.110117 S    
O29   C77   1.416843 S    
O32   C86   1.419554 S    
C69   H74   1.110195 S    
C1    C36   1.469704 S    
C73   H84   1.104454 S    
N2    Cu2   2.036320 S    
N1    C12   1.367995 A    
C32   O32   1.379974 S    
H6    C14   1.069355 S    
N2    C11   1.369079 A    
C19   O19   1.382606 S    
C45   H19   1.097184 S    
C43   H13   1.107383 S    
C70   H78   1.104702 S    
C64   H63   1.108954 S    
O23   C59   1.417119 S    
C82   H105  1.106650 S    
C68   C69   1.525466 S    
C66   C67   1.529603 S    
O5    C3    1.304552 A    
C80   H101  1.111514 S    
O6    C4    1.309499 A    
O11   C6    1.308978 A    
O1    C1    1.304624 A    
C17   C27   1.393483 A    
C71   C72   1.527555 S    
C76   H90   1.111059 S    
C18   C28   1.389152 A    
C52   H36   1.107169 S    
C88   H119  1.103857 S    
C2    C35   1.481353 S    
C72   H81   1.109538 S    
C65   H66   1.117811 S    
C24   C36   1.409071 A    
O21   C53   1.420541 S    
C46   H22   1.108796 S    
C42   C43   1.512030 S    
C77   C78   1.518698 S    
O9    C5    1.302740 A    
H8    C16   1.074692 S    
C22   C32   1.394743 A    
C57   C58   1.525570 S    
C9    C12   1.419126 A    
C23   C29   1.397990 A    
C69   H75   1.110011 S    
C78   H96   1.110976 S    
O7    Cu2   1.993174 S    
C71   H80   1.117596 S    
C30   C39   1.421076 A    
C86   C87   1.516696 S    
C77   H94   1.111899 S    
C32   C40   1.403969 A    
C49   H27   1.110358 S    
C18   C33   1.393902 A    
C53   H38   1.113700 S    
O15   Cu4   1.993174 S    
C54   H40   1.110577 S    
C79   H98   1.105373 S    
O16   Cu3   1.993176 S    
C68   H72   1.111614 S    
C70   H76   1.108848 S    
C74   C75   1.541361 S    
H3    C11   1.078884 S    
C44   H17   1.119431 S    
C48   C49   1.523904 S    
C25   O25   1.385714 S    
C45   H18   1.106398 S    
O3    Cu1   1.987186 S    
C66   H68   1.108780 S    
O7    C4    1.298349 A    
O8    Cu1   1.993176 S    
C88   H120  1.109522 S    
C29   O29   1.385023 S    
C84   H109  1.110576 S    
C54   C55   1.529350 S    
C27   O27   1.387452 S    
C55   H41   1.108934 S    
C75   H89   1.104773 S    
C52   H35   1.106657 S    
O4    Cu2   1.987186 S    
N3    C14   1.367705 A    
C31   C39   1.417031 A    
C53   C54   1.543875 S    
C81   C82   1.527759 S    
C79   H97   1.110381 S    
O24   C62   1.420890 S    
C70   H77   1.103977 S    
