data_mof_unit_36507.cif
_audit_creation_date              2013-03-05T16:30:42-0500
_audit_creation_method            fapswitch 2.2
_symmetry_space_group_name_H-M    P1
_symmetry_Int_Tables_number       1
_space_group_crystal_system       triclinic
_cell_length_a                    10.933772
_cell_length_b                    10.824457
_cell_length_c                    9.54915
_cell_angle_alpha                 89.96085
_cell_angle_beta                  89.863671
_cell_angle_gamma                 90.271677
_cell_volume                      1130.14620744

loop_
_atom_site_label
_atom_site_type_symbol
_atom_site_description
_atom_site_fract_x
_atom_site_fract_y
_atom_site_fract_z
_atom_type_partial_charge
O1    O     O_R   0.500000 0.319640 0.618810 -0.547724
O2    O     O_R   0.500010 0.319680 0.381230 -0.545344
C1    C     C_R   0.503106 0.262388 0.499855 0.837798
O3    O     O_R   0.321940 0.499980 0.618760 -0.540577
O4    O     O_R   0.321950 0.500020 0.381180 -0.592428
C2    C     C_R   0.265347 0.498278 0.500165 0.845800
Cu1   Cu    Cu3+1 0.499990 0.499980 0.640670 0.979727
Cu2   Cu    Cu3+1 0.500010 0.500020 0.359330 0.957124
O5    O     O_R   0.499990 0.680320 0.618770 -0.587381
O6    O     O_R   0.500000 0.680360 0.381190 -0.588635
O7    O     O_R   0.678050 0.499980 0.618820 -0.590382
O8    O     O_R   0.678060 0.500020 0.381240 -0.571939
C3    C     C_R   0.501818 0.737585 0.500147 0.820995
C4    C     C_R   0.734645 0.501571 0.499988 0.846069
C5    C     C_2   0.933225 0.496339 0.384976 -0.149807
C6    C     C_2   0.866629 0.507684 0.502167 -0.314276
C7    C     C_2   0.067242 0.501355 0.385072 -0.167400
C8    C     C_2   0.133335 0.492093 0.502627 -0.317141
C9    C     C_R   0.486671 0.063709 0.622061 0.063713
C10   C     C_R   0.514758 0.129161 0.500137 -0.210499
C11   C     C_R   0.557567 0.063994 0.381413 0.482198
C12   C     C_R   0.559053 0.934359 0.385001 -0.315362
H1    H     H_    0.594167 0.884215 0.296045 0.167198
C13   C     C_R   0.512505 0.870638 0.501567 -0.157210
C14   C     C_R   0.484748 0.936727 0.622536 0.119446
C15   C     C_3   0.373533 0.931477 0.713805 -0.493889
C16   C     C_3   0.376442 0.071652 0.714461 -0.395779
H2    H     H_    0.292483 0.892187 0.659054 0.196950
H3    H     H_    0.392400 0.891014 0.818449 0.189362
H4    H     H_    0.296570 0.114216 0.661283 0.199261
H5    H     H_    0.398895 0.110896 0.818962 0.218968
C17   C     C_R   0.589722 0.560231 0.073125 0.257203
N1    N     N_R   0.500780 0.500930 0.147930 -0.202881
C18   C     C_R   0.419521 0.429385 0.075413 -0.197353
C19   C     C_R   0.417386 0.430278 0.925072 0.564965
N2    N     N_R   0.500780 0.500890 0.852020 -0.226575
C20   C     C_R   0.590463 0.559324 0.926042 0.171485
C21   C     C_3   0.622333 0.693140 0.918850 -0.482991
C22   C     C_3   0.618942 0.694746 0.077598 -0.506650
H6    H     H_    0.715387 0.708862 0.874976 0.196774
H7    H     H_    0.549257 0.749837 0.871117 0.214803
H8    H     H_    0.541615 0.750118 0.118907 0.205865
H9    H     H_    0.888664 0.484727 0.284225 0.167172
H10   H     H_    0.356181 0.372426 0.134062 0.151547
O9    O     O_3   0.337994 0.355433 0.849655 -0.555993
C23   C     C_3   0.217461 0.361846 0.902439 -0.383120
H11   H     H_    0.153873 0.330525 0.819226 0.192889
H12   H     H_    0.190768 0.457825 0.931263 0.154543
H13   H     H_    0.205453 0.298000 0.992584 0.155071
H14   H     H_    0.709495 0.713748 0.125899 0.195749
H15   H     H_    0.907453 0.524113 0.603558 0.141622
H16   H     H_    0.112243 0.511217 0.284079 0.161634
H17   H     H_    0.092109 0.477246 0.604345 0.144108
O10   O     O_3   0.603238 0.127007 0.266086 -0.558329
C24   C     C_3   0.526089 0.106534 0.149896 -0.281078
H18   H     H_    0.552142 0.172427 0.065720 0.187249
H19   H     H_    0.428225 0.123777 0.175977 0.145759
H20   H     H_    0.537797 0.011725 0.107347 0.147693

loop_
_geom_bond_atom_site_label_1
_geom_bond_atom_site_label_2
_geom_bond_distance
_ccdc_geom_bond_type
C7    C8    1.340439 D    
O4    Cu2   1.957522 S    
C21   H6    1.111701 S    
C24   H18   1.110047 S    
C20   C21   1.489697 S    
C4    C6    1.444478 S    
C9    C16   1.494827 S    
Cu1   N2    2.018282 S    
O10   C24   1.412335 S    
C15   H2    1.112866 S    
C9    C10   1.395310 A    
C6    H15   1.081582 S    
Cu2   O8    1.958463 S    
C17   N1    1.363140 A    
O2    C1    1.291636 A    
C5    H9    1.086561 S    
Cu1   Cu2   2.686557 S    
O9    C23   1.411895 S    
C10   C11   1.415507 A    
C16   H4    1.112841 S    
Cu1   O7    1.957521 S    
C23   H13   1.110689 S    
C15   C16   1.517516 S    
O4    C2    1.292617 A    
C21   H7    1.108511 S    
O3    Cu1   1.958463 S    
C9    C14   1.374574 A    
C7    H16   1.086587 S    
Cu2   O6    1.963354 S    
N2    C20   1.363551 A    
O8    C4    1.293120 A    
C11   C12   1.403802 A    
N1    C18   1.365935 A    
C22   H8    1.110509 S    
C23   H12   1.114972 S    
Cu2   N1    2.018706 S    
C24   H19   1.114667 S    
C11   O10   1.385830 S    
C2    C8    1.444754 S    
O7    C4    1.291271 A    
C12   C13   1.402384 A    
C24   H20   1.111865 S    
C17   C20   1.404562 A    
C16   H5    1.112324 S    
C5    C6    1.339687 D    
C19   O9    1.387659 S    
Cu1   O5    1.963109 S    
C1    C10   1.448333 S    
C22   H14   1.111604 S    
C21   C22   1.516384 S    
C13   C14   1.392757 A    
C15   H3    1.110926 S    
O3    C2    1.291891 A    
C18   C19   1.435894 A    
C23   H11   1.109278 S    
C17   C22   1.489874 S    
C5    C7    1.466060 S    
C18   H10   1.080302 S    
O5    C3    1.290950 A    
C12   H1    1.079181 S    
C8    H17   1.081431 S    
C14   C15   1.495222 S    
O1    Cu1   1.963355 S    
O2    Cu2   1.963109 S    
C19   N2    1.375454 A    
C3    C13   1.444488 S    
O1    C1    1.294794 A    
O6    C3    1.294374 A    
