data_mof_unit_5869.cif
_audit_creation_date              2013-03-05T15:46:12-0500
_audit_creation_method            fapswitch 2.2
_symmetry_space_group_name_H-M    P1
_symmetry_Int_Tables_number       1
_space_group_crystal_system       triclinic
_cell_length_a                    10.576955
_cell_length_b                    10.70066
_cell_length_c                    17.156629
_cell_angle_alpha                 80.331739
_cell_angle_beta                  90.147825
_cell_angle_gamma                 119.518424
_cell_volume                      1658.45441918

loop_
_atom_site_label
_atom_site_type_symbol
_atom_site_description
_atom_site_fract_x
_atom_site_fract_y
_atom_site_fract_z
_atom_type_partial_charge
O1    O     O_R   0.521780 0.757110 0.108900 -0.474085
O2    O     O_R   0.275160 0.783810 0.101120 -0.486519
C1    C     C_R   0.223424 0.854668 0.128856 0.554453
O3    O     O_R   0.237900 0.972600 0.090980 -0.496649
O4    O     O_R   0.511190 0.220540 0.061620 -0.473344
C2    C     C_R   0.635038 0.273987 0.089012 0.583067
O5    O     O_R   0.736920 0.257720 0.063840 -0.523190
O6    O     O_R   0.710450 0.984050 0.081720 -0.503475
C3    C     C_R   0.640682 0.858558 0.125427 0.561762
O7    O     O_R   0.524090 0.765520 0.933110 -0.543161
O8    O     O_R   0.277300 0.791600 0.938160 -0.507839
C4    C     C_R   0.225305 0.864570 0.898616 0.560428
O9    O     O_R   0.240210 0.981010 0.915190 -0.489273
O10   O     O_R   0.513330 0.228330 0.898660 -0.512836
C5    C     C_R   0.637117 0.284232 0.860856 0.554941
O11   O     O_R   0.739230 0.266130 0.888050 -0.469005
O12   O     O_R   0.712580 0.991850 0.918770 -0.455631
C6    C     C_R   0.648519 0.864509 0.900576 0.573638
Cr1   Cr    Cr6+3 0.402240 0.783890 0.019450 1.057007
Cr2   Cr    Cr6+3 0.382360 0.097900 0.991800 1.075351
Cr3   Cr    Cr6+3 0.715380 0.118170 0.988700 1.092755
O13   O     O_3   0.499990 0.999980 0.999980 -0.288886
C7    C     C_R   0.563484 0.368629 0.194979 0.026478
C8    C     C_R   0.561922 0.377292 0.275166 -0.130893
H1    H     H_    0.509091 0.431803 0.296182 0.171830
C9    C     C_R   0.641261 0.330723 0.326030 0.002510
C10   C     C_R   0.710884 0.262464 0.299234 -0.138412
H2    H     H_    0.770907 0.224323 0.338064 0.146350
C11   C     C_R   0.713032 0.252620 0.220587 -0.150606
H3    H     H_    0.768415 0.198851 0.201691 0.153355
C12   C     C_R   0.643513 0.308629 0.167415 0.013274
C13   C     C_1   0.668949 0.849029 0.205504 -0.027443
C14   C     C_1   0.679948 0.839060 0.274896 -0.036320
C15   C     C_1   0.180966 0.825888 0.211331 -0.022355
C16   C     C_1   0.151128 0.819814 0.279754 -0.022384
C17   C     C_1   0.643562 0.323113 0.778058 -0.011171
C18   C     C_1   0.651484 0.345341 0.707537 -0.011502
C19   C     C_R   0.588714 0.710286 0.802350 -0.149051
H4    H     H_    0.507725 0.616018 0.844201 0.155398
C20   C     C_R   0.575314 0.705579 0.723444 -0.130668
H5    H     H_    0.490185 0.605680 0.707637 0.173855
C21   C     C_R   0.673485 0.824591 0.666392 -0.001235
C22   C     C_R   0.790285 0.946570 0.690165 -0.128343
H6    H     H_    0.874533 0.032389 0.646043 0.184148
C23   C     C_R   0.804397 0.952953 0.770758 0.030763
C24   C     C_R   0.692018 0.839510 0.826516 0.009913
C25   C     C_R   0.228998 0.966843 0.760391 -0.130393
H7    H     H_    0.266978 0.073673 0.775031 0.162657
C26   C     C_R   0.220335 0.956161 0.681811 -0.170164
H8    H     H_    0.244092 0.053115 0.638580 0.159409
C27   C     C_R   0.168374 0.820013 0.660123 0.009172
C28   C     C_R   0.144720 0.697019 0.717851 0.192651
C29   C     C_R   0.154939 0.709601 0.797367 -0.119670
H9    H     H_    0.136327 0.616385 0.842210 0.160057
C30   C     C_R   0.192233 0.842856 0.818786 -0.005883
O14   O     O_R   0.083770 0.911170 0.376030 -0.501130
O15   O     O_R   0.808770 0.880340 0.383890 -0.497944
C31   C     C_R   0.686393 0.809809 0.357188 0.546398
O16   O     O_R   0.584340 0.689460 0.394160 -0.501804
O17   O     O_R   0.614320 0.443940 0.423590 -0.510219
C32   C     C_R   0.682661 0.387198 0.398335 0.540853
O18   O     O_R   0.805020 0.410040 0.421340 -0.513767
O19   O     O_R   0.049240 0.685450 0.403290 -0.493410
C33   C     C_R   0.103205 0.810152 0.359060 0.548876
O20   O     O_R   0.077520 0.903010 0.551800 -0.528691
O21   O     O_R   0.802980 0.872780 0.546830 -0.509383
C34   C     C_R   0.679086 0.799856 0.586304 0.550611
O22   O     O_R   0.578090 0.681300 0.569920 -0.495233
O23   O     O_R   0.608530 0.436370 0.586530 -0.512897
C35   C     C_R   0.679103 0.382926 0.624537 0.544428
O24   O     O_R   0.798770 0.401880 0.597100 -0.458321
O25   O     O_R   0.043450 0.677890 0.566230 -0.443256
C36   C     C_R   0.102305 0.802813 0.585380 0.554696
Cr4   Cr    Cr6+3 0.936650 0.882420 0.465510 1.042554
Cr5   Cr    Cr6+3 0.605770 0.565620 0.493360 1.054355
Cr6   Cr    Cr6+3 0.921340 0.550490 0.496380 1.108589
O26   O     O_3   0.821250 0.666180 0.485090 -0.275526
C37   C     C_2   0.487317 0.428818 0.141693 0.587191
O27   O     O_2   0.379853 0.428565 0.168119 -0.505363
O28   O     O_R   0.539594 0.488555 0.061774 -0.686396
H10   H     H_    0.475880 0.522156 0.031562 0.349525
N1    N     N_R   0.107639 0.559098 0.697504 0.088093
O29   O     O_R   0.187949 0.553271 0.642443 -0.324864
O30   O     O_R   0.008792 0.438112 0.742132 -0.314215
C38   C     C_2   0.942056 0.069326 0.794387 0.597593
O31   O     O_2   0.974946 0.056187 0.862458 -0.496908
O32   O     O_R   0.039839 0.189500 0.737243 -0.655597
H11   H     H_    0.132448 0.257643 0.759716 0.356328

loop_
_geom_bond_atom_site_label_1
_geom_bond_atom_site_label_2
_geom_bond_distance
_ccdc_geom_bond_type
O32   H11   1.014141 S    
C14   C31   1.402880 S    
C10   C11   1.372045 A    
O25   Cr6   1.941254 S    
C25   C26   1.371069 A    
O4    Cr2   1.941994 S    
C38   O31   1.222966 D    
O22   Cr5   2.061197 S    
O8    Cr1   1.938423 S    
C9    C10   1.389860 A    
O11   Cr3   2.059765 S    
C17   C18   1.188139 T    
C9    C32   1.443628 S    
C8    C9    1.405793 A    
O4    C2    1.269942 A    
C37   O28   1.398424 S    
O19   Cr6   1.943630 S    
C5    O11   1.262892 A    
O21   Cr4   1.942723 S    
O20   C36   1.272362 A    
C15   C16   1.199149 T    
C3    C13   1.402894 S    
O6    C3    1.264216 A    
C26   C27   1.398222 A    
Cr4   O26   1.978580 S    
C7    C8    1.394979 A    
O14   C33   1.272975 A    
O23   Cr5   1.940572 S    
C16   C33   1.422517 S    
C20   C21   1.393406 A    
C2    C12   1.445307 S    
C18   C35   1.403179 S    
O18   Cr6   2.061444 S    
C32   O18   1.268264 A    
C6    C24   1.461566 S    
O12   C6    1.282686 A    
C29   C30   1.394596 A    
O1    Cr1   2.057971 S    
O14   Cr4   2.062706 S    
C38   O32   1.398465 S    
C27   C28   1.419386 A    
O10   Cr2   1.943588 S    
Cr1   O13   1.978341 S    
O1    C3    1.263607 A    
C8    H1    1.084146 S    
C37   O27   1.223403 D    
O28   H10   1.013140 S    
C1    C15   1.421040 S    
C31   O16   1.259087 A    
O5    Cr3   2.062408 S    
O12   Cr3   1.942294 S    
O20   Cr4   2.057907 S    
C34   O22   1.269791 A    
O17   C32   1.265453 A    
C7    C12   1.411369 A    
O15   Cr4   1.939563 S    
C23   C38   1.488238 S    
C22   H6    1.083513 S    
C11   H3    1.083998 S    
C22   C23   1.399806 A    
C25   H7    1.083821 S    
O7    Cr1   2.061846 S    
O6    Cr3   1.940807 S    
Cr6   O26   1.975002 S    
C28   N1    1.433787 S    
Cr5   O26   1.976394 S    
C35   O24   1.258086 A    
C20   H5    1.083806 S    
Cr2   O13   1.974812 S    
C26   H8    1.084074 S    
N1    O30   1.301071 A    
C21   C34   1.448991 S    
C21   C22   1.408361 A    
C1    O3    1.254153 A    
O16   Cr5   2.059248 S    
C5    C17   1.403459 S    
C28   C29   1.391952 A    
C25   C30   1.400834 A    
O9    Cr2   2.059486 S    
O2    Cr1   1.943747 S    
C27   C36   1.454131 S    
O25   C36   1.268403 A    
O24   Cr6   2.062184 S    
O8    C4    1.271103 A    
C29   H9    1.084037 S    
C2    O5    1.261161 A    
O17   Cr5   1.943316 S    
C13   C14   1.187913 T    
O2    C1    1.277569 A    
C11   C12   1.406854 A    
C19   C20   1.367547 A    
O15   C31   1.267010 A    
C19   H4    1.084113 S    
O7    C6    1.263770 A    
O21   C34   1.266573 A    
C7    C37   1.486383 S    
O23   C35   1.265826 A    
C19   C24   1.406856 A    
C4    C30   1.441002 S    
O19   C33   1.262473 A    
O3    Cr2   2.063031 S    
C23   C24   1.412620 A    
C4    O9    1.258336 A    
N1    O29   1.301515 A    
C10   H2    1.084085 S    
O10   C5    1.262940 A    
Cr3   O13   1.976839 S    
