data_mof_unit_56364.cif
_audit_creation_date              2013-03-05T16:05:19-0500
_audit_creation_method            fapswitch 2.2
_symmetry_space_group_name_H-M    P1
_symmetry_Int_Tables_number       1
_space_group_crystal_system       triclinic
_cell_length_a                    10.834181
_cell_length_b                    9.5147
_cell_length_c                    15.902123
_cell_angle_alpha                 90.016918
_cell_angle_beta                  90.163525
_cell_angle_gamma                 89.990952
_cell_volume                      1639.24739244

loop_
_atom_site_label
_atom_site_type_symbol
_atom_site_description
_atom_site_fract_x
_atom_site_fract_y
_atom_site_fract_z
_atom_type_partial_charge
O1    O     O_R   0.319660 0.618740 0.500000 -0.590460
O2    O     O_R   0.319660 0.381260 0.500000 -0.589674
C1    C     C_R   0.262053 0.500005 0.499900 0.786242
O3    O     O_R   0.500020 0.618840 0.379440 -0.576811
O4    O     O_R   0.500020 0.381160 0.379440 -0.565527
C2    C     C_R   0.500223 0.499963 0.340224 0.818916
Cu1   Cu    Cu3+1 0.500020 0.640660 0.500000 0.973801
Cu2   Cu    Cu3+1 0.500020 0.359340 0.500000 0.979930
O5    O     O_R   0.680370 0.618830 0.500010 -0.588950
O6    O     O_R   0.680370 0.381170 0.500010 -0.588926
O7    O     O_R   0.500010 0.618730 0.620560 -0.566750
O8    O     O_R   0.500010 0.381270 0.620560 -0.565579
C3    C     C_R   0.737953 0.499993 0.500014 0.802238
C4    C     C_R   0.500085 0.500015 0.659816 0.822526
C5    C     C_3   0.489006 0.649909 0.049945 0.159862
C6    C     C_3   0.404525 0.402357 0.050435 0.165226
C7    C     C_3   0.398553 0.407539 0.952138 0.107424
C8    C     C_3   0.489014 0.651061 0.951496 0.083246
H1    H     H_    0.395184 0.686250 0.931468 0.093544
H2    H     H_    0.311230 0.463360 0.935560 0.086617
H3    H     H_    0.393330 0.677754 0.070769 0.040738
H4    H     H_    0.317478 0.451769 0.074376 0.058570
C9    C     C_1   0.501576 0.499966 0.749320 -0.103870
C10   C     C_3   0.513533 0.496767 0.083066 -0.099850
C11   C     C_3   0.506937 0.498535 0.916992 -0.141166
C12   C     C_3   0.632175 0.438677 0.948562 -0.417319
C13   C     C_3   0.641761 0.438295 0.048056 0.576952
C14   C     C_1   0.503583 0.499548 0.824734 0.093024
C15   C     C_1   0.508199 0.498543 0.175449 0.151674
C16   C     C_1   0.503753 0.499656 0.250805 -0.109038
H5    H     H_    0.707768 0.500065 0.919701 0.232929
H6    H     H_    0.646666 0.333961 0.920332 0.247372
C17   C     C_R   0.063872 0.372277 0.499694 -0.164136
C18   C     C_R   0.063834 0.627723 0.499875 -0.166428
H7    H     H_    0.111915 0.272420 0.499574 0.154622
H8    H     H_    0.111847 0.727583 0.499904 0.154376
C19   C     C_R   0.936176 0.372270 0.499779 -0.157508
C20   C     C_R   0.936138 0.627716 0.499961 -0.156925
H9    H     H_    0.888166 0.272408 0.499744 0.154887
H10   H     H_    0.888100 0.727576 0.500074 0.154673
C21   C     C_R   0.871794 0.499989 0.499930 -0.017570
C22   C     C_R   0.128214 0.500005 0.499801 -0.021824
C23   C     C_R   0.423017 0.074417 0.447886 -0.005581
C24   C     C_R   0.423016 0.925563 0.447887 -0.012890
H11   H     H_    0.361299 0.130533 0.406149 0.119127
H12   H     H_    0.361294 0.869430 0.406155 0.118816
N1    N     N_R   0.500030 0.852070 0.500020 -0.164448
N2    N     N_R   0.500030 0.147930 0.500020 -0.163848
C25   C     C_R   0.577081 0.925583 0.552125 0.009082
C26   C     C_R   0.577084 0.074439 0.552122 0.009084
H13   H     H_    0.638832 0.869465 0.593835 0.136072
H14   H     H_    0.638844 0.130575 0.593825 0.132217
O9    O     O_3   0.418082 0.262494 0.080679 -0.500703
C27   C     C_3   0.303317 0.206591 0.105829 -0.176689
H15   H     H_    0.234073 0.212140 0.054109 0.193520
H16   H     H_    0.268679 0.261944 0.162686 0.136964
H17   H     H_    0.316113 0.094376 0.122443 0.159112
O10   O     O_3   0.576851 0.745432 0.083916 -0.488288
C28   C     C_3   0.521941 0.876731 0.101395 -0.033515
H18   H     H_    0.455701 0.867413 0.154394 0.085256
H19   H     H_    0.475265 0.921018 0.044897 0.192969
H20   H     H_    0.595246 0.951396 0.120824 0.239143
N3    N     N_R   0.390725 0.267385 0.913069 0.177864
O11   O     O_R   0.295058 0.235494 0.867240 -0.341783
O12   O     O_R   0.475993 0.172994 0.924431 -0.256395
N4    N     N_R   0.577372 0.752134 0.915533 0.180938
O13   O     O_R   0.537568 0.850067 0.865203 -0.306218
O14   O     O_R   0.693987 0.749634 0.935276 -0.257776
N5    N     N_R   0.747147 0.527371 0.074368 0.180200
O15   O     O_R   0.752857 0.575775 0.150859 -0.291598
O16   O     O_R   0.850521 0.519212 0.033058 -0.319032
N6    N     N_R   0.666089 0.295208 0.081242 0.161758
O17   O     O_R   0.688255 0.188988 0.031914 -0.296122
O18   O     O_R   0.682236 0.277177 0.161680 -0.328310

loop_
_geom_bond_atom_site_label_1
_geom_bond_atom_site_label_2
_geom_bond_distance
_ccdc_geom_bond_type
C4    C9    1.423357 S    
O4    Cu2   1.928429 S    
C26   H14   1.081735 S    
C23   C24   1.416308 A    
Cu2   N2    2.011504 S    
C1    C22   1.450040 S    
C12   H6    1.104063 S    
C15   C16   1.199461 T    
C8    N4    1.473771 S    
C24   N1    1.366985 A    
C23   N2    1.366976 A    
C27   H15   1.112890 S    
C5    C8    1.565595 S    
N4    O14   1.301197 A    
C18   C22   1.401059 A    
C10   C13   1.597956 S    
C5    H3    1.120778 S    
Cu2   O8    1.928419 S    
C7    C11   1.563710 S    
Cu1   O5    1.964921 S    
N6    O17   1.301902 A    
N3    O12   1.300592 A    
O2    C1    1.290664 A    
C11   C12   1.553543 S    
C12   H5    1.106799 S    
C6    C10   1.570829 S    
C18   C20   1.383482 A    
C9    C14   1.199379 T    
C7    N3    1.473336 S    
C11   C14   1.467472 S    
C20   H10   1.083279 S    
N2    C26   1.366949 A    
C23   H11   1.081772 S    
C12   C13   1.585281 S    
O4    C2    1.291150 A    
C8    C11   1.563627 S    
O3    Cu1   1.928307 S    
C17   C22   1.401114 A    
N1    C25   1.366945 A    
C5    C10   1.571843 S    
C17   H7    1.083282 S    
O8    C4    1.290646 A    
C17   C19   1.383489 A    
Cu1   O7    1.928541 S    
C18   H8    1.083281 S    
C19   C21   1.401081 A    
N5    O15   1.301806 A    
C19   H9    1.083278 S    
C5    O10   1.421514 S    
C27   H16   1.112338 S    
C28   H19   1.112675 S    
O3    C2    1.291450 A    
Cu1   Cu2   2.676675 S    
N3    O11   1.301198 A    
C10   C15   1.470483 S    
C28   H18   1.112069 S    
C7    H2    1.115857 S    
N4    O13   1.301207 A    
C6    O9    1.422566 S    
C20   C21   1.401122 A    
N6    O18   1.301938 A    
C25   C26   1.416320 A    
C25   H13   1.081746 S    
O7    C4    1.290725 A    
N5    O16   1.302327 A    
O5    C3    1.291306 A    
C3    C21   1.450058 S    
C8    H1    1.115818 S    
C28   H20   1.108846 S    
C6    H4    1.121240 S    
C2    C16   1.422584 S    
O10   C28   1.411513 S    
O1    Cu1   1.965184 S    
C13   N5    1.481349 S    
O6    C3    1.291361 A    
Cu2   O6    1.964986 S    
O2    Cu2   1.965119 S    
C13   N6    1.483563 S    
O9    C27   1.411391 S    
C24   H12   1.081749 S    
C6    C7    1.565076 S    
O1    C1    1.290744 A    
C27   H17   1.108563 S    
Cu1   N1    2.011503 S    
