data_mof_unit_56627.cif
_audit_creation_date              2012-12-10T17:39:23-0500
_audit_creation_method            fapswitch 2.2
_symmetry_space_group_name_H-M    P1
_symmetry_Int_Tables_number       1
_space_group_crystal_system       triclinic
_cell_length_a                    12.311311
_cell_length_b                    13.169538
_cell_length_c                    27.800974
_cell_angle_alpha                 77.850288
_cell_angle_beta                  101.061226
_cell_angle_gamma                 116.511385
_cell_volume                      3918.38673502

loop_
_atom_site_label
_atom_site_type_symbol
_atom_type_description
_atom_site_fract_x
_atom_site_fract_y
_atom_site_fract_z
_atom_type_partial_charge
C1    C     C_R   0.854889 0.286541 0.504292 0.779631
C2    C     C_R   0.919194 0.398354 0.028883 0.042776
C3    C     C_R   0.087214 0.593225 0.023580 0.042807
C4    C     C_R   0.999092 0.499639 0.592402 0.805131
C5    C     C_R   0.003556 0.495739 0.051524 0.068426
C6    C     C_R   0.833732 0.306113 0.057874 -0.202119
C7    C     C_R   0.833974 0.307882 0.107664 -0.145986
C8    C     C_R   0.919015 0.401609 0.130602 -0.020357
C9    C     C_R   0.004102 0.495747 0.102717 -0.044164
C10   C     C_R   0.089568 0.590004 0.126135 -0.020251
C11   C     C_R   0.088155 0.588533 0.176652 0.532826
C12   C     C_R   0.081682 0.477168 0.730848 -0.146765
C13   C     C_R   0.920486 0.403751 0.181002 0.532653
C14   C     C_R   0.908039 0.508560 0.269751 -0.104160
C15   C     C_R   0.907190 0.509775 0.319695 -0.222931
C16   C     C_R   0.145085 0.713427 0.492764 0.805585
C17   C     C_R   0.097056 0.487878 0.339035 -0.217449
C18   C     C_R   0.097871 0.487097 0.289037 -0.107133
C19   C     C_R   0.003341 0.497285 0.254277 0.359778
C20   C     C_R   0.922041 0.396700 0.978185 0.043088
C21   C     C_R   0.001338 0.496389 0.949682 0.070146
C22   C     C_R   0.082164 0.595554 0.971868 0.041905
C23   C     C_R   0.993276 0.499542 0.745891 0.355718
C24   C     C_R   0.848506 0.298228 0.954806 -0.200065
C25   C     C_R   0.150726 0.694483 0.890946 -0.140522
C26   C     C_R   0.173775 0.685140 0.048633 -0.202988
C27   C     C_R   0.174555 0.683418 0.098810 -0.146536
C28   C     C_R   0.000587 0.499965 0.407620 0.792304
C29   C     C_R   0.154529 0.694413 0.941195 -0.199177
C30   C     C_R   0.275658 0.021309 0.434109 -0.181592
C31   C     C_R   0.228000 0.834541 0.482589 -0.050469
C32   C     C_R   0.815382 0.085225 0.536630 -0.181709
C33   C     C_R   0.736566 0.970359 0.546373 -0.135932
C34   C     C_R   0.999646 0.496982 0.898342 -0.039844
C35   C     C_R   0.613250 0.932644 0.529019 -0.176701
C36   C     C_R   0.566543 0.009347 0.499585 0.080559
C37   C     C_R   0.650084 0.123686 0.484885 0.081356
C38   C     C_R   0.439916 0.976062 0.483777 0.074306
C39   C     C_R   0.400333 0.053218 0.449996 0.163359
C40   C     C_R   0.922639 0.400743 0.825301 0.589546
C41   C     C_R   0.485702 0.160224 0.431466 -0.231473
C42   C     C_R   0.608795 0.194335 0.447991 -0.190620
C43   C     C_R   0.351001 0.868494 0.500842 -0.245328
C44   C     C_R   0.189798 0.912022 0.450068 -0.188911
C45   C     C_R   0.923028 0.398249 0.876059 -0.018514
C46   C     C_R   0.773046 0.163501 0.507080 -0.102826
C47   C     C_R   0.346847 0.329142 0.579003 -0.292160
C48   C     C_R   0.759554 0.645187 0.433096 0.072387
C49   C     C_R   0.662984 0.676807 0.418621 -0.247856
C50   C     C_R   0.559500 0.622076 0.443788 -0.192950
C51   C     C_R   0.551448 0.534572 0.484071 -0.007513
C52   C     C_R   0.070680 0.595412 0.818454 0.583025
C53   C     C_R   0.653094 0.505397 0.497671 0.287333
C54   C     C_R   0.447097 0.475265 0.511409 -0.036348
C55   C     C_R   0.446978 0.388651 0.551560 0.172404
C56   C     C_R   0.849056 0.299293 0.904794 -0.142095
C57   C     C_R   0.546837 0.361926 0.564276 -0.281569
C58   C     C_R   0.647497 0.419088 0.538057 -0.190013
C59   C     C_R   0.342016 0.497689 0.500909 0.017783
C60   C     C_R   0.246775 0.355459 0.566814 0.072100
C61   C     C_R   0.904899 0.522210 0.710315 0.037017
C62   C     C_R   0.907642 0.521244 0.660249 -0.313974
C63   C     C_R   0.083714 0.477049 0.681004 -0.204466
C64   C     C_2   0.809160 0.547944 0.723320 0.393093
C65   C     C_R   0.074537 0.596328 0.869149 -0.021047
C66   C     C_R   0.996850 0.499216 0.645239 -0.031256
C67   C     C_R   0.001662 0.499283 0.354824 -0.037059
Cu1   Cu    Cu3+1 0.098270 0.475420 0.511360 0.939072
Cu2   Cu    Cu3+1 0.901730 0.524580 0.488640 0.925643
H1    H     H_    0.153385 0.459608 0.670540 0.161790
H2    H     H_    0.245018 0.079787 0.408239 0.138497
H3    H     H_    0.149259 0.459824 0.758089 0.143430
H4    H     H_    0.374809 0.808231 0.528089 0.150058
H5    H     H_    0.909303 0.113239 0.553310 0.154512
H6    H     H_    0.557772 0.842406 0.538394 0.130805
H7    H     H_    0.770550 0.910569 0.568866 0.146690
H8    H     H_    0.670949 0.275685 0.430297 0.176697
H9    H     H_    0.169081 0.309928 0.587819 0.124245
H10   H     H_    0.547476 0.296000 0.595043 0.162292
H11   H     H_    0.346096 0.262782 0.609723 0.146579
H12   H     H_    0.207991 0.772452 0.869161 0.187417
H13   H     H_    0.333985 0.561812 0.471068 0.123239
H14   H     H_    0.839560 0.688171 0.413380 0.127199
H15   H     H_    0.790710 0.221708 0.888702 0.186776
H16   H     H_    0.487571 0.650060 0.430993 0.139156
H17   H     H_    0.668357 0.743976 0.387789 0.153497
H18   H     H_    0.719122 0.392507 0.551081 0.209926
H19   H     H_    0.832437 0.518509 0.330761 0.158259
H20   H     H_    0.834859 0.516722 0.242982 0.140843
H21   H     H_    0.766534 0.235040 0.128137 0.186800
H22   H     H_    0.763137 0.231655 0.043055 0.140549
H23   H     H_    0.244215 0.759445 0.030804 0.140084
H24   H     H_    0.790655 0.217585 0.974262 0.140227
H25   H     H_    0.840090 0.538416 0.632855 0.155681
H26   H     H_    0.741095 0.560200 0.694497 0.057796
H27   H     H_    0.171205 0.479885 0.365225 0.156438
H28   H     H_    0.242482 0.756208 0.116122 0.186390
H29   H     H_    0.171721 0.478236 0.277256 0.139190
H30   H     H_    0.213691 0.774621 0.954543 0.140999
H31   H     H_    0.094678 0.886679 0.435463 0.150260
H32   H     H_    0.457259 0.217989 0.403991 0.148333
N1    N     N_R   0.994989 0.498727 0.797659 -0.447114
N2    N     N_R   0.004170 0.496404 0.202881 -0.468037
N3    N     N_R   0.246290 0.438210 0.528570 -0.180668
N4    N     N_R   0.754320 0.561170 0.471730 -0.207234
O1    O     O_R   0.972510 0.318140 0.514280 -0.578233
O2    O     O_R   0.082990 0.479230 0.439860 -0.584086
O3    O     O_R   0.917010 0.520730 0.420680 -0.595610
O4    O     O_2   0.850304 0.306394 0.803625 -0.538514
O5    O     O_2   0.804805 0.556767 0.765658 -0.527428
O6    O     O_2   0.839491 0.313733 0.208039 -0.541085
O7    O     O_2   0.141567 0.690319 0.790074 -0.535934
O8    O     O_2   0.169231 0.678852 0.199303 -0.541123
O9    O     O_R   0.806530 0.359640 0.495100 -0.604346
O10   O     O_R   0.082990 0.479270 0.579320 -0.584580
O11   O     O_R   0.917010 0.520770 0.560140 -0.599038
O12   O     O_R   0.193470 0.640360 0.504900 -0.585833
O13   O     O_R   0.027490 0.681860 0.485720 -0.584720

loop_
_geom_bond_atom_site_label_1
_geom_bond_atom_site_label_2
_ccdc_geom_bond_type
C10   C27   A    
C43   H4    S    
Cu2   O11   S    
C8    C13   A    
C22   C29   A    
C41   C42   A    
C57   H10   S    
C4    O10   A    
C35   C36   A    
C59   H13   S    
C58   H18   S    
C30   H2    S    
C7    C8    A    
C39   C41   A    
C16   C31   S    
C12   C23   A    
C60   H9    S    
C26   C27   A    
C31   C43   A    
C59   N3    A    
C36   C37   A    
C32   H5    S    
C38   C39   A    
C1    C46   S    
C23   N1    S    
C52   O7    S    
C28   O2    A    
C26   H23   S    
C6    H22   S    
Cu2   O13   S    
C18   C19   A    
C37   C42   A    
C50   H16   S    
C47   C60   A    
C19   N2    S    
C20   C24   A    
C45   C56   A    
C8    C9    A    
Cu1   O2    S    
C13   N2    A    
C9    C10   A    
C1    O1    A    
C12   H3    S    
C63   C66   A    
C21   C22   A    
C52   N1    A    
C25   H12   S    
C30   C44   A    
C2    C6    A    
Cu1   O1    S    
C47   H11   S    
C14   C19   A    
C34   C65   A    
Cu2   O3    S    
C56   H15   S    
C54   C59   A    
C25   C29   A    
C40   C45   A    
Cu2   O9    S    
C17   C67   A    
C31   C44   A    
C29   H30   S    
C2    C20   A    
C28   C67   S    
C25   C65   A    
C17   H27   S    
C12   C63   A    
Cu2   N4    S    
Cu1   Cu2   S    
C21   C34   A    
C50   C51   A    
C7    H21   S    
C51   C53   A    
C61   C64   S    
C14   H20   S    
C5    C9    A    
C16   O13   A    
Cu1   O12   S    
C33   H7    S    
C64   O5    D    
C48   N4    A    
C63   H1    S    
C15   C67   A    
C17   C18   A    
C34   C45   A    
C40   O4    S    
C48   C49   A    
C55   C57   A    
C35   H6    S    
C2    C5    A    
C1    O9    A    
C47   C55   A    
C54   C55   A    
C27   H28   S    
C32   C46   A    
C49   H17   S    
C4    O11   A    
C3    C26   A    
Cu1   N3    S    
C64   H26   S    
C3    C5    A    
C53   C58   A    
C6    C7    A    
C24   C56   A    
C48   H14   S    
C51   C54   A    
C32   C33   A    
C62   H25   S    
C38   C43   A    
C13   O6    S    
C60   N3    A    
C16   O12   A    
C4    C66   S    
C44   H31   S    
C57   C58   A    
C28   O3    A    
C36   C38   A    
C33   C35   A    
C41   H32   S    
C30   C39   A    
C61   C62   A    
C11   O8    S    
C62   C66   A    
C10   C11   A    
Cu1   O10   S    
C40   N1    A    
C53   N4    A    
C23   C61   A    
C20   C21   A    
C42   H8    S    
C49   C50   A    
C14   C15   A    
C3    C22   A    
C11   N2    A    
C18   H29   S    
C37   C46   A    
C24   H24   S    
C52   C65   A    
C15   H19   S    
