data_mof_unit_55705.cif
_audit_creation_date              2012-10-26T20:24:13-0400
_audit_creation_method            fapswitch 2.2
_symmetry_space_group_name_H-M    P1
_symmetry_Int_Tables_number       1
_space_group_crystal_system       triclinic
_cell_length_a                    15.853444
_cell_length_b                    10.732942
_cell_length_c                    9.508009
_cell_angle_alpha                 91.081803
_cell_angle_beta                  89.204071
_cell_angle_gamma                 90.190645
_cell_volume                      1617.37463042

loop_
_atom_site_label
_atom_site_type_symbol
_atom_type_description
_atom_site_fract_x
_atom_site_fract_y
_atom_site_fract_z
_atom_type_partial_charge
C1    C     C_R   0.501643 0.260066 0.499262 0.584123
C2    C     C_3   0.524759 0.931453 0.650199 -0.242742
C3    C     C_3   0.416710 0.069903 0.454721 -0.266896
C4    C     C_R   0.340058 0.499886 0.500850 0.547448
C5    C     C_3   0.572179 0.069872 0.394176 -0.017474
C6    C     C_3   0.503879 0.121777 0.499336 0.077804
C7    C     C_3   0.504089 0.877773 0.501985 0.035537
C8    C     C_3   0.416651 0.926361 0.457582 -0.240935
C9    C     C_3   0.572624 0.925256 0.397255 -0.216213
C10   C     C_3   0.480768 0.626069 0.089506 -0.094138
C11   C     C_3   0.478443 0.627987 0.922129 -0.008557
C12   C     C_3   0.083033 0.496431 0.504069 0.051788
C13   C     C_3   0.586405 0.467049 0.078573 0.103442
C14   C     C_3   0.434780 0.416447 0.078197 0.075250
C15   C     C_3   0.585497 0.468680 0.911478 0.094333
C16   C     C_R   0.502277 0.739812 0.501039 0.537283
C17   C     C_3   0.439490 0.412057 0.912969 -0.034404
C18   C     C_R   0.659928 0.499732 0.499181 0.571152
C19   C     C_3   0.970239 0.484260 0.633584 0.031165
C20   C     C_3   0.026614 0.389448 0.554371 0.027404
C21   C     C_1   0.250349 0.499105 0.502753 0.007953
C22   C     C_1   0.749591 0.498863 0.497679 0.003292
C23   C     C_3   0.972947 0.604937 0.450874 -0.120321
C24   C     C_3   0.027490 0.592261 0.584294 -0.132591
C25   C     C_2   0.054217 0.267551 0.612336 0.211342
C26   C     C_2   0.939266 0.470652 0.782175 0.205091
C27   C     C_2   0.393527 0.675714 0.873377 0.224398
C28   C     C_3   0.916786 0.496974 0.501529 0.050441
C29   C     C_3   0.029833 0.509169 0.370867 -0.116459
C30   C     C_3   0.972306 0.401005 0.421516 -0.134443
C31   C     C_1   0.174770 0.498061 0.503672 0.009007
C32   C     C_1   0.825132 0.498001 0.498452 -0.002327
C33   C     C_3   0.521805 0.074075 0.649960 -0.222348
Cu1   Cu    Cu3+1 0.500040 0.499860 0.642410 0.934025
Cu2   Cu    Cu3+1 0.499960 0.500140 0.357590 0.921459
H1    H     H_    0.478670 0.897978 0.729898 0.108856
H2    H     H_    0.419933 0.657610 0.137650 0.157474
H3    H     H_    0.525997 0.697858 0.887329 0.061268
H4    H     H_    0.631035 0.540584 0.874446 0.159696
H5    H     H_    0.371418 0.454916 0.107121 0.176528
H6    H     H_    0.375854 0.428305 0.870245 0.167855
H7    H     H_    0.454286 0.316651 0.873465 0.146836
H8    H     H_    0.603530 0.372677 0.114210 0.141599
H9    H     H_    0.948875 0.322467 0.355010 0.112204
H10   H     H_    0.055466 0.519654 0.262470 0.125341
H11   H     H_    0.949737 0.693747 0.407877 0.117123
H12   H     H_    0.366329 0.106802 0.526682 0.137527
H13   H     H_    0.050889 0.670458 0.651340 0.119647
H14   H     H_    0.471166 0.106085 0.724445 0.123372
H15   H     H_    0.582151 0.112698 0.690268 0.144388
H16   H     H_    0.588440 0.900220 0.682310 0.114145
H17   H     H_    0.007195 0.199606 0.643900 0.104050
H18   H     H_    0.696367 0.098276 0.339436 0.220533
H19   H     H_    0.680660 0.083095 0.513274 0.232097
H20   H     H_    0.984416 0.462834 0.866179 0.110040
H21   H     H_    0.389992 0.740419 0.788033 0.129592
H22   H     H_    0.654068 0.635759 0.077410 0.192385
H23   H     H_    0.367100 0.893899 0.532622 0.123642
H24   H     H_    0.712051 0.508820 0.105553 0.222909
H25   H     H_    0.495285 0.252295 0.138864 0.235891
H26   H     H_    0.395951 0.278470 0.214627 0.263493
H27   H     H_    0.680237 0.343909 0.864456 0.232320
H28   H     H_    0.588747 0.274338 0.904389 0.184553
H29   H     H_    0.554684 0.097571 0.286177 0.134989
H30   H     H_    0.635515 0.889315 0.427288 0.115426
H31   H     H_    0.560213 0.888303 0.289334 0.106325
H32   H     H_    0.401593 0.099969 0.346886 0.116520
H33   H     H_    0.400489 0.888473 0.351474 0.129229
H34   H     H_    0.526272 0.697500 0.126868 0.110242
N1    N     N_3   0.501840 0.500250 0.143650 -0.213249
N2    N     N_3   0.501160 0.503300 0.856280 -0.243710
N3    N     N_3   0.655863 0.122663 0.423196 -0.637610
N4    N     N_3   0.653868 0.550643 0.128975 -0.588747
N5    N     N_3   0.434917 0.287795 0.126032 -0.675673
N6    N     N_3   0.615020 0.349368 0.850514 -0.573844
O1    O     O_R   0.500050 0.317570 0.620260 -0.494402
O2    O     O_2   0.863868 0.468223 0.809539 -0.530841
O3    O     O_2   0.327447 0.642342 0.928754 -0.556631
O4    O     O_R   0.499980 0.317810 0.379740 -0.515413
O5    O     O_R   0.379110 0.499870 0.620240 -0.494800
O6    O     O_R   0.379040 0.500110 0.379720 -0.517204
O7    O     O_R   0.500020 0.682190 0.620260 -0.538726
O8    O     O_R   0.499950 0.682430 0.379740 -0.516288
O9    O     O_R   0.620960 0.499890 0.620280 -0.474182
O10   O     O_R   0.620890 0.500130 0.379760 -0.452276
O11   O     O_2   0.128975 0.244053 0.624424 -0.508388

loop_
_geom_bond_atom_site_label_1
_geom_bond_atom_site_label_2
_ccdc_geom_bond_type
C15   N6    S    
C12   C29   S    
C2    C7    S    
C3    C6    S    
C26   H20   S    
Cu2   O6    S    
C7    C8    S    
C20   C30   S    
C21   C31   T    
C22   C32   T    
C10   H2    S    
C14   N5    S    
C4    O5    A    
C5    N3    S    
C5    C6    S    
C11   N2    S    
C20   C25   S    
C33   H14   S    
Cu1   Cu2   S    
H22   N4    S    
C19   C26   S    
C9    H31   S    
C8    H23   S    
C17   H7    S    
C4    O6    A    
C19   C20   S    
Cu2   N1    S    
C18   O9    A    
C23   C24   S    
C3    H12   S    
H24   N4    S    
Cu1   O5    S    
C27   O3    D    
C23   H11   S    
C14   N1    S    
C14   C17   S    
C30   H9    S    
Cu1   O9    S    
C9    H30   S    
C18   O10   A    
C1    C6    S    
C26   O2    D    
C28   C32   S    
C3    C8    S    
C10   C11   S    
Cu2   O8    S    
C27   H21   S    
C33   H15   S    
C16   O8    A    
C5    H29   S    
C29   H10   S    
C24   H13   S    
C11   H3    S    
C5    C9    S    
C29   C30   S    
C11   C27   S    
C12   C20   S    
C16   O7    A    
C23   C28   S    
C19   C28   S    
C15   H4    S    
C10   N1    S    
C2    C33   S    
C7    C16   S    
C13   N4    S    
C8    H33   S    
C13   C15   S    
C12   C31   S    
C1    O4    A    
H27   N6    S    
Cu2   O4    S    
C23   C29   S    
C13   H8    S    
C2    H1    S    
C7    C9    S    
C18   C22   S    
C1    O1    A    
C3    H32   S    
C17   N2    S    
H26   N5    S    
C15   N2    S    
C12   C24   S    
C6    C33   S    
C28   C30   S    
C19   C24   S    
C25   H17   S    
C4    C21   S    
Cu2   O10   S    
H28   N6    S    
H25   N5    S    
C25   O11   D    
C17   H6    S    
C2    H16   S    
C14   H5    S    
C10   H34   S    
H19   N3    S    
C13   N1    S    
Cu1   O7    S    
H18   N3    S    
Cu1   N2    S    
Cu1   O1    S    
