data_mof_unit_22583.cif
_audit_creation_date              2012-12-11T14:46:15-0500
_audit_creation_method            fapswitch 2.2
_symmetry_space_group_name_H-M    P1
_symmetry_Int_Tables_number       1
_space_group_crystal_system       triclinic
_cell_length_a                    10.966233
_cell_length_b                    10.896192
_cell_length_c                    18.791051
_cell_angle_alpha                 89.858739
_cell_angle_beta                  90.132573
_cell_angle_gamma                 119.99111
_cell_volume                      1944.69348228

loop_
_atom_site_label
_atom_site_type_symbol
_atom_type_description
_atom_site_fract_x
_atom_site_fract_y
_atom_site_fract_z
_atom_type_partial_charge
C1    C     C_R   0.864793 0.637605 0.603485 0.548812
C2    C     C_R   0.960790 0.169957 0.711300 0.011248
C3    C     C_R   0.961423 0.183142 0.786486 -0.001929
C4    C     C_R   0.270758 0.633108 0.603661 0.545821
C5    C     C_R   0.716303 0.115765 0.707770 0.012996
C6    C     C_R   0.725284 0.152530 0.779729 0.029341
C7    C     C_R   0.586088 0.062881 0.671853 -0.066950
C8    C     C_R   0.476217 0.073261 0.702465 -0.117324
C9    C     C_R   0.493824 0.133415 0.769409 -0.139327
C10   C     C_R   0.617647 0.174905 0.807369 -0.072869
C11   C     C_R   0.840905 0.149070 0.671396 -0.043193
C12   C     C_R   0.423899 0.626879 0.777354 -0.113977
C13   C     C_R   0.725789 0.534915 0.713249 -0.139016
C14   C     C_R   0.716671 0.545922 0.786507 -0.158423
C15   C     C_R   0.802871 0.675889 0.819560 0.030014
C16   C     C_R   0.860681 0.221233 0.601539 0.534217
C17   C     C_R   0.888523 0.796953 0.778497 -0.127451
C18   C     C_R   0.895740 0.786691 0.706016 -0.146072
C19   C     C_R   0.820323 0.654748 0.673418 0.022173
C20   C     C_R   0.384202 0.590147 0.295716 -0.145465
C21   C     C_R   0.417421 0.607968 0.224819 -0.180028
C22   C     C_R   0.429555 0.724447 0.187523 0.016663
C23   C     C_R   0.402615 0.618333 0.704948 -0.130852
C24   C     C_R   0.412516 0.828594 0.224592 0.234485
C25   C     C_R   0.371288 0.805587 0.295917 -0.103372
C26   C     C_R   0.351882 0.683544 0.330713 -0.018856
C27   C     C_R   0.786098 0.252460 0.274936 -0.103323
C28   C     C_R   0.872462 0.635137 0.394176 0.547416
C29   C     C_R   0.786556 0.237835 0.202186 -0.107043
C30   C     C_R   0.852131 0.168335 0.172554 0.020577
C31   C     C_R   0.930594 0.127418 0.215881 -0.130262
C32   C     C_R   0.933535 0.146104 0.289162 -0.136961
C33   C     C_R   0.856129 0.203232 0.318965 0.033202
C34   C     C_R   0.323088 0.672649 0.675251 0.027630
C35   C     C_R   0.970423 0.710696 0.274411 -0.095278
C36   C     C_R   0.956300 0.704539 0.200959 0.258403
C37   C     C_R   0.820254 0.640566 0.171517 0.007766
C38   C     C_R   0.703765 0.553702 0.214052 -0.190953
C39   C     C_R   0.718434 0.555271 0.287552 -0.166526
C40   C     C_R   0.275890 0.636578 0.397776 0.545815
C41   C     C_R   0.850967 0.640677 0.318195 -0.020412
C42   C     C_R   0.807596 0.106165 0.895237 0.523706
C43   C     C_R   0.399346 0.702183 0.895414 0.535612
C44   C     C_R   0.794143 0.696016 0.895051 0.535497
C45   C     C_R   0.839496 0.163634 0.821452 -0.034479
C46   C     C_R   0.809161 0.108139 0.102011 0.538721
C47   C     C_R   0.458969 0.728983 0.111168 0.570363
C48   C     C_R   0.798790 0.690379 0.103079 0.546101
C49   C     C_R   0.864337 0.234982 0.394114 0.540793
C50   C     C_R   0.270145 0.741359 0.718168 -0.125158
C51   C     C_R   0.294447 0.752765 0.790928 -0.133399
C52   C     C_R   0.367536 0.691357 0.820635 0.042109
C53   C     C_3   0.086841 0.670888 0.116040 0.025185
C54   C     C_3   0.139792 0.732853 0.042292 -0.308384
C55   C     C_R   0.086805 0.223500 0.824667 -0.089453
C56   C     C_R   0.207035 0.242618 0.789966 -0.123758
C57   C     C_R   0.202998 0.216459 0.717361 -0.130223
C58   C     C_R   0.080802 0.178581 0.678429 -0.081317
Cl1   Cl    Cl    0.429729 0.983142 0.184902 -0.593845
Cr1   Cr    Cr6+3 0.791660 0.390250 0.499930 1.014448
Cr2   Cr    Cr6+3 0.098520 0.708290 0.500540 1.005845
Cr3   Cr    Cr6+3 0.109770 0.401430 0.499480 1.012498
Cr4   Cr    Cr6+3 0.874790 0.925890 0.000070 1.016563
Cr5   Cr    Cr6+3 0.574120 0.948670 0.999300 1.042618
Cr6   Cr    Cr6+3 0.551420 0.625320 0.000920 0.998919
H1    H     H_    0.204906 0.780779 0.696085 0.138667
H2    H     H_    0.425597 0.524884 0.198261 0.143636
H3    H     H_    0.253216 0.805061 0.823915 0.115041
H4    H     H_    0.348209 0.879317 0.322975 0.153340
H5    H     H_    0.731120 0.303139 0.296722 0.152270
H6    H     H_    0.727396 0.272120 0.169592 0.158235
H7    H     H_    0.981958 0.073119 0.193885 0.160953
H8    H     H_    0.992475 0.112801 0.322513 0.129119
H9    H     H_    0.075371 0.766506 0.296974 0.156880
H10   H     H_    0.601231 0.489971 0.190577 0.141510
H11   H     H_    0.626855 0.491446 0.320301 0.135528
H12   H     H_    0.379203 0.038720 0.673340 0.103570
H13   H     H_    0.484338 0.582360 0.799690 0.141442
H14   H     H_    0.442770 0.563982 0.672727 0.127310
H15   H     H_    0.303272 0.277359 0.819772 0.105043
H16   H     H_    0.295254 0.226852 0.690903 0.103086
H17   H     H_    0.094477 0.246367 0.881036 0.129373
H18   H     H_    0.080587 0.153093 0.622859 0.127701
H19   H     H_    0.628907 0.226850 0.857902 0.131290
H20   H     H_    0.986912 0.568006 0.108964 0.082605
H21   H     H_    0.163226 0.645807 0.141180 0.160551
H22   H     H_    0.230223 0.842421 0.046455 0.213036
H23   H     H_    0.571848 0.019797 0.618610 0.123728
H24   H     H_    0.173116 0.666062 0.013079 0.108268
H25   H     H_    0.054750 0.735446 0.011490 0.152648
H26   H     H_    0.410774 0.145891 0.792562 0.099909
H27   H     H_    0.665635 0.431622 0.688706 0.146497
H28   H     H_    0.645155 0.453732 0.817300 0.109321
H29   H     H_    0.951014 0.900652 0.802291 0.155473
H30   H     H_    0.967586 0.880350 0.676178 0.129485
H31   H     H_    0.372053 0.495306 0.321130 0.149989
O1    O     O_R   0.766500 0.250040 0.579790 -0.515468
O2    O     O_R   0.413330 0.603360 0.920440 -0.528678
O3    O     O_R   0.676110 0.626250 0.926750 -0.509687
O4    O     O_R   0.798570 0.516780 0.574780 -0.501604
O5    O     O_R   0.895350 0.809870 0.080950 -0.470717
O6    O     O_R   0.872490 0.049760 0.073800 -0.509834
O7    O     O_R   0.691680 0.088070 0.079070 -0.481226
O8    O     O_R   0.451720 0.825250 0.074050 -0.458318
O9    O     O_R   0.413580 0.606370 0.080960 -0.536422
O10   O     O_R   0.676340 0.629040 0.075550 -0.529372
O11   O     O_3   0.666780 0.833290 0.000090 -0.267423
O12   O     O_R   0.218690 0.701900 0.425960 -0.511753
O13   O     O_R   0.984000 0.732950 0.581090 -0.529563
O14   O     O_R   0.218600 0.700890 0.574760 -0.513103
O15   O     O_R   0.249390 0.515350 0.579940 -0.515142
O16   O     O_R   0.982790 0.280900 0.573700 -0.503417
O17   O     O_R   0.766600 0.251130 0.419260 -0.524028
O18   O     O_R   0.798660 0.517790 0.425980 -0.505021
O19   O     O_R   0.984100 0.734040 0.420570 -0.524045
O20   O     O_3   0.075657 0.771861 0.158952 -0.513269
O21   O     O_R   0.249490 0.516440 0.419420 -0.521183
O22   O     O_R   0.982880 0.281910 0.424890 -0.504582
O23   O     O_3   0.999980 0.499990 0.499980 -0.242584
O24   O     O_R   0.895110 0.806860 0.920430 -0.537971
O25   O     O_R   0.872260 0.046970 0.925000 -0.505082
O26   O     O_R   0.691430 0.085060 0.918550 -0.524856
O27   O     O_R   0.451490 0.822460 0.925250 -0.500838

loop_
_geom_bond_atom_site_label_1
_geom_bond_atom_site_label_2
_ccdc_geom_bond_type
Cr5   O7    S    
C49   O17   A    
C55   C56   A    
C35   H9    S    
C6    C45   A    
Cr2   O23   S    
Cr1   O18   S    
C35   C36   A    
C43   O2    A    
Cr4   O5    S    
Cr2   O13   S    
C9    H26   S    
C7    C8    A    
C39   C41   A    
C53   C54   S    
C27   C33   A    
C46   O6    A    
C12   C23   A    
C16   O16   A    
C29   C30   A    
C36   C37   A    
Cr6   O2    S    
C54   H25   S    
C30   C31   A    
C44   O3    A    
C16   O1    A    
C27   C29   A    
C44   O24   A    
C33   C49   S    
C28   C41   S    
C56   C57   A    
Cr1   O23   S    
C15   C17   A    
C18   C19   A    
Cr2   O12   S    
Cr3   O21   S    
C1    O13   A    
C3    C55   A    
C48   O10   A    
Cr3   O15   S    
C49   O22   A    
C8    C9    A    
C47   O9    A    
C12   H13   S    
Cr2   O19   S    
C53   H21   S    
C9    C10   A    
C14   H28   S    
C53   O20   S    
C40   O12   A    
C22   C47   S    
C20   H31   S    
C13   C14   A    
C21   H2    S    
C18   H30   S    
Cr1   O17   S    
Cr4   O6    S    
C35   C41   A    
Cr2   O14   S    
C1    O4    A    
Cr6   O9    S    
C12   C52   A    
C50   C51   A    
C38   H10   S    
C38   C39   A    
C4    C34   S    
C1    C19   S    
C34   C50   A    
C13   C19   A    
C51   C52   A    
C24   C25   A    
Cr6   O3    S    
C54   H24   S    
Cr1   O1    S    
C32   H8    S    
C5    C7    A    
C25   C26   A    
C3    C45   A    
C55   H17   S    
C42   C45   S    
C6    C10   A    
C37   C38   A    
C28   O19   A    
C11   C16   S    
C7    H23   S    
C23   C34   A    
C17   C18   A    
Cr4   O25   S    
C39   H11   S    
C37   C48   S    
C50   H1    S    
Cr3   O23   S    
C27   H5    S    
C28   O18   A    
C54   H22   S    
C31   H7    S    
C4    O15   A    
C13   H27   S    
C8    H12   S    
C57   H16   S    
C25   H4    S    
Cr4   O11   S    
C36   O20   S    
C43   O27   A    
Cr6   O10   S    
C42   O26   A    
Cr5   O11   S    
Cr5   O8    S    
C4    O14   A    
C47   O8    A    
C30   C46   S    
C31   C32   A    
Cr1   O4    S    
C15   C44   S    
C53   H20   S    
C2    C58   A    
C5    C11   A    
Cr5   O27   S    
C46   O7    A    
C56   H15   S    
C32   C33   A    
C2    C3    A    
C58   H18   S    
Cr4   O24   S    
C26   C40   S    
C57   C58   A    
C5    C6    A    
C20   C26   A    
C24   Cl1   S    
Cr5   O26   S    
C48   O5    A    
C10   H19   S    
C40   O21   A    
C22   C24   A    
C51   H3    S    
C43   C52   S    
Cr3   O22   S    
Cr3   O16   S    
C20   C21   A    
C14   C15   A    
C2    C11   A    
C17   H29   S    
C23   H14   S    
C21   C22   A    
Cr6   O11   S    
C42   O25   A    
C29   H6    S    
