data_mof_unit_49075.cif
_audit_creation_date              2012-12-10T18:46:13-0500
_audit_creation_method            fapswitch 2.2
_symmetry_space_group_name_H-M    P1
_symmetry_Int_Tables_number       1
_space_group_crystal_system       triclinic
_cell_length_a                    9.844619
_cell_length_b                    10.716994
_cell_length_c                    13.135465
_cell_angle_alpha                 90.376098
_cell_angle_beta                  69.810974
_cell_angle_gamma                 90.018699
_cell_volume                      1300.67476012

loop_
_atom_site_label
_atom_site_type_symbol
_atom_type_description
_atom_site_fract_x
_atom_site_fract_y
_atom_site_fract_z
_atom_type_partial_charge
C1    C     C_R   0.500550 0.740102 0.498760 0.920944
C2    C     C_R   0.432518 0.513546 0.983752 0.038766
C3    C     C_R   0.455260 0.559007 0.878543 -0.008535
C4    C     C_R   0.542810 0.531599 0.028714 0.075769
C5    C     C_R   0.664881 0.606693 0.974450 0.093627
C6    C     C_R   0.673492 0.666289 0.878755 -0.283676
C7    C     C_R   0.567349 0.646975 0.832934 0.374447
C8    C     C_R   0.534210 0.478495 0.127232 -0.231565
C9    C     C_R   0.753108 0.583692 0.124045 -0.206041
C10   C     C_R   0.365433 0.513784 0.822720 -0.090066
C11   C     C_R   0.631225 0.935975 0.477944 -0.142591
C12   C     C_R   0.419453 0.506118 0.704407 0.930911
C13   C     C_R   0.631005 0.063811 0.478629 -0.189911
C14   C     C_R   0.500210 0.127412 0.499410 -0.016720
C15   C     C_R   0.369673 0.063955 0.519424 -0.190398
C16   C     C_R   0.369890 0.936148 0.518801 -0.181869
C17   C     C_R   0.500630 0.872547 0.498227 0.005975
C18   C     C_R   0.896221 0.425232 0.569287 -0.051985
C19   C     C_R   0.040067 0.425321 0.569326 -0.083818
C20   C     C_R   0.103696 0.574860 0.430844 -0.070910
C21   C     C_R   0.959849 0.574767 0.430805 -0.069909
C22   C     C_R   0.499973 0.259872 0.499947 0.865266
C23   C     C_R   0.580440 0.499171 0.295608 0.859003
C24   C     C_R   0.771899 0.628275 0.020725 -0.166795
C25   C     C_R   0.630156 0.513417 0.178793 -0.059328
C26   C     C_R   0.234568 0.454407 0.879751 -0.196731
C27   C     C_R   0.199343 0.429313 0.989267 -0.139518
C28   C     C_R   0.298913 0.454352 0.040376 -0.163832
H1    H     H_    0.828714 0.610922 0.163579 0.148984
H2    H     H_    0.732789 0.112423 0.462359 0.155626
H3    H     H_    0.267715 0.112662 0.536239 0.155528
H4    H     H_    0.268045 0.887576 0.535254 0.160245
H5    H     H_    0.816335 0.365365 0.624644 0.131882
H6    H     H_    0.069110 0.365618 0.624717 0.122010
H7    H     H_    0.183554 0.634794 0.375528 0.132354
H8    H     H_    0.930774 0.634530 0.375462 0.115953
H9    H     H_    0.759728 0.732285 0.841836 0.183182
H10   H     H_    0.865026 0.686027 0.980072 0.145001
H11   H     H_    0.448190 0.415428 0.169541 0.143520
H12   H     H_    0.162578 0.422295 0.838638 0.152574
H13   H     H_    0.266490 0.429218 0.124714 0.128373
H14   H     H_    0.097847 0.384082 0.033343 0.145679
H15   H     H_    0.733099 0.887197 0.461325 0.157135
N1    N     N_R   0.142790 0.500030 0.500030 -0.078367
N2    N     N_R   0.857180 0.499940 0.500010 -0.072900
O1    O     O_R   0.385370 0.683250 0.500010 -0.632004
O2    O     O_R   0.614700 0.683220 0.500010 -0.586854
O3    O     O_R   0.328400 0.499990 0.653620 -0.619740
O4    O     O_R   0.557730 0.499960 0.653620 -0.585870
O5    O     O_R   0.385300 0.316780 0.499990 -0.627592
O6    O     O_R   0.614630 0.316750 0.499990 -0.628283
O7    O     O_R   0.442270 0.500040 0.346380 -0.616616
O8    O     O_R   0.671600 0.500010 0.346380 -0.625622
Zn1   Zn    Zn3+2 0.346870 0.500020 0.500000 0.947088
Zn2   Zn    Zn3+2 0.653130 0.499980 0.500000 0.970648
Cl1   Cl    Cl    0.562774 0.754874 0.733781 -0.642441

loop_
_geom_bond_atom_site_label_1
_geom_bond_atom_site_label_2
_ccdc_geom_bond_type
C24   H10   S    
C9    C24   A    
C11   H15   S    
C6    C7    A    
C8    H11   S    
C9    H1    S    
C2    C3    A    
C16   H4    S    
C13   H2    S    
C21   N2    A    
C12   O3    A    
C4    C8    A    
C22   O5    A    
O1    Zn1   S    
O8    Zn2   S    
C12   O4    A    
C23   O7    A    
C6    H9    S    
C9    C25   A    
C21   H8    S    
C13   C14   A    
C19   N1    A    
O3    Zn1   S    
C8    C25   A    
C11   C13   A    
C27   H14   S    
C26   H12   S    
C26   C27   A    
O5    Zn1   S    
C5    C24   A    
C10   C12   S    
C7    Cl1   S    
C5    C6    A    
C2    C4    A    
C1    O2    A    
C20   N1    A    
O7    Zn1   S    
C23   O8    A    
C3    C7    A    
O6    Zn2   S    
C23   C25   S    
C14   C22   S    
C18   H5    S    
C1    O1    A    
C16   C17   A    
C15   C16   A    
C18   N2    A    
N1    Zn1   S    
C28   H13   S    
C20   C21   A    
N2    Zn2   S    
O2    Zn2   S    
C18   C19   A    
C27   C28   A    
C3    C10   A    
C14   C15   A    
C4    C5    A    
C2    C28   A    
O4    Zn2   S    
C20   H7    S    
C1    C17   S    
C15   H3    S    
C10   C26   A    
C11   C17   A    
C22   O6    A    
C19   H6    S    
