data_mof_unit_56928.cif
_audit_creation_date              2012-12-10T16:47:56-0500
_audit_creation_method            fapswitch 2.2
_symmetry_space_group_name_H-M    P1
_symmetry_Int_Tables_number       1
_space_group_crystal_system       triclinic
_cell_length_a                    7.808977
_cell_length_b                    8.549321
_cell_length_c                    10.75298
_cell_angle_alpha                 91.58514
_cell_angle_beta                  85.118811
_cell_angle_gamma                 93.586176
_cell_volume                      713.700190461

loop_
_atom_site_label
_atom_site_type_symbol
_atom_type_description
_atom_site_fract_x
_atom_site_fract_y
_atom_site_fract_z
_atom_type_partial_charge
C1    C     C_R   0.544987 0.794165 0.488014 0.874293
C2    C     C_2   0.562647 0.953820 0.453457 -0.225551
C3    C     C_1   0.802484 0.612367 0.102569 0.255043
C4    C     C_1   0.795245 0.413072 0.870274 0.295858
C5    C     C_2   0.699545 0.005070 0.354392 0.950227
C6    C     C_2   0.990784 0.686784 0.580182 1.138360
C7    C     C_2   0.433071 0.041550 0.498184 -0.384545
C8    C     C_R   0.501941 0.501473 0.737219 0.936923
C9    C     C_R   0.454635 0.205539 0.497252 0.980750
C10   C     C_R   0.500397 0.503771 0.262926 0.956329
C11   C     C_2   0.647591 0.534825 0.057724 -0.056825
C12   C     C_2   0.502835 0.497698 0.130633 -0.359020
C13   C     C_2   0.649392 0.494748 0.926947 -0.012250
C14   C     C_2   0.511031 0.526176 0.868026 -0.379864
H1    H     H_    0.387403 0.445659 0.092415 0.156882
H2    H     H_    0.403572 0.583590 0.916926 0.163137
H3    H     H_    0.320964 0.994769 0.555461 0.199532
H4    H     H_    0.007796 0.364292 0.422099 0.200923
H5    H     H_    0.767368 0.139497 0.204457 0.338423
H6    H     H_    0.876129 0.807955 0.724103 0.320923
N1    N     N_2   0.950320 0.457950 0.466680 -0.196384
N2    N     N_2   0.049680 0.542050 0.533320 -0.160849
N3    N     N_1   0.925964 0.673987 0.137938 -0.147841
N4    N     N_1   0.911548 0.347959 0.825555 -0.190395
O1    O     O_R   0.389250 0.738570 0.508180 -0.614645
O2    O     O_R   0.665337 0.115056 0.267117 -0.798607
O3    O     O_2   0.025605 0.804821 0.519416 -0.600206
O4    O     O_R   0.908343 0.697409 0.700177 -0.822261
O5    O     O_R   0.678390 0.711630 0.486820 -0.594500
O6    O     O_R   0.355470 0.513470 0.691600 -0.622842
O7    O     O_R   0.644610 0.486520 0.670240 -0.590588
O8    O     O_R   0.321610 0.288370 0.513180 -0.625554
O9    O     O_R   0.610750 0.261430 0.491820 -0.606394
O10   O     O_R   0.355390 0.513480 0.329760 -0.624977
O11   O     O_R   0.644530 0.486530 0.308400 -0.599251
O12   O     O_2   0.839239 0.947055 0.346304 -0.568738
Zn1   Zn    Zn3+2 0.306940 0.517990 0.514260 0.997758
Zn2   Zn    Zn3+2 0.693060 0.482010 0.485740 1.016726

loop_
_geom_bond_atom_site_label_1
_geom_bond_atom_site_label_2
_ccdc_geom_bond_type
O5    Zn2   S    
C1    O1    A    
C11   C12   D    
C12   H1    S    
C10   O11   A    
N2    Zn1   S    
H4    N1    S    
C3    N3    T    
C2    C7    D    
O7    Zn2   S    
C8    O6    A    
C1    O5    A    
C10   O10   A    
C13   C14   D    
C9    O9    A    
C11   C13   S    
C6    O3    D    
C10   C12   S    
C4    N4    T    
C14   H2    S    
C2    C5    S    
C3    C11   S    
C5    O2    S    
O10   Zn1   S    
C5    O12   D    
O11   Zn2   S    
C1    C2    S    
C4    C13   S    
C7    C9    S    
H5    O2    S    
C8    C14   S    
O8    Zn1   S    
H6    O4    S    
C9    O8    A    
O1    Zn1   S    
N1    N2    D    
C8    O7    A    
C6    O4    S    
N1    Zn2   S    
O9    Zn2   S    
O6    Zn1   S    
C7    H3    S    
C6    N2    S    
