data_mof_unit_67343.cif
_audit_creation_date              2013-03-05T16:08:09-0500
_audit_creation_method            fapswitch 2.2
_symmetry_space_group_name_H-M    P1
_symmetry_Int_Tables_number       1
_space_group_crystal_system       triclinic
_cell_length_a                    19.898203
_cell_length_b                    23.518392
_cell_length_c                    8.849632
_cell_angle_alpha                 90.448049
_cell_angle_beta                  105.337115
_cell_angle_gamma                 89.932504
_cell_volume                      3993.78107588

loop_
_atom_site_label
_atom_site_type_symbol
_atom_site_description
_atom_site_fract_x
_atom_site_fract_y
_atom_site_fract_z
_atom_type_partial_charge
P1    P     P_3+3 0.853370 0.434890 0.996520 0.479389
P2    P     P_3+3 0.853370 0.565110 0.496520 0.484256
P3    P     P_3+3 0.353370 0.934890 0.996520 0.478958
P4    P     P_3+3 0.353370 0.065110 0.496520 0.477508
O1    O     O_2   0.860260 0.414960 0.826400 -0.368608
O2    O     O_2   0.860260 0.585040 0.326400 -0.366507
O3    O     O_2   0.360260 0.914960 0.826400 -0.374689
O4    O     O_2   0.360260 0.085040 0.326400 -0.372226
O5    O     O_3   0.918600 0.470180 0.098890 -0.358753
O6    O     O_3   0.918600 0.529820 0.598890 -0.360067
O7    O     O_3   0.418600 0.970180 0.098890 -0.362103
O8    O     O_3   0.418600 0.029820 0.598890 -0.361841
O9    O     O_3   0.975750 0.362410 0.628650 -0.292587
O10   O     O_3   0.975750 0.637590 0.128650 -0.317800
O11   O     O_3   0.475750 0.862410 0.628650 -0.292182
O12   O     O_3   0.475750 0.137590 0.128650 -0.307865
O13   O     O_2   0.861652 0.323343 0.676589 -0.424818
O14   O     O_2   0.859645 0.674507 0.176188 -0.406766
O15   O     O_2   0.361540 0.823543 0.680125 -0.428526
O16   O     O_2   0.359196 0.175236 0.172068 -0.429271
O17   O     O_3   0.783640 0.482858 0.973126 -0.603962
O18   O     O_3   0.781391 0.519689 0.472274 -0.615198
O19   O     O_3   0.282528 0.981912 0.967345 -0.608957
O20   O     O_3   0.281551 0.018617 0.466058 -0.613227
O21   O     O_3   0.939605 0.242648 0.616656 -0.590414
O22   O     O_3   0.937568 0.755277 0.124557 -0.556788
O23   O     O_3   0.439314 0.742414 0.621561 -0.582105
O24   O     O_3   0.438057 0.257874 0.130179 -0.587179
C1    C     C_3   0.002248 0.156204 0.581846 -0.633649
C2    C     C_3   0.001715 0.841203 0.117203 -0.704555
C3    C     C_3   0.503282 0.655992 0.591884 -0.638381
C4    C     C_3   0.504260 0.344562 0.120623 -0.631719
H1    H     H_    0.992377 0.141328 0.691722 0.218640
H2    H     H_    0.029891 0.845915 0.239650 0.190632
H3    H     H_    0.494935 0.641500 0.703455 0.217319
H4    H     H_    0.501423 0.355698 0.238647 0.227427
H5    H     H_    0.959295 0.140356 0.483736 0.281920
H6    H     H_    0.950123 0.859133 0.108415 0.304830
H7    H     H_    0.460197 0.639505 0.497775 0.291471
H8    H     H_    0.458721 0.363393 0.039547 0.312136
P5    P     P_3+3 0.146350 0.434230 0.693140 0.584747
P6    P     P_3+3 0.146350 0.565770 0.193140 0.512328
P7    P     P_3+3 0.646350 0.934230 0.693140 0.563005
P8    P     P_3+3 0.646350 0.065770 0.193140 0.531775
P9    P     P_3+3 0.091974 0.312168 0.123011 0.548927
P10   P     P_3+3 0.090945 0.688649 0.631851 0.588326
P11   P     P_3+3 0.591104 0.811857 0.125626 0.544343
P12   P     P_3+3 0.588336 0.189027 0.634778 0.575388
O25   O     O_2   0.139400 0.414340 0.863230 -0.272193
O26   O     O_2   0.139400 0.585660 0.363230 -0.344456
O27   O     O_2   0.639400 0.914340 0.863230 -0.277104
O28   O     O_2   0.639400 0.085660 0.363230 -0.283972
O29   O     O_3   0.023740 0.362300 0.060930 -0.373860
O30   O     O_3   0.023740 0.637700 0.560930 -0.311609
O31   O     O_3   0.523740 0.862300 0.060930 -0.366773
O32   O     O_3   0.523740 0.137700 0.560930 -0.353035
O33   O     O_2   0.140831 0.321383 0.015664 -0.367670
O34   O     O_2   0.148432 0.672236 0.552566 -0.426886
O35   O     O_2   0.641578 0.821474 0.022289 -0.372281
O36   O     O_2   0.638561 0.183616 0.531459 -0.421916
O37   O     O_3   0.216519 0.477171 0.777785 -0.542746
O38   O     O_3   0.215533 0.521168 0.279326 -0.560136
O39   O     O_3   0.724562 0.968812 0.771015 -0.565139
O40   O     O_3   0.718662 0.023920 0.283651 -0.563953
O41   O     O_3   0.057719 0.244082 0.064972 -0.463151
O42   O     O_3   0.068504 0.757494 0.555342 -0.477510
O43   O     O_3   0.556791 0.743959 0.065031 -0.471696
O44   O     O_3   0.552997 0.256858 0.584385 -0.446352
C5    C     C_3   0.986053 0.247707 0.989941 0.352450
C6    C     C_3   0.995907 0.764623 0.501745 0.282033
C7    C     C_3   0.484735 0.747343 0.993829 0.363533
C8    C     C_3   0.481318 0.252629 0.511880 0.362544
H9    H     H_    0.979065 0.271523 0.880468 0.080144
H10   H     H_    0.977440 0.742636 0.389224 0.124362
H11   H     H_    0.476301 0.771600 0.884760 0.082547
H12   H     H_    0.473393 0.228206 0.401362 0.065250
H13   H     H_    0.957463 0.272555 0.058662 0.042854
H14   H     H_    0.967461 0.742349 0.574772 0.132112
H15   H     H_    0.456877 0.771687 0.064731 0.034771
H16   H     H_    0.453903 0.228156 0.584094 0.092987
C9    C     C_3   0.949958 0.188869 0.956665 0.209642
C10   C     C_3   0.972763 0.828522 0.484886 0.038820
C11   C     C_3   0.448923 0.688366 0.960982 0.188612
C12   C     C_3   0.445981 0.311624 0.477106 0.124481
H17   H     H_    0.926053 0.184375 0.830470 0.097178
H18   H     H_    0.937818 0.834189 0.366561 0.120033
H19   H     H_    0.425676 0.683423 0.834618 0.092569
H20   H     H_    0.424661 0.314645 0.350835 0.097686
C13   C     C_3   0.240052 0.487060 0.178862 0.188600
C14   C     C_3   0.234405 0.516378 0.682918 0.189044
C15   C     C_3   0.738390 0.984064 0.187615 0.221563
C16   C     C_3   0.740725 0.010474 0.681204 0.290515
H21   H     H_    0.224397 0.503202 0.056969 0.102581
H22   H     H_    0.209413 0.508020 0.556825 0.132685
H23   H     H_    0.722976 0.997548 0.063011 0.085433
H24   H     H_    0.711134 0.007811 0.555970 0.110737
C17   C     C_3   0.321128 0.485226 0.243785 -0.553208
C18   C     C_3   0.314793 0.514104 0.716569 -0.652409
C19   C     C_3   0.819572 0.975584 0.246598 -0.570818
C20   C     C_3   0.820010 0.007934 0.697926 -0.591469
H25   H     H_    0.337178 0.513947 0.345678 0.249038
H26   H     H_    0.337566 0.500390 0.836798 0.224982
H27   H     H_    0.839474 0.992450 0.366014 0.192727
H28   H     H_    0.848574 0.010502 0.823291 0.231022
H29   H     H_    0.340781 0.442651 0.285914 0.215005
H30   H     H_    0.339658 0.555226 0.705169 0.221095
H31   H     H_    0.835531 0.930387 0.259138 0.223884
H32   H     H_    0.836905 0.044547 0.640003 0.241923
Ba1   Ba    Ba6+2 0.999900 0.457470 0.844900 1.667114
Ba2   Ba    Ba6+2 0.999900 0.542530 0.344900 1.670098
Ba3   Ba    Ba6+2 0.499900 0.957470 0.844900 1.663280
Ba4   Ba    Ba6+2 0.499900 0.042530 0.344900 1.671466
C21   C     C_3   0.753951 0.501086 0.819637 0.342158
C22   C     C_3   0.756213 0.495949 0.322762 0.342205
C23   C     C_3   0.258813 0.003046 0.814768 0.347874
C24   C     C_3   0.254343 0.000034 0.310518 0.326199
H33   H     H_    0.794908 0.514664 0.763423 0.099528
H34   H     H_    0.799446 0.480106 0.276188 0.094132
H35   H     H_    0.303046 0.018083 0.770942 0.096571
H36   H     H_    0.296828 0.985122 0.260297 0.107846
C25   C     C_3   0.707336 0.454830 0.721849 -0.805280
C26   C     C_3   0.710569 0.538584 0.210263 -0.783788
C27   C     C_3   0.214996 0.958606 0.702773 -0.784436
C28   C     C_3   0.210924 0.046543 0.207973 -0.808897
H37   H     H_    0.738541 0.427083 0.666064 0.248063
H38   H     H_    0.743053 0.566787 0.159771 0.252109
H39   H     H_    0.248034 0.931418 0.649620 0.258075
H40   H     H_    0.244009 0.072680 0.153478 0.254420
H41   H     H_    0.666226 0.473827 0.625607 0.282026
H42   H     H_    0.674425 0.515835 0.111249 0.262833
H43   H     H_    0.176923 0.979580 0.604403 0.260363
H44   H     H_    0.170379 0.027565 0.109627 0.263592
H45   H     H_    0.681633 0.429306 0.795893 0.250784
H46   H     H_    0.679098 0.564570 0.271738 0.261762
H47   H     H_    0.185869 0.931645 0.766157 0.262082
H48   H     H_    0.184264 0.073551 0.277897 0.257291
O45   O     O_3   0.081330 0.529680 0.090830 -0.387923
O46   O     O_3   0.081330 0.470320 0.590830 -0.382858
O47   O     O_3   0.581330 0.029680 0.090830 -0.392279
O48   O     O_3   0.581330 0.970320 0.590830 -0.399887
P13   P     P_3+3 0.906892 0.685419 0.066733 0.562476
P14   P     P_3+3 0.908601 0.313309 0.565494 0.539825
P15   P     P_3+3 0.408575 0.187506 0.068259 0.538693
P16   P     P_3+3 0.408189 0.813011 0.568620 0.543044
C29   C     C_3   0.001572 0.223010 0.578817 0.688043
C30   C     C_3   0.997174 0.776023 0.080149 0.712816
C31   C     C_3   0.501495 0.722667 0.584952 0.691168
C32   C     C_3   0.500974 0.278429 0.099839 0.664039
H49   H     H_    0.904810 0.187294 0.007912 0.116702
H50   H     H_    0.939228 0.838152 0.562976 0.153113
H51   H     H_    0.403337 0.687028 0.010858 0.115525
H52   H     H_    0.399388 0.313771 0.523185 0.092033
C33   C     C_R   0.140287 0.689055 0.844751 0.414256
C34   C     C_R   0.146715 0.314554 0.336052 0.367045
C35   C     C_R   0.643800 0.186529 0.842294 0.329833
C36   C     C_R   0.643792 0.812628 0.339997 0.379161
C37   C     C_R   0.193186 0.730185 0.905343 0.038207
C38   C     C_R   0.196416 0.271712 0.400691 0.017716
C39   C     C_R   0.696239 0.228176 0.902149 -0.021398
C40   C     C_R   0.693850 0.769938 0.403409 0.019923
C41   C     C_R   0.789789 0.321178 0.032125 -0.053653
C42   C     C_R   0.788727 0.678299 0.532442 -0.062461
C43   C     C_R   0.288415 0.821879 0.035540 -0.030998
C44   C     C_R   0.290317 0.179714 0.532471 -0.062480
C45   C     C_R   0.757182 0.316938 0.871651 -0.156815
C46   C     C_R   0.754942 0.681047 0.372362 -0.129895
C47   C     C_R   0.255448 0.818333 0.875304 -0.143394
C48   C     C_R   0.257034 0.182552 0.372237 -0.149419
C49   C     C_R   0.210036 0.773608 0.811607 -0.062299
C50   C     C_R   0.211768 0.227042 0.307817 -0.066400
C51   C     C_R   0.711848 0.272021 0.808052 -0.085557
C52   C     C_R   0.709432 0.725608 0.309338 -0.075582
C53   C     C_R   0.835888 0.367792 0.102090 0.170189
C54   C     C_R   0.836731 0.633002 0.600940 0.182143
C55   C     C_R   0.335463 0.867879 0.104476 0.181204
C56   C     C_R   0.337542 0.133929 0.601361 0.166481
H53   H     H_    0.765426 0.348486 0.792620 0.190949
H54   H     H_    0.762604 0.648678 0.293059 0.183735
H55   H     H_    0.263638 0.850207 0.796352 0.189447
H56   H     H_    0.265472 0.150556 0.293526 0.191261
H57   H     H_    0.188472 0.774132 0.686614 0.196880
H58   H     H_    0.188979 0.225687 0.182815 0.168284
H59   H     H_    0.688199 0.273126 0.683452 0.199329
H60   H     H_    0.686359 0.724400 0.184532 0.166005
C57   C     C_R   0.866406 0.366334 0.265012 -0.461164
C58   C     C_R   0.868709 0.635699 0.762506 -0.338933
C59   C     C_R   0.366303 0.865845 0.267574 -0.440453
C60   C     C_R   0.370961 0.137906 0.762562 -0.356458
C61   C     C_R   0.168692 0.636552 0.096912 0.154518
C62   C     C_R   0.171385 0.365175 0.594466 0.303066
C63   C     C_R   0.672658 0.134570 0.094768 0.185080
C64   C     C_R   0.667706 0.862711 0.598856 0.329302
C65   C     C_R   0.218554 0.682599 0.162667 -0.138627
C66   C     C_R   0.219313 0.318831 0.662515 -0.150736
C67   C     C_R   0.722206 0.181209 0.160410 -0.206343
C68   C     C_R   0.715854 0.816025 0.667126 -0.158019
C69   C     C_R   0.228352 0.729671 0.065647 0.070553
C70   C     C_R   0.229748 0.271850 0.563569 -0.003335
C71   C     C_R   0.730717 0.228542 0.062983 0.024181
C72   C     C_R   0.726880 0.769616 0.566302 -0.008682
C73   C     C_R   0.254004 0.688886 0.323152 0.460590
C74   C     C_R   0.253362 0.312951 0.825104 0.558557
C75   C     C_R   0.757553 0.188941 0.320877 0.554562
C76   C     C_R   0.748186 0.807884 0.830847 0.574890
C77   C     C_R   0.780852 0.241735 0.382548 -0.222305
C78   C     C_R   0.772791 0.754294 0.885229 -0.329746
C79   C     C_R   0.276942 0.742051 0.385801 -0.177401
C80   C     C_R   0.278621 0.259991 0.884004 -0.321915
C81   C     C_R   0.801992 0.281146 0.290481 -0.029653
C82   C     C_R   0.799050 0.717864 0.791959 0.005216
C83   C     C_R   0.300220 0.781160 0.294192 -0.022251
C84   C     C_R   0.302864 0.221515 0.791227 -0.011031
C85   C     C_R   0.774887 0.276765 0.127731 0.100147
C86   C     C_R   0.772564 0.722405 0.629417 0.102152
C87   C     C_R   0.273245 0.777315 0.131084 0.096682
C88   C     C_R   0.275179 0.224696 0.628385 0.080797
C89   C     C_R   0.852870 0.322087 0.358677 0.392797
C90   C     C_R   0.852082 0.678202 0.858507 0.376163
C91   C     C_R   0.352006 0.821735 0.361972 0.369403
C92   C     C_R   0.355269 0.181312 0.858172 0.385492
C93   C     C_R   0.127669 0.645244 0.942677 -0.306617
C94   C     C_R   0.135421 0.359026 0.435200 -0.349356
C95   C     C_R   0.631364 0.143125 0.941039 -0.258381
C96   C     C_R   0.631994 0.856618 0.439864 -0.342624
H61   H     H_    0.795068 0.246975 0.508316 0.186542
H62   H     H_    0.784070 0.745527 0.008405 0.178670
H63   H     H_    0.291955 0.746700 0.511721 0.187210
H64   H     H_    0.292119 0.253652 0.008580 0.179343
H65   H     H_    0.902653 0.399435 0.319807 0.170054
H66   H     H_    0.906754 0.603823 0.815577 0.155604
H67   H     H_    0.403170 0.898573 0.322099 0.167502
H68   H     H_    0.408684 0.105868 0.816014 0.158814
H69   H     H_    0.086384 0.615169 0.894021 0.178640
H70   H     H_    0.094152 0.388781 0.388631 0.147184
H71   H     H_    0.589307 0.113530 0.893526 0.180087
H72   H     H_    0.590908 0.886490 0.393324 0.154027
C97   C     C_2   0.065301 0.245624 0.697861 0.917079
O49   O     O_2   0.079476 0.295928 0.701576 -0.585531
O50   O     O_R   0.106892 0.209407 0.808437 -0.775768
H73   H     H_    0.148483 0.229103 0.879970 0.339245
C98   C     C_2   0.064504 0.750765 0.174724 0.877344
O51   O     O_2   0.119652 0.773455 0.175290 -0.632137
O52   O     O_R   0.065068 0.703359 0.265157 -0.713246
H74   H     H_    0.112520 0.685841 0.293416 0.343231
C99   C     C_2   0.564766 0.745455 0.704667 0.906168
O53   O     O_2   0.577564 0.795995 0.712004 -0.585642
O54   O     O_R   0.606724 0.708988 0.814026 -0.777317
H75   H     H_    0.646306 0.728964 0.890796 0.339593
C100  C     C_2   0.562603 0.253072 0.213935 0.957856
O55   O     O_2   0.597968 0.280124 0.325490 -0.601265
O56   O     O_R   0.578867 0.197622 0.191655 -0.750553
H76   H     H_    0.618965 0.184515 0.276874 0.349929
C101  C     C_2   0.361868 0.504305 0.134242 1.223713
O57   O     O_2   0.351744 0.551199 0.074750 -0.615620
O58   O     O_R   0.414695 0.469365 0.108578 -0.705851
H77   H     H_    0.441073 0.487145 0.037646 0.366986
C102  C     C_2   0.339651 0.472091 0.617433 1.268968
O59   O     O_2   0.398094 0.477816 0.600426 -0.550371
O60   O     O_R   0.298589 0.425507 0.551516 -0.818625
H78   H     H_    0.325209 0.396599 0.504787 0.334035
C103  C     C_2   0.861383 0.002098 0.147467 1.226586
O61   O     O_2   0.855900 0.052533 0.116069 -0.537466
O62   O     O_R   0.911003 0.969255 0.101644 -0.727906
H79   H     H_    0.940789 0.992721 0.049179 0.370343
C104  C     C_2   0.843947 0.954947 0.633204 1.186664
O63   O     O_2   0.905968 0.948979 0.643661 -0.538556
O64   O     O_R   0.796768 0.912891 0.561156 -0.820449
H80   H     H_    0.820541 0.878807 0.527147 0.327612
C105  C     C_2   0.710390 0.552093 0.835260 0.944747
O65   O     O_2   0.648072 0.547068 0.824151 -0.558565
O66   O     O_R   0.742945 0.604154 0.880022 -0.853226
H81   H     H_    0.709614 0.634270 0.898958 0.358018
C106  C     C_2   0.712267 0.446404 0.345232 0.945885
O67   O     O_2   0.650376 0.452973 0.336801 -0.563866
O68   O     O_R   0.743928 0.394398 0.393444 -0.839956
H82   H     H_    0.710420 0.365403 0.416757 0.368983
C107  C     C_2   0.213621 0.053153 0.827850 0.937635
O69   O     O_2   0.151911 0.046391 0.820927 -0.580347
O70   O     O_R   0.243887 0.106510 0.864570 -0.852281
H83   H     H_    0.209675 0.135948 0.882910 0.362181
C108  C     C_2   0.207703 0.950148 0.317102 0.989230
O71   O     O_2   0.145373 0.957120 0.303123 -0.564239
O72   O     O_R   0.236625 0.896266 0.349455 -0.832615
H84   H     H_    0.200680 0.866128 0.352334 0.382774
S1    S     S_3+6 0.000221 0.241361 0.384812 -0.071281
O73   O     O_2   0.059078 0.212737 0.338960 -0.271701
O74   O     O_2   0.932127 0.221268 0.279845 -0.355799
O75   O     O_3   0.007280 0.311813 0.374865 -0.610200
H85   H     H_    0.980742 0.322098 0.268795 0.335168
S2    S     S_3+6 0.990924 0.762970 0.880036 -0.119611
O76   O     O_2   0.992374 0.700540 0.847093 -0.422596
O77   O     O_2   0.924332 0.787939 0.782528 -0.357074
O78   O     O_3   0.060508 0.791804 0.838730 -0.572128
H86   H     H_    0.042912 0.826535 0.782358 0.405558
S3    S     S_3+6 0.499525 0.740174 0.389674 -0.068536
O79   O     O_2   0.558120 0.711683 0.342396 -0.277258
O80   O     O_2   0.431320 0.719840 0.285904 -0.330427
O81   O     O_3   0.505572 0.810585 0.378059 -0.617727
H87   H     H_    0.480160 0.820662 0.271054 0.332176
S4    S     S_3+6 0.502911 0.264114 0.903988 -0.066035
O82   O     O_2   0.500571 0.201689 0.869039 -0.375353
O83   O     O_2   0.440550 0.292128 0.798523 -0.314325
O84   O     O_3   0.577017 0.289951 0.877041 -0.559782
H88   H     H_    0.566191 0.326664 0.825038 0.405909
C109  C     C_2   0.065483 0.124041 0.561798 1.256918
O85   O     O_2   0.060180 0.072748 0.537923 -0.592453
O86   O     O_R   0.128802 0.150991 0.568859 -0.768466
H89   H     H_    0.164953 0.123759 0.548318 0.313663
C110  C     C_2   0.038832 0.880184 0.031695 1.310999
O87   O     O_2   0.005909 0.917200 0.947963 -0.532315
O88   O     O_R   0.110818 0.876081 0.052992 -0.740596
H90   H     H_    0.129398 0.905386 0.990903 0.325960
C111  C     C_2   0.565883 0.624059 0.567447 1.266890
O89   O     O_2   0.560020 0.573027 0.539370 -0.566742
O90   O     O_R   0.629339 0.650929 0.575701 -0.774013
H91   H     H_    0.665226 0.623768 0.553622 0.310390
C112  C     C_2   0.566353 0.375972 0.093235 1.190869
O91   O     O_2   0.558392 0.424450 0.042753 -0.590627
O92   O     O_R   0.632318 0.350997 0.125268 -0.772463
H92   H     H_    0.667010 0.375136 0.088505 0.308756
S5    S     S_3+6 0.312687 0.638058 0.417208 -0.042295
O93   O     O_2   0.354369 0.616175 0.311360 -0.221286
O94   O     O_2   0.358938 0.660121 0.567214 -0.339436
O95   O     O_3   0.269372 0.588505 0.472148 -0.554791
H93   H     H_    0.244832 0.611983 0.532123 0.356270
S6    S     S_3+6 0.310244 0.364499 0.930272 -0.009242
O96   O     O_2   0.358971 0.382448 0.836587 -0.240776
O97   O     O_2   0.273739 0.414299 0.967548 -0.325455
O98   O     O_3   0.355491 0.340508 0.104333 -0.519830
H94   H     H_    0.320884 0.328175 0.159222 0.356886
S7    S     S_3+6 0.799481 0.136785 0.443874 -0.041805
O99   O     O_2   0.821875 0.089597 0.357054 -0.256548
O100  O     O_2   0.861315 0.158091 0.564850 -0.337985
O101  O     O_3   0.744913 0.118896 0.541982 -0.539273
H95   H     H_    0.751204 0.149591 0.621895 0.353380
S8    S     S_3+6 0.803576 0.857035 0.951672 -0.001836
O102  O     O_2   0.858302 0.875058 0.874240 -0.219716
O103  O     O_2   0.766329 0.907441 0.982561 -0.313334
O104  O     O_3   0.841416 0.829248 0.128103 -0.549751
H96   H     H_    0.803247 0.817533 0.173332 0.358438
S9    S     S_3+6 0.002385 0.126746 0.021048 0.070234
O105  O     O_2   0.973237 0.078687 0.910355 -0.281655
O106  O     O_2   0.077378 0.135415 0.023009 -0.220769
O107  O     O_3   0.997489 0.109071 0.201155 -0.443664
H97   H     H_    0.020327 0.071404 0.220704 0.382169
S10   S     S_3+6 0.038412 0.884324 0.516176 0.005689
O108  O     O_2   0.108137 0.861382 0.510290 -0.277912
O109  O     O_2   0.014912 0.927884 0.389607 -0.241655
O110  O     O_3   0.047356 0.918209 0.687826 -0.487837
H98   H     H_    0.056407 0.958524 0.668327 0.425092
S11   S     S_3+6 0.501271 0.626394 0.028369 0.070179
O111  O     O_2   0.473410 0.578214 0.917023 -0.293414
O112  O     O_2   0.576730 0.635167 0.034700 -0.214918
O113  O     O_3   0.494251 0.608719 0.206894 -0.430840
H99   H     H_    0.513738 0.569817 0.224327 0.387837
S12   S     S_3+6 0.498373 0.374634 0.539463 0.034097
O114  O     O_2   0.574093 0.364510 0.550219 -0.253238
O115  O     O_2   0.472468 0.420936 0.422672 -0.225096
O116  O     O_3   0.489686 0.397551 0.713278 -0.465858
H100  H     H_    0.520905 0.431035 0.739157 0.411614
C113  C     C_2   0.206123 0.430980 0.190349 1.113386
O117  O     O_2   0.239665 0.387773 0.229502 -0.689057
O118  O     O_R   0.134542 0.428995 0.164351 -0.713339
H101  H     H_    0.118963 0.452329 0.245005 0.290470
C114  C     C_2   0.205826 0.569515 0.734226 0.983610
O119  O     O_2   0.142675 0.572325 0.704669 -0.572785
O120  O     O_R   0.246116 0.614208 0.817455 -0.831915
H102  H     H_    0.298196 0.609910 0.844450 0.339604
C115  C     C_2   0.700440 0.930939 0.208248 1.084618
O121  O     O_2   0.731350 0.886720 0.249095 -0.680061
O122  O     O_R   0.629056 0.932327 0.186175 -0.722947
H103  H     H_    0.616549 0.956788 0.269179 0.286096
C116  C     C_2   0.722521 0.061215 0.759349 1.018956
O123  O     O_2   0.661483 0.074642 0.729224 -0.654728
O124  O     O_R   0.774706 0.093156 0.861597 -0.785597
H104  H     H_    0.758302 0.129210 0.901119 0.295691

loop_
_geom_bond_atom_site_label_1
_geom_bond_atom_site_label_2
_geom_bond_distance
_ccdc_geom_bond_type
C19   H27   1.097001 S    
S2    O78   1.668640 S    
C47   H55   1.070234 S    
P5    O37   1.722996 S    
C70   C88   1.452359 A    
Ba3   O47   2.886068 S    
P8    O40   1.754984 S    
C75   C77   1.382508 A    
P9    O33   1.544941 D    
C51   H59   1.078847 S    
C34   C38   1.424044 A    
C67   C75   1.418538 A    
O66   H81   1.012648 S    
C1    H1    1.101349 S    
O26   Ba2   2.919956 S    
C65   C73   1.415449 A    
C2    H6    1.093154 S    
C37   C49   1.415851 A    
P15   C92   1.885688 S    
O68   H82   1.013997 S    
O95   H93   0.978205 S    
C78   H62   1.074755 S    
P12   O36   1.527161 D    
S6    O96   1.495768 D    
P4    O8    1.606689 S    
C7    C11   1.550036 S    
C17   H29   1.105570 S    
S9    O106  1.501857 D    
C99   O53   1.213522 D    
P6    O45   1.607781 S    
C24   C108  1.507780 S    
P5    O25   1.620173 D    
C56   C60   1.407928 A    
C23   C27   1.537431 S    
P7    O39   1.727797 S    
C12   H20   1.088167 S    
C44   C48   1.399433 A    
C13   C113  1.498716 S    
C84   C92   1.418427 A    
C14   C114  1.489081 S    
C18   H26   1.091506 S    
S12   O116  1.677466 S    
C81   C85   1.400992 A    
O13   P14   1.541658 D    
C34   C94   1.415515 A    
P13   C90   1.883159 S    
O84   H88   0.978285 S    
O44   C8    1.403945 S    
S6    O98   1.667477 S    
C40   C52   1.413641 A    
O9    P14   1.740596 S    
P5    O46   1.613635 S    
C8    C12   1.550509 S    
P8    Ba4   3.560888 S    
C32   S4    1.773431 S    
P12   C35   1.877061 S    
P8    O47   1.607781 S    
C105  O66   1.390760 S    
O81   H87   0.979026 S    
C63   C95   1.406768 A    
C19   H31   1.106986 S    
S4    O82   1.496236 D    
C101  O58   1.397537 S    
O29   Ba1   2.911079 S    
O5    Ba2   2.887480 S    
P10   C33   1.880169 S    
C94   H70   1.076123 S    
O31   Ba3   2.911079 S    
O7    Ba4   2.887480 S    
C59   H67   1.082443 S    
C74   S6    1.745101 S    
S8    O102  1.495125 D    
O124  H104  1.001485 S    
C58   H66   1.082471 S    
C18   H30   1.104237 S    
C81   C89   1.409356 A    
O4    Ba4   2.915861 S    
S1    O74   1.500310 D    
P2    O18   1.753831 S    
O42   C6    1.406430 S    
C9    H49   1.109046 S    
C38   C70   1.418377 A    
C6    C10   1.567886 S    
P3    O7    1.600939 S    
P11   O35   1.544599 D    
C19   C103  1.498834 S    
S5    O93   1.494205 D    
O116  H100  0.990718 S    
P9    C34   1.912129 S    
O40   C15   1.384988 S    
C98   O52   1.375798 S    
C114  O119  1.215719 D    
C41   C45   1.399366 A    
O122  H103  1.011062 S    
C22   C106  1.503305 S    
C45   C51   1.403866 A    
C16   C116  1.467009 S    
C46   C52   1.403261 A    
O110  H98   0.990236 S    
C45   H53   1.065669 S    
Ba4   O48   2.903797 S    
C5    H13   1.100754 S    
Ba3   Ba4   4.870249 S    
C20   H28   1.105897 S    
C43   C55   1.452227 A    
C7    H15   1.098361 S    
S11   O113  1.677944 S    
C47   C49   1.401505 A    
C25   H37   1.100571 S    
C58   C90   1.401808 A    
C53   C57   1.409361 A    
C100  O55   1.224061 D    
O1    Ba1   2.917228 S    
C4    H4    1.090679 S    
C21   C105  1.505915 S    
C62   C94   1.408210 A    
C101  O57   1.219246 D    
C111  O90   1.396930 S    
O28   Ba4   2.919956 S    
C16   H24   1.110274 S    
C28   H44   1.109448 S    
O6    Ba1   2.905243 S    
C102  O59   1.219176 D    
O22   C30   1.431840 S    
C26   H46   1.111636 S    
O9    Ba1   2.888010 S    
C27   H39   1.104610 S    
C109  O86   1.397370 S    
C72   C86   1.452522 A    
P6    O38   1.740920 S    
C37   C69   1.406205 A    
C10   S10   1.819986 S    
S4    O84   1.670583 S    
O60   H78   1.012144 S    
P8    O28   1.613265 D    
P9    O29   1.774020 S    
P5    Ba1   3.556610 S    
C97   O49   1.214711 D    
C50   H58   1.079118 S    
C79   C83   1.388924 A    
P7    Ba3   3.556610 S    
S8    O104  1.680683 S    
C67   C71   1.450505 A    
C110  O88   1.397747 S    
C20   H32   1.102716 S    
C2    H2    1.085233 S    
C35   C39   1.424986 A    
C36   C40   1.423306 A    
O17   C21   1.400658 S    
O101  H95   0.991130 S    
C38   C50   1.411047 A    
C26   H42   1.109734 S    
C24   H36   1.109422 S    
C27   H47   1.109500 S    
Ba1   O46   3.116273 S    
C6    H10   1.092166 S    
O78   H86   0.975683 S    
C73   S5    1.727241 S    
C78   C82   1.380014 A    
S10   O109  1.504185 D    
O70   H83   1.012258 S    
S5    O95   1.603219 S    
S12   O115  1.501399 D    
P7    O48   1.613635 S    
C22   H34   1.110471 S    
C77   H61   1.079521 S    
C104  O64   1.393475 S    
P6    O26   1.613265 D    
C21   H33   1.109592 S    
P7    C64   1.967194 S    
O20   C24   1.405607 S    
C23   H35   1.110693 S    
P9    O41   1.759805 S    
C68   C76   1.435520 A    
O37   C14   1.361133 S    
S10   O110  1.677095 S    
C17   C101  1.490517 S    
C42   C86   1.430829 A    
O10   Ba2   2.910218 S    
C93   H69   1.081693 S    
C71   C85   1.453546 A    
O14   P13   1.540823 D    
C4    C112  1.514720 S    
O64   H80   1.013682 S    
C108  O72   1.391322 S    
C83   C91   1.413726 A    
C36   C96   1.414730 A    
C97   O50   1.396764 S    
P6    Ba2   3.560888 S    
C3    C31   1.569742 S    
C8    H16   1.108245 S    
C80   H64   1.074985 S    
S3    O80   1.499760 D    
C66   C70   1.452993 A    
C48   C50   1.402350 A    
C106  O68   1.392503 S    
C13   H21   1.110464 S    
S7    O101  1.617185 S    
C63   C67   1.484003 A    
C55   C59   1.412308 A    
C12   S12   1.809389 S    
C61   C65   1.477519 A    
O18   C22   1.397078 S    
C21   C25   1.534840 S    
O107  H97   0.990499 S    
O113  H99   0.990416 S    
O72   H84   1.012772 S    
S6    O97   1.458389 D    
C15   C19   1.573693 S    
C9    H17   1.096301 S    
C15   C115  1.497780 S    
C115  O122  1.382035 S    
C11   H19   1.096574 S    
O15   P16   1.541709 D    
O50   H73   1.009649 S    
C11   S11   1.801749 S    
O56   H76   0.992527 S    
C44   C88   1.432068 A    
C113  O118  1.382187 S    
C32   C100  1.493886 S    
C39   C51   1.415700 A    
P1    O1    1.613387 D    
C64   C68   1.479917 A    
P11   O31   1.769981 S    
P10   O42   1.770550 S    
P3    O3    1.613387 D    
C116  O124  1.398397 S    
C1    C29   1.571598 S    
P4    O20   1.762335 S    
P11   C36   1.909412 S    
O52   H74   0.999803 S    
C66   C74   1.426760 A    
O38   C13   1.374536 S    
S2    O76   1.496414 D    
C112  O92   1.397200 S    
P1    Ba1   3.559202 S    
C42   C46   1.400201 A    
C35   C95   1.412739 A    
O21   P14   1.791347 S    
P3    Ba3   3.559202 S    
O118  H101  1.008569 S    
C5    H9    1.099390 S    
C46   H54   1.069245 S    
O22   P13   1.776985 S    
C29   S1    1.766856 S    
C68   C72   1.457172 A    
C28   H40   1.103355 S    
C39   C71   1.407077 A    
O90   H91   1.013368 S    
C105  O65   1.223508 D    
O16   P15   1.541093 D    
S4    O83   1.496656 D    
Ba3   O48   3.116273 S    
C14   H22   1.111024 S    
C11   H51   1.109376 S    
C60   C92   1.407498 A    
O24   C32   1.433302 S    
C28   H48   1.111083 S    
O86   H89   1.013379 S    
O12   P15   1.754606 S    
P1    O5    1.600939 S    
C64   C96   1.404761 A    
S8    O103  1.459264 D    
S3    O79   1.495090 D    
C75   S7    1.709839 S    
C10   H18   1.102071 S    
S7    O99   1.478889 D    
C33   C93   1.416113 A    
S1    O73   1.494884 D    
C41   C53   1.455302 A    
O104  H96   0.987927 S    
Ba2   O46   2.903797 S    
P1    C53   1.918412 S    
P10   O30   1.779323 S    
O23   P16   1.793320 S    
C73   C79   1.391313 A    
C43   C87   1.433219 A    
O24   P15   1.789222 S    
P12   O44   1.755232 S    
C49   H57   1.075610 S    
C18   C102  1.485081 S    
P3    C55   1.930901 S    
C99   O54   1.397528 S    
C3    H3    1.100362 S    
O12   Ba4   2.910218 S    
P2    Ba2   3.555045 S    
C24   C28   1.537836 S    
C27   H43   1.109977 S    
Ba2   O45   3.112488 S    
C25   H41   1.109371 S    
S11   O112  1.502080 D    
C4    C32   1.564139 S    
C57   H65   1.082496 S    
C96   H72   1.075462 S    
C48   H56   1.064427 S    
Ba1   Ba2   4.870249 S    
P6    C61   1.979438 S    
P7    O27   1.620173 D    
C111  O89   1.223155 D    
C103  O61   1.218542 D    
C31   S3    1.769970 S    
O41   C5    1.407633 S    
O3    Ba3   2.917228 S    
C44   C56   1.455665 A    
O43   C7    1.407733 S    
C33   C37   1.423685 A    
C9    S9    1.800717 S    
C5    C9    1.549688 S    
O92   H92   1.013550 S    
C109  O85   1.222912 D    
P4    C56   1.926013 S    
C1    H5    1.107420 S    
C60   H68   1.082276 S    
C54   C58   1.403788 A    
C83   C87   1.402866 A    
O88   H90   1.013694 S    
P1    O17   1.757471 S    
C6    H14   1.100879 S    
O98   H94   0.986880 S    
P3    O19   1.756408 S    
O120  H102  1.005172 S    
P4    O4    1.620308 D    
C40   C72   1.417400 A    
C59   C91   1.412418 A    
C110  O87   1.219864 D    
O30   Ba2   2.888865 S    
C57   C89   1.405251 A    
P5    C62   1.963236 S    
C98   O51   1.219571 D    
S1    O75   1.667992 S    
C114  O120  1.402700 S    
P8    C63   1.978670 S    
C61   C93   1.409150 A    
C20   C104  1.496525 S    
Ba1   O45   2.886068 S    
C84   C88   1.402658 A    
S5    O94   1.490819 D    
C29   C97   1.512253 S    
O39   C16   1.357697 S    
C104  O63   1.220932 D    
C69   C87   1.451694 A    
C80   C84   1.386562 A    
C23   C107  1.503718 S    
P4    Ba4   3.555045 S    
O10   P13   1.746933 S    
C74   C80   1.394889 A    
O2    Ba2   2.915861 S    
Ba4   O47   3.112488 S    
P2    O2    1.620308 D    
P11   O43   1.760441 S    
C2    C110  1.505536 S    
C2    C30   1.562807 S    
S3    O81   1.666405 S    
C100  O56   1.368581 S    
O11   Ba3   2.888010 S    
P16   C91   1.886817 S    
C103  O62   1.393222 S    
C108  O71   1.224372 D    
C82   C86   1.399828 A    
C15   H23   1.112162 S    
C13   C17   1.563491 S    
C102  O60   1.395777 S    
C26   H38   1.102656 S    
C43   C47   1.397951 A    
P14   C89   1.885174 S    
C52   H60   1.078318 S    
C77   C81   1.376205 A    
C106  O67   1.223595 D    
C8    H12   1.105076 S    
C1    C109  1.516792 S    
S7    O100  1.485716 D    
C10   H50   1.102391 S    
C95   H71   1.082685 S    
C12   H52   1.108123 S    
C76   C78   1.393982 A    
C107  O70   1.390985 S    
O32   Ba4   2.888865 S    
O58   H77   1.011575 S    
P2    O6    1.606689 S    
C16   C20   1.546212 S    
O25   Ba1   2.918566 S    
C115  O121  1.215405 D    
S9    O107  1.677893 S    
C79   H63   1.079367 S    
P12   O32   1.755943 S    
C41   C85   1.429020 A    
O27   Ba3   2.918566 S    
O54   H75   1.007683 S    
C42   C54   1.454692 A    
C113  O117  1.216410 D    
C82   C90   1.417028 A    
O75   H85   0.979550 S    
O62   H79   1.010836 S    
C116  O123  1.214509 D    
P2    C54   1.910641 S    
C7    H11   1.099076 S    
C30   S2    1.766630 S    
S11   O111  1.502422 D    
C3    C111  1.516626 S    
S10   O108  1.501588 D    
C65   C69   1.450750 A    
C30   C98   1.503663 S    
S12   O114  1.503164 D    
C3    H7    1.094069 S    
S2    O77   1.498827 D    
C4    H8    1.091849 S    
C112  O91   1.222574 D    
C17   H25   1.100002 S    
C62   C66   1.471105 A    
O19   C23   1.402061 S    
O11   P16   1.747998 S    
C22   C26   1.535135 S    
C76   S8    1.747726 S    
C31   C99   1.510571 S    
O23   C31   1.435230 S    
S9    O105  1.502390 D    
O21   C29   1.435418 S    
C25   H45   1.111511 S    
C107  O69   1.223659 D    
C14   C18   1.548634 S    
O8    Ba3   2.905243 S    
P10   O34   1.539189 D    
