data_mof_unit_10551.cif
_audit_creation_date              2012-12-10T17:28:35-0500
_audit_creation_method            fapswitch 2.2
_symmetry_space_group_name_H-M    P1
_symmetry_Int_Tables_number       1
_space_group_crystal_system       triclinic
_cell_length_a                    10.625075
_cell_length_b                    11.926929
_cell_length_c                    12.89595
_cell_angle_alpha                 92.998507
_cell_angle_beta                  89.853998
_cell_angle_gamma                 87.208626
_cell_volume                      1630.0379134

loop_
_atom_site_label
_atom_site_type_symbol
_atom_type_description
_atom_site_fract_x
_atom_site_fract_y
_atom_site_fract_z
_atom_type_partial_charge
C1    C     C_R   0.498853 0.521848 0.700544 0.884874
C2    C     C_R   0.479537 0.561028 0.132143 -0.280133
C3    C     C_R   0.514242 0.447090 0.974442 0.186874
C4    C     C_R   0.485757 0.552909 0.025558 0.186875
C5    C     C_R   0.365498 0.955433 0.419493 -0.349918
C6    C     C_R   0.634502 0.044567 0.580507 -0.349921
C7    C     C_R   0.380672 0.838663 0.425096 0.019519
C8    C     C_R   0.619328 0.161336 0.574904 0.019516
C9    C     C_R   0.560818 0.857585 0.531984 -0.074314
C10   C     C_R   0.439181 0.142415 0.468016 -0.074308
C11   C     C_R   0.549622 0.975321 0.528485 0.097341
C12   C     C_R   0.501147 0.478152 0.299456 0.884884
C13   C     C_R   0.450378 0.024679 0.471515 0.097339
C14   C     C_R   0.739820 0.499433 0.484740 0.895746
C15   C     C_R   0.260182 0.500568 0.515265 0.895750
C16   C     C_R   0.899239 0.294313 0.431131 -0.126185
C17   C     C_R   0.100770 0.705684 0.568893 -0.126182
C18   C     C_R   0.960547 0.192001 0.451907 -0.158055
C19   C     C_R   0.039460 0.807998 0.548126 -0.158046
C20   C     C_R   0.068698 0.190686 0.512285 -0.177914
C21   C     C_R   0.931305 0.809317 0.487752 -0.177920
C22   C     C_R   0.120482 0.291706 0.545015 -0.131622
C23   C     C_R   0.502660 0.465254 0.188265 -0.052626
C24   C     C_R   0.879521 0.708298 0.455016 -0.131629
C25   C     C_R   0.064944 0.396203 0.516657 0.090884
C26   C     C_R   0.935060 0.603798 0.483367 0.090882
C27   C     C_R   0.945952 0.397227 0.470776 0.083819
C28   C     C_R   0.054053 0.602773 0.529245 0.083821
C29   C     C_R   0.124436 0.499436 0.531970 -0.263141
C30   C     C_R   0.875569 0.500564 0.468047 -0.263136
C31   C     C_R   0.497340 0.534745 0.811734 -0.052623
C32   C     C_R   0.464388 0.649084 0.969445 -0.221892
C33   C     C_R   0.535611 0.350916 0.030555 -0.221892
C34   C     C_R   0.470210 0.640016 0.862144 -0.209006
C35   C     C_R   0.529789 0.359984 0.137856 -0.209005
C36   C     C_R   0.520463 0.438972 0.867856 -0.280134
H1    H     H_    0.886407 0.888586 0.467479 0.134007
H2    H     H_    0.542601 0.357545 0.828856 0.160364
H3    H     H_    0.547870 0.285487 0.181125 0.161365
H4    H     H_    0.452130 0.714513 0.818875 0.161365
H5    H     H_    0.364491 0.182155 0.423874 0.139323
H6    H     H_    0.635508 0.817845 0.576127 0.139321
H7    H     H_    0.685124 0.215079 0.614378 0.144986
H8    H     H_    0.314876 0.784921 0.385621 0.144984
H9    H     H_    0.288150 0.991100 0.375365 0.148748
H10   H     H_    0.711849 0.008900 0.624635 0.148747
H11   H     H_    0.442731 0.730540 0.008346 0.138610
H12   H     H_    0.113595 0.111418 0.532565 0.134008
H13   H     H_    0.557268 0.269459 0.991654 0.138610
H14   H     H_    0.815168 0.292522 0.383912 0.146767
H15   H     H_    0.184846 0.707471 0.616106 0.146763
H16   H     H_    0.922263 0.113794 0.423458 0.132757
H17   H     H_    0.077746 0.886203 0.576578 0.132755
H18   H     H_    0.202338 0.287015 0.594546 0.157335
H19   H     H_    0.797668 0.712995 0.405484 0.157342
H20   H     H_    0.457398 0.642454 0.171144 0.160364
N1    N     N_R   0.523130 0.207800 0.519340 -0.105199
N2    N     N_R   0.476870 0.792200 0.480660 -0.105198
O1    O     O_R   0.506170 0.421700 0.658830 -0.628640
O2    O     O_R   0.493830 0.578300 0.341170 -0.628637
O3    O     O_R   0.491330 0.609310 0.646410 -0.629205
O4    O     O_R   0.508670 0.390690 0.353590 -0.629203
O5    O     O_R   0.690650 0.406190 0.506220 -0.622003
O6    O     O_R   0.309350 0.593810 0.493780 -0.622002
O7    O     O_R   0.675800 0.593810 0.493800 -0.624007
O8    O     O_R   0.324200 0.406190 0.506200 -0.624004
Zn1   Zn    Zn3+2 0.509910 0.374730 0.508290 0.930526
Zn2   Zn    Zn3+2 0.490090 0.625270 0.491710 0.930526

loop_
_geom_bond_atom_site_label_1
_geom_bond_atom_site_label_2
_ccdc_geom_bond_type
C35   H3    S    
C15   O6    A    
C15   C29   S    
C19   C21   A    
C8    N1    A    
C25   C27   A    
C12   O4    A    
C7    N2    A    
C5    C13   A    
C12   C23   S    
C8    H7    S    
C20   C22   A    
C6    H10   S    
O7    Zn2   S    
O1    Zn1   S    
C19   H17   S    
C16   C27   A    
C36   H2    S    
O8    Zn1   S    
C31   C34   A    
C18   H16   S    
C22   H18   S    
C2    H20   S    
C7    H8    S    
C15   O8    A    
C27   C30   A    
C9    C11   A    
O3    Zn2   S    
C17   H15   S    
C9    H6    S    
C4    C32   A    
C5    H9    S    
C3    C36   A    
N1    Zn1   S    
C34   H4    S    
C2    C4    A    
O6    Zn2   S    
N2    Zn2   S    
C28   C29   A    
C17   C19   A    
C14   O7    A    
C16   H14   S    
C26   C30   A    
C10   H5    S    
C23   C35   A    
C1    O1    A    
C25   C29   A    
C32   H11   S    
O5    Zn1   S    
C11   C13   A    
O4    Zn1   S    
C14   O5    A    
C6    C11   A    
C33   H13   S    
C3    C4    A    
C12   O2    A    
C1    C31   S    
C10   N1    A    
C21   H1    S    
O2    Zn2   S    
C18   C20   A    
C16   C18   A    
C9    N2    A    
C21   C24   A    
C2    C23   A    
C5    C7    A    
C3    C33   A    
C31   C36   A    
C6    C8    A    
C20   H12   S    
C33   C35   A    
C32   C34   A    
C14   C30   S    
C17   C28   A    
C26   C28   A    
C10   C13   A    
C24   C26   A    
C24   H19   S    
C22   C25   A    
C1    O3    A    
