data_mof_unit_9428.cif
_audit_creation_date              2012-12-11T14:40:18-0500
_audit_creation_method            fapswitch 2.2
_symmetry_space_group_name_H-M    P1
_symmetry_Int_Tables_number       1
_space_group_crystal_system       triclinic
_cell_length_a                    19.663319
_cell_length_b                    11.262439
_cell_length_c                    19.379385
_cell_angle_alpha                 89.757545
_cell_angle_beta                  97.074676
_cell_angle_gamma                 90.012708
_cell_volume                      4258.98582123

loop_
_atom_site_label
_atom_site_type_symbol
_atom_type_description
_atom_site_fract_x
_atom_site_fract_y
_atom_site_fract_z
_atom_type_partial_charge
C1    C     C_R   0.729051 0.941419 0.353403 0.535681
C2    C     C_3   0.270552 0.339215 0.556820 -0.026026
C3    C     C_2   0.885833 0.919665 0.443220 0.586651
C4    C     C_3   0.884086 0.468972 0.434459 0.026679
C5    C     C_3   0.843163 0.516919 0.366998 -0.270528
C6    C     C_3   0.867044 0.638946 0.346443 -0.447220
C7    C     C_3   0.102309 0.437209 0.559418 0.028981
C8    C     C_3   0.132902 0.474994 0.632895 -0.279271
C9    C     C_3   0.108259 0.592339 0.657513 -0.475564
C10   C     C_3   0.397231 0.938253 0.439076 0.014292
C11   C     C_3   0.367440 0.974046 0.364789 -0.274767
C12   C     C_3   0.391357 0.091501 0.338776 -0.476806
C13   C     C_3   0.229410 0.839000 0.443306 -0.025356
C14   C     C_3   0.601677 0.932478 0.558971 0.009687
C15   C     C_3   0.636059 0.979610 0.629431 -0.266088
C16   C     C_3   0.610944 0.098752 0.650801 -0.467519
C17   C     C_3   0.813240 0.175491 0.647147 0.023831
C18   C     C_3   0.874779 0.152187 0.702285 -0.226640
C19   C     C_3   0.934214 0.091652 0.672224 -0.330273
C20   C     C_3   0.217430 0.168298 0.355283 -0.017577
C21   C     C_3   0.181811 0.205219 0.283478 -0.240310
C22   C     C_3   0.178174 0.108241 0.230242 -0.439308
C23   C     C_3   0.284573 0.668597 0.645671 -0.016171
C24   C     C_3   0.767811 0.851418 0.557140 -0.008271
C25   C     C_3   0.321989 0.704454 0.716728 -0.240746
C26   C     C_3   0.326911 0.607066 0.770112 -0.438301
C27   C     C_3   0.655922 0.679095 0.367604 0.014529
C28   C     C_3   0.584888 0.731207 0.376058 -0.247371
C29   C     C_3   0.543072 0.649232 0.417470 -0.356822
C30   C     C_2   0.642259 0.167744 0.032270 0.555715
C31   C     C_2   0.355978 0.167818 0.968047 0.559348
C32   C     C_2   0.143936 0.668209 0.031989 0.559113
C33   C     C_2   0.857651 0.667370 0.967751 0.555772
C34   C     C_2   0.438597 0.964198 0.053635 0.629492
C35   C     C_3   0.693247 0.434821 0.473516 -0.115907
C36   C     C_2   0.557139 0.966308 0.943377 0.611947
C37   C     C_2   0.942805 0.466850 0.058180 0.611972
C38   C     C_2   0.061280 0.463642 0.947959 0.628234
C39   C     C_3   0.295897 0.457207 0.527777 -0.163537
C40   C     C_3   0.203863 0.956872 0.471864 -0.162729
C41   C     C_3   0.787901 0.967509 0.521743 -0.193606
C42   C     C_3   0.763716 0.473957 0.510561 -0.144539
C43   C     C_3   0.224192 0.474914 0.485696 -0.173910
C44   C     C_3   0.275623 0.975122 0.513584 -0.169955
C45   C     C_R   0.272970 0.949320 0.642083 0.543184
C46   C     C_3   0.717503 0.966634 0.476009 -0.172931
C47   C     C_3   0.797300 0.364790 0.483128 0.330180
C48   C     C_3   0.199296 0.357819 0.513850 0.333849
C49   C     C_3   0.300691 0.858228 0.485880 0.334797
C50   C     C_3   0.697708 0.852364 0.511973 0.318506
C51   C     C_3   0.783214 0.292233 0.546834 0.290162
C52   C     C_3   0.224383 0.289447 0.453668 0.308253
C53   C     C_3   0.276027 0.789684 0.546585 0.307290
C54   C     C_3   0.727481 0.778492 0.456851 0.287721
C55   C     C_3   0.750629 0.401618 0.573996 -0.000016
C56   C     C_R   0.227121 0.449035 0.357754 0.545381
C57   C     C_3   0.248615 0.405331 0.426108 0.017781
C58   C     C_3   0.251612 0.905550 0.573706 0.017502
C59   C     C_3   0.748774 0.891614 0.421308 0.004068
C60   C     C_3   0.526734 0.267735 0.974700 -0.152466
C61   C     C_3   0.471507 0.267850 0.025458 -0.162483
C62   C     C_3   0.028356 0.767588 0.973898 -0.162454
C63   C     C_3   0.973129 0.768015 0.024656 -0.152775
C64   C     C_3   0.566209 0.169110 0.017491 0.021192
C65   C     C_3   0.431958 0.169427 0.982910 0.019134
C66   C     C_3   0.067951 0.669496 0.017163 0.019256
C67   C     C_R   0.773517 0.450577 0.641227 0.550802
C68   C     C_3   0.933697 0.669060 0.982587 0.021214
C69   C     C_3   0.511276 0.169790 0.068169 -0.014046
C70   C     C_3   0.486812 0.169865 0.932477 -0.007179
C71   C     C_3   0.013095 0.670505 0.067591 -0.007468
C72   C     C_3   0.988623 0.669169 0.931906 -0.013421
C73   C     C_R   0.560073 0.183394 0.347647 0.512237
C74   C     C_R   0.438292 0.183947 0.652348 0.518028
C75   C     C_R   0.057723 0.683048 0.347185 0.519524
C76   C     C_R   0.939111 0.683934 0.652487 0.517726
C77   C     C_3   0.471792 0.071698 0.026068 0.006350
C78   C     C_3   0.712944 0.250655 0.509904 -0.221208
C79   C     C_3   0.526130 0.071721 0.974847 0.004644
C80   C     C_3   0.973827 0.571990 0.025958 0.004418
C81   C     C_3   0.028162 0.571459 0.974741 0.006329
C82   C     C_1   0.761645 0.424660 0.903588 0.056704
C83   C     C_1   0.238697 0.425271 0.096493 0.069502
C84   C     C_1   0.261418 0.924669 0.903505 0.069419
C85   C     C_1   0.738462 0.925302 0.096390 0.057172
C86   C     C_1   0.748737 0.410665 0.035499 0.016082
C87   C     C_1   0.251281 0.410592 0.964510 0.018472
C88   C     C_1   0.248645 0.910812 0.035409 0.018615
C89   C     C_3   0.296017 0.269126 0.495562 -0.212741
C90   C     C_1   0.751197 0.910528 0.964399 0.016094
C91   C     C_1   0.753991 0.416046 0.963917 0.010566
C92   C     C_1   0.246422 0.416467 0.036198 0.031921
C93   C     C_1   0.253631 0.916151 0.963788 0.031130
C94   C     C_1   0.746057 0.916431 0.036048 0.012202
C95   C     C_1   0.744484 0.397826 0.096348 0.054850
C96   C     C_1   0.255297 0.397177 0.903693 0.044503
C97   C     C_1   0.244586 0.897687 0.096250 0.046053
C98   C     C_1   0.755401 0.897392 0.903571 0.051956
C99   C     C_R   0.723158 0.305665 0.367571 0.539661
C100  C     C_3   0.204260 0.768831 0.505111 -0.213070
C101  C     C_R   0.276134 0.309577 0.632055 0.534185
C102  C     C_R   0.223899 0.809433 0.368096 0.535781
C103  C     C_R   0.774757 0.815228 0.631274 0.530734
C104  C     C_R   0.722801 0.952073 0.164610 0.573646
C105  C     C_R   0.277222 0.951921 0.835408 0.561474
C106  C     C_R   0.222775 0.452260 0.164546 0.561103
C107  C     C_R   0.777198 0.451736 0.835340 0.578447
C108  C     C_R   0.531541 0.178993 0.141443 0.620640
C109  C     C_R   0.467806 0.178868 0.858936 0.619962
C110  C     C_R   0.032198 0.679153 0.141085 0.619159
C111  C     C_3   0.798775 0.777736 0.502254 -0.171398
C112  C     C_R   0.968454 0.678716 0.858583 0.620523
C113  C     C_R   0.736932 0.362023 0.165640 0.578752
C114  C     C_R   0.263217 0.360898 0.834693 0.571337
C115  C     C_R   0.236784 0.861230 0.165328 0.570778
C116  C     C_R   0.763064 0.861733 0.834361 0.578504
C117  C     C_1   0.461584 0.178690 0.585731 -0.006684
C118  C     C_1   0.534412 0.177718 0.413141 -0.018444
C119  C     C_1   0.963595 0.678843 0.586661 -0.005315
C120  C     C_1   0.031592 0.677166 0.412131 -0.015326
C121  C     C_1   0.511121 0.176371 0.467453 -0.032553
C122  C     C_3   0.727422 0.325776 0.444562 -0.025484
C123  C     C_1   0.483357 0.176818 0.530629 -0.029792
C124  C     C_1   0.010049 0.676373 0.467186 -0.047179
C125  C     C_1   0.984912 0.677119 0.531469 -0.033456
C126  C     C_3   0.680906 0.363844 0.538490 -0.018264
C127  C     C_3   0.318861 0.388887 0.466559 -0.002155
C128  C     C_3   0.181281 0.888633 0.533627 -0.009947
C129  C     C_3   0.817456 0.893638 0.466523 0.002445
C130  C     C_2   0.617233 0.381417 0.572497 0.569122
C131  C     C_2   0.384014 0.414341 0.436461 0.592990
C132  C     C_2   0.116783 0.916281 0.564406 0.600698
Cr1   Cr    Cr6+3 0.765830 0.160660 0.268180 1.090392
Cr2   Cr    Cr6+3 0.384070 0.324050 0.751550 1.011982
Cr3   Cr    Cr6+3 0.115930 0.824050 0.248450 1.013601
Cr4   Cr    Cr6+3 0.884070 0.824050 0.751550 1.003185
Cr5   Cr    Cr6+3 0.234170 0.160660 0.731820 1.062397
Cr6   Cr    Cr6+3 0.265830 0.660660 0.268180 1.058688
Cr7   Cr    Cr6+3 0.734170 0.660660 0.731820 1.078406
Cr8   Cr    Cr6+3 0.612110 0.009150 0.248770 1.034662
Cr9   Cr    Cr6+3 0.387890 0.009150 0.751230 1.045363
Cr10  Cr    Cr6+3 0.112110 0.509150 0.248770 1.054667
Cr11  Cr    Cr6+3 0.887890 0.509150 0.751230 1.053025
Cr12  Cr    Cr6+3 0.615930 0.324050 0.248450 1.016036
H1    H     H_    0.685901 0.170919 0.523877 0.091842
H2    H     H_    0.680827 0.035772 0.455027 0.098635
H3    H     H_    0.782873 0.562858 0.518437 0.132986
H4    H     H_    0.193629 0.551852 0.467904 0.095288
H5    H     H_    0.550221 0.346996 0.952897 0.157879
H6    H     H_    0.448040 0.347192 0.046826 0.155378
H7    H     H_    0.051829 0.846720 0.951939 0.154631
H8    H     H_    0.949657 0.847488 0.045874 0.157729
H9    H     H_    0.574492 0.390726 0.661672 0.359966
H10   H     H_    0.436188 0.404818 0.353510 0.348586
H11   H     H_    0.064125 0.903456 0.646906 0.354180
H12   H     H_    0.336696 0.203654 0.491234 0.082173
H13   H     H_    0.941059 0.948630 0.363808 0.357128
H14   H     H_    0.938186 0.457818 0.424724 0.170850
H15   H     H_    0.885037 0.533687 0.477257 0.105895
H16   H     H_    0.849347 0.456382 0.323204 0.208810
H17   H     H_    0.788184 0.524203 0.373567 0.201971
H18   H     H_    0.873589 0.697937 0.392096 0.176706
H19   H     H_    0.828344 0.678718 0.306395 0.163458
H20   H     H_    0.915948 0.631278 0.323950 0.185530
H21   H     H_    0.047337 0.416112 0.560958 0.174160
H22   H     H_    0.102924 0.510983 0.521699 0.105196
H23   H     H_    0.163806 0.702740 0.509480 0.083632
H24   H     H_    0.121738 0.406201 0.671211 0.211087
H25   H     H_    0.188044 0.486218 0.632934 0.175303
H26   H     H_    0.105481 0.658959 0.615287 0.191962
H27   H     H_    0.143818 0.624371 0.702571 0.158772
H28   H     H_    0.059029 0.578596 0.676858 0.206016
H29   H     H_    0.452485 0.918206 0.438682 0.144478
H30   H     H_    0.395368 0.012830 0.475547 0.109724
H31   H     H_    0.379390 0.904424 0.327622 0.206439
H32   H     H_    0.312216 0.984539 0.363961 0.178660
H33   H     H_    0.393923 0.159159 0.380118 0.190235
H34   H     H_    0.840537 0.712715 0.512703 0.069916
H35   H     H_    0.355310 0.122431 0.293629 0.156634
H36   H     H_    0.440458 0.078372 0.319095 0.206110
H37   H     H_    0.547881 0.909267 0.565245 0.167454
H38   H     H_    0.597902 0.002237 0.518463 0.100299
H39   H     H_    0.627809 0.915827 0.671454 0.212044
H40   H     H_    0.690803 0.992905 0.626217 0.172033
H41   H     H_    0.603930 0.158560 0.605514 0.179322
H42   H     H_    0.649263 0.138628 0.691015 0.171902
H43   H     H_    0.563352 0.086933 0.674361 0.199450
H44   H     H_    0.787243 0.090821 0.634811 0.118913
H45   H     H_    0.649516 0.481519 0.444676 0.195453
H46   H     H_    0.775054 0.229153 0.670947 0.123151
H47   H     H_    0.893413 0.237210 0.726495 0.180182
H48   H     H_    0.858010 0.095123 0.743968 0.132302
H49   H     H_    0.916259 0.012414 0.641454 0.205743
H50   H     H_    0.973590 0.063494 0.715205 0.115030
H51   H     H_    0.958405 0.154254 0.638109 0.206659
H52   H     H_    0.216579 0.071849 0.357872 0.167054
H53   H     H_    0.272162 0.194735 0.359535 0.114069
H54   H     H_    0.128366 0.234940 0.286671 0.223435
H55   H     H_    0.213022 0.276002 0.263377 0.175919
H56   H     H_    0.334364 0.517238 0.554747 0.225953
H57   H     H_    0.229678 0.067739 0.230932 0.149170
H58   H     H_    0.161780 0.145368 0.177611 0.159605
H59   H     H_    0.139104 0.043312 0.242690 0.206071
H60   H     H_    0.284654 0.572135 0.643076 0.167652
H61   H     H_    0.230061 0.696148 0.642632 0.114416
H62   H     H_    0.375112 0.734609 0.712124 0.221545
H63   H     H_    0.291255 0.774600 0.737734 0.178321
H64   H     H_    0.275147 0.568651 0.771471 0.150508
H65   H     H_    0.345591 0.643365 0.822239 0.158914
H66   H     H_    0.364606 0.540964 0.756216 0.206949
H67   H     H_    0.165016 0.016279 0.444552 0.225761
H68   H     H_    0.647283 0.588622 0.346320 0.152768
H69   H     H_    0.682247 0.721606 0.326834 0.142878
H70   H     H_    0.589568 0.818566 0.402306 0.205742
H71   H     H_    0.556188 0.745063 0.323568 0.120844
H72   H     H_    0.535586 0.561615 0.391552 0.159578
H73   H     H_    0.491979 0.689354 0.420675 0.184397
H74   H     H_    0.569237 0.636721 0.471105 0.247763
H75   H     H_    0.732630 0.165075 0.993310 0.329469
H76   H     H_    0.265554 0.164708 0.006919 0.330765
H77   H     H_    0.234331 0.664939 0.993081 0.331009
H78   H     H_    0.821341 0.040997 0.539582 0.206699
H79   H     H_    0.767236 0.664859 0.006635 0.329917
H80   H     H_    0.411599 0.875763 0.136728 0.334565
H81   H     H_    0.609135 0.904825 0.867709 0.334903
H82   H     H_    0.890542 0.406072 0.134097 0.336136
H83   H     H_    0.087857 0.374172 0.865471 0.334440
H84   H     H_    0.306092 0.051850 0.531152 0.093969
O1    O     O_R   0.783230 0.287800 0.346510 -0.470614
O2    O     O_R   0.454570 0.285140 0.836900 -0.507618
O3    O     O_R   0.045430 0.785140 0.163100 -0.505878
O4    O     O_R   0.954570 0.785140 0.836900 -0.508787
O5    O     O_R   0.677850 0.374730 0.185500 -0.479650
O6    O     O_R   0.322150 0.374730 0.814500 -0.501448
O7    O     O_R   0.177850 0.874730 0.185500 -0.500586
O8    O     O_R   0.822150 0.874730 0.814500 -0.485387
O9    O     O_3   0.664630 0.164620 0.255130 -0.287156
O10   O     O_3   0.335370 0.164620 0.744870 -0.284419
O11   O     O_3   0.164630 0.664620 0.255130 -0.282941
O12   O     O_R   0.216770 0.287800 0.653490 -0.492052
O13   O     O_3   0.835370 0.664620 0.744870 -0.285590
O14   O     O_R   0.760130 0.037060 0.338610 -0.470576
O15   O     O_R   0.239870 0.037060 0.661390 -0.497111
O16   O     O_R   0.260130 0.537060 0.338610 -0.497566
O17   O     O_R   0.739870 0.537060 0.661390 -0.484230
O18   O     O_R   0.666620 0.921370 0.332440 -0.573805
O19   O     O_R   0.333380 0.921370 0.667560 -0.524982
O20   O     O_R   0.166620 0.421370 0.332440 -0.521646
O21   O     O_R   0.833380 0.421370 0.667560 -0.515462
O22   O     O_R   0.557170 0.082420 0.312350 -0.520076
O23   O     O_R   0.283230 0.787800 0.346510 -0.494932
O24   O     O_R   0.442830 0.082420 0.687650 -0.512802
O25   O     O_R   0.057170 0.582420 0.312350 -0.502109
O26   O     O_R   0.942830 0.582420 0.687650 -0.512062
O27   O     O_R   0.548310 0.285980 0.316250 -0.515156
O28   O     O_R   0.451690 0.285980 0.683750 -0.500577
O29   O     O_R   0.048310 0.785980 0.316250 -0.502014
O30   O     O_R   0.951690 0.785980 0.683750 -0.518597
O31   O     O_R   0.680520 0.375500 0.327470 -0.549665
O32   O     O_R   0.319480 0.375500 0.672530 -0.549640
O33   O     O_R   0.180520 0.875500 0.327470 -0.549437
O34   O     O_R   0.716770 0.787800 0.653490 -0.485753
O35   O     O_R   0.819480 0.875500 0.672530 -0.547883
O36   O     O_R   0.780350 0.286970 0.193350 -0.504838
O37   O     O_R   0.219650 0.286970 0.806650 -0.501205
O38   O     O_R   0.280350 0.786970 0.193350 -0.501727
O39   O     O_R   0.719650 0.786970 0.806650 -0.505282
O40   O     O_R   0.757460 0.036290 0.196640 -0.468242
O41   O     O_R   0.242540 0.036290 0.803360 -0.472249
O42   O     O_R   0.257460 0.536290 0.196640 -0.471626
O43   O     O_R   0.742540 0.536290 0.803360 -0.465278
O44   O     O_R   0.663740 0.920540 0.179290 -0.498701
O45   O     O_R   0.554500 0.081650 0.170370 -0.438191
O46   O     O_R   0.336260 0.920540 0.820710 -0.510336
O47   O     O_R   0.163740 0.420540 0.179290 -0.509822
O48   O     O_R   0.836260 0.420540 0.820710 -0.508659
O49   O     O_2   0.563681 0.408276 0.537193 -0.478061
O50   O     O_R   0.620301 0.374030 0.644799 -0.711168
O51   O     O_2   0.430264 0.467969 0.470897 -0.464071
O52   O     O_R   0.390537 0.380512 0.368375 -0.726481
O53   O     O_2   0.072931 0.978787 0.532276 -0.433449
O54   O     O_R   0.108815 0.876119 0.631165 -0.728199
O55   O     O_2   0.935828 0.931093 0.486668 -0.463027
O56   O     O_R   0.445500 0.081650 0.829630 -0.456698
O57   O     O_R   0.892203 0.931648 0.372534 -0.689402
O58   O     O_3   0.860588 0.356687 0.454992 -0.497785
O59   O     O_3   0.134750 0.333375 0.537312 -0.491450
O60   O     O_3   0.365157 0.834291 0.462102 -0.508929
O61   O     O_3   0.634025 0.828038 0.537272 -0.537185
O62   O     O_3   0.835826 0.227298 0.586822 -0.533529
O63   O     O_3   0.182375 0.211903 0.409840 -0.537105
O64   O     O_3   0.318641 0.712190 0.590234 -0.541336
O65   O     O_3   0.699067 0.669951 0.431189 -0.598486
O66   O     O_2   0.669497 0.165007 0.092109 -0.514617
O67   O     O_R   0.054500 0.581650 0.170370 -0.457162
O68   O     O_R   0.681656 0.168058 0.977050 -0.688743
O69   O     O_2   0.328887 0.164080 0.908208 -0.505726
O70   O     O_R   0.316511 0.168027 0.023217 -0.714908
O71   O     O_2   0.171070 0.665191 0.091842 -0.505983
O72   O     O_R   0.183363 0.667992 0.976788 -0.714940
O73   O     O_2   0.830473 0.663914 0.907918 -0.513887
O74   O     O_R   0.818195 0.668121 0.022919 -0.688433
O75   O     O_2   0.413066 0.889086 0.013114 -0.489922
O76   O     O_R   0.435835 0.951290 0.124943 -0.687070
O77   O     O_2   0.550186 0.866953 0.967057 -0.485807
O78   O     O_R   0.945500 0.581650 0.829630 -0.440071
O79   O     O_R   0.593297 0.982635 0.886404 -0.678928
O80   O     O_2   0.949990 0.367262 0.035400 -0.486624
O81   O     O_R   0.906365 0.483712 0.114820 -0.677933
O82   O     O_2   0.087026 0.388975 0.989043 -0.490134
O83   O     O_R   0.063655 0.449861 0.876710 -0.686997
O84   O     O_R   0.545430 0.285140 0.163100 -0.506126

loop_
_geom_bond_atom_site_label_1
_geom_bond_atom_site_label_2
_ccdc_geom_bond_type
C10   H30   S    
Cr1   O36   S    
C39   H56   S    
C72   C112  S    
C116  O39   A    
C114  O6    A    
C56   O20   A    
C18   H48   S    
Cr10  O25   S    
C22   H59   S    
C105  O46   A    
C21   H55   S    
C89   C127  S    
C5    C6    S    
C40   C128  S    
C56   C57   S    
C35   C42   S    
C8    H24   S    
Cr11  O26   S    
C97   C115  S    
C45   O15   A    
C88   C97   T    
H82   O81   S    
C132  O53   D    
C21   C22   S    
C101  O12   A    
C24   C41   S    
Cr2   O10   S    
C96   C114  S    
C52   C89   S    
C42   H3    S    
C14   H38   S    
C32   O71   D    
C77   C79   S    
Cr10  O11   S    
Cr12  O27   S    
C65   C77   S    
C108  O45   A    
Cr5   O41   S    
C34   O75   D    
C36   C79   S    
C82   C91   T    
H9    O50   S    
C5    H17   S    
C42   C55   S    
C109  O2    A    
C55   C126  S    
C68   C72   S    
C15   H40   S    
C84   C105  S    
C131  O52   S    
C67   O21   A    
C7    H22   S    
C63   C71   S    
Cr6   O23   S    
C38   C81   S    
Cr11  O48   S    
C64   C79   S    
C114  O37   A    
C25   H62   S    
Cr7   O17   S    
C8    H25   S    
Cr6   O42   S    
C31   C65   S    
Cr7   O39   S    
C59   C129  S    
Cr11  O21   S    
C22   H57   S    
C70   C79   S    
C3    C129  S    
C35   C122  S    
C106  O47   A    
C4    C5    S    
C29   H72   S    
C53   C58   S    
H83   O83   S    
C60   C64   S    
C51   C78   S    
C46   H2    S    
C76   O30   A    
C49   C53   S    
C51   C55   S    
C84   C93   T    
C127  C131  S    
C63   H8    S    
C121  C123  S    
C86   C95   T    
Cr5   O15   S    
C61   C65   S    
C48   C52   S    
C6    H19   S    
C108  O84   A    
Cr10  O47   S    
C58   C128  S    
C69   C77   S    
C38   O82   D    
C7    C8    S    
C40   H67   S    
C11   H32   S    
C36   O79   S    
Cr4   O13   S    
Cr8   O18   S    
C48   O59   S    
C17   H44   S    
C65   C70   S    
C47   C51   S    
H76   O70   S    
C54   C111  S    
C31   O69   D    
C41   H78   S    
C115  O38   A    
C56   O16   A    
C23   H61   S    
Cr4   O35   S    
Cr1   O9    S    
C27   O65   S    
C99   O1    A    
C54   C59   S    
C24   C50   S    
C37   C80   S    
C62   C66   S    
C102  O23   A    
C10   O60   S    
Cr8   O22   S    
C25   C26   S    
Cr8   O45   S    
Cr9   O56   S    
Cr1   O14   S    
C33   O73   D    
C99   O31   A    
C5    H16   S    
C17   C18   S    
Cr2   O6    S    
Cr6   O11   S    
C26   H66   S    
C64   C69   S    
C20   C21   S    
C50   O61   S    
C29   H74   S    
C12   H36   S    
H79   O74   S    
C10   C11   S    
C52   O63   S    
C63   C68   S    
C73   C118  S    
C100  C128  S    
C75   C120  S    
C75   O25   A    
C47   O58   S    
C57   C127  S    
Cr12  O84   S    
C19   H49   S    
C17   H46   S    
C23   H60   S    
C24   C103  S    
C130  O49   D    
C67   O17   A    
C28   H71   S    
Cr4   O8    S    
C27   H68   S    
Cr9   O19   S    
Cr2   O2    S    
Cr7   O13   S    
C7    O59   S    
C110  O3    A    
C43   C57   S    
C40   C44   S    
C19   H50   S    
C14   C15   S    
C13   C102  S    
C33   C68   S    
C132  O54   S    
C49   O60   S    
Cr9   O10   S    
C30   C64   S    
C115  O7    A    
C32   O72   S    
C30   O68   S    
C113  O5    A    
C50   C54   S    
C100  H23   S    
C28   C29   S    
C73   O22   A    
C16   H41   S    
C1    C59   S    
C34   C77   S    
C4    H15   S    
C34   O76   S    
C17   O62   S    
C126  C130  S    
C71   C110  S    
C18   C19   S    
Cr12  O31   S    
C13   C40   S    
C43   H4    S    
C111  C129  S    
C75   O29   A    
C44   C58   S    
C15   H39   S    
Cr11  O13   S    
C131  O51   D    
C72   C81   S    
C10   H29   S    
C7    H21   S    
C35   H45   S    
Cr3   O3    S    
C87   C92   S    
C9    H26   S    
C90   C94   S    
C53   C100  S    
C105  O41   A    
C45   C58   S    
C18   H47   S    
Cr3   O29   S    
C62   H7    S    
C22   H58   S    
C107  O43   A    
C89   H12   S    
H13   O57   S    
C2    C48   S    
Cr10  O67   S    
C4    O58   S    
C60   C61   S    
C113  O36   A    
C2    C89   S    
C104  O44   A    
C62   C63   S    
C31   O70   S    
C66   C71   S    
C116  O8    A    
C14   O61   S    
C102  O33   A    
C107  O48   A    
C44   H84   S    
C85   C104  S    
C99   C122  S    
C119  C125  T    
C6    H20   S    
Cr3   O7    S    
C78   C126  S    
C14   H37   S    
Cr6   O16   S    
C30   O66   D    
C32   C66   S    
C3    O57   S    
H80   O76   S    
C38   O83   S    
C16   H43   S    
C74   O24   A    
C11   H31   S    
C112  O4    A    
C83   C106  S    
H10   O52   S    
Cr2   O28   S    
C66   C81   S    
H11   O54   S    
C20   H52   S    
C103  O34   A    
Cr12  O9    S    
Cr1   O1    S    
C20   H53   S    
C52   C57   S    
C36   O77   D    
H75   O68   S    
C86   C91   S    
C27   H69   S    
Cr9   O24   S    
C9    H28   S    
C25   H63   S    
C44   C49   S    
C68   C80   S    
C19   H51   S    
C46   C59   S    
C21   H54   S    
C45   O19   A    
C83   C92   T    
Cr4   O4    S    
C1    O18   A    
H81   O79   S    
C15   C16   S    
C101  O32   A    
Cr5   O10   S    
Cr8   O9    S    
C78   H1    S    
C73   O27   A    
Cr5   O37   S    
C2    C39   S    
C4    H14   S    
C6    H18   S    
C8    C9    S    
C111  H34   S    
C41   C46   S    
Cr5   O12   S    
C43   C48   S    
C60   H5    S    
Cr3   O33   S    
C3    O55   D    
C12   H33   S    
C24   C111  S    
Cr9   O46   S    
C128  C132  S    
C71   C80   S    
C69   C108  S    
C28   H70   S    
C76   C119  S    
C39   C127  S    
C51   O62   S    
C23   O64   S    
C1    O14   A    
Cr11  O78   S    
C109  O56   A    
C47   C122  S    
C39   C43   S    
Cr6   O38   S    
C2    C101  S    
Cr7   O43   S    
Cr8   O44   S    
C118  C121  T    
C130  O50   S    
C35   C126  S    
C53   O64   S    
C70   C109  S    
C85   C94   T    
C98   C116  S    
C60   C70   S    
C87   C96   T    
C62   C72   S    
C82   C107  S    
C13   C49   S    
Cr2   O32   S    
C106  O42   A    
Cr10  O20   S    
Cr4   O30   S    
H77   O72   S    
C76   O26   A    
Cr1   O40   S    
Cr12  O5    S    
C61   H6    S    
C61   C69   S    
C74   C117  S    
C88   C93   S    
C20   O63   S    
C26   H64   S    
C104  O40   A    
C80   C81   S    
C55   C67   S    
C11   C12   S    
C110  O67   A    
C46   C50   S    
C37   O81   S    
C13   C100  S    
C117  C123  T    
C16   H42   S    
C41   C129  S    
C33   O74   S    
C95   C113  S    
C29   H73   S    
Cr3   O11   S    
C26   H65   S    
C42   C47   S    
C23   C25   S    
C78   C122  S    
C9    H27   S    
C54   O65   S    
C12   H35   S    
C112  O78   A    
Cr7   O34   S    
C27   C28   S    
C37   O80   D    
C103  O35   A    
C90   C98   T    
C74   O28   A    
C120  C124  T    
C124  C125  S    
