data_mof_unit_67597.cif
_audit_creation_date              2013-03-05T16:04:52-0500
_audit_creation_method            fapswitch 2.2
_symmetry_space_group_name_H-M    P1
_symmetry_Int_Tables_number       1
_space_group_crystal_system       triclinic
_cell_length_a                    16.346083
_cell_length_b                    14.992056
_cell_length_c                    9.779786
_cell_angle_alpha                 89.648914
_cell_angle_beta                  90.019013
_cell_angle_gamma                 90.125176
_cell_volume                      2396.59713276

loop_
_atom_site_label
_atom_site_type_symbol
_atom_site_description
_atom_site_fract_x
_atom_site_fract_y
_atom_site_fract_z
_atom_type_partial_charge
O1    O     O_R   0.090170 0.409820 0.618740 -0.566803
O2    O     O_R   0.909830 0.590180 0.381260 -0.596274
O3    O     O_R   0.909830 0.590180 0.618740 -0.580514
O4    O     O_R   0.090170 0.409820 0.381260 -0.579085
O5    O     O_R   0.909830 0.409820 0.381260 -0.586876
O6    O     O_R   0.090170 0.590180 0.618740 -0.565353
O7    O     O_R   0.090170 0.590180 0.381260 -0.568819
O8    O     O_R   0.909830 0.409820 0.618740 -0.590128
O9    O     O_R   0.590170 0.909820 0.618740 -0.555912
O10   O     O_R   0.409830 0.090180 0.381260 -0.601251
O11   O     O_R   0.409830 0.090180 0.618740 -0.578156
O12   O     O_R   0.590170 0.909820 0.381260 -0.585099
O13   O     O_R   0.409830 0.909820 0.381260 -0.575196
O14   O     O_R   0.590170 0.090180 0.618740 -0.575472
O15   O     O_R   0.590170 0.090180 0.381260 -0.569059
O16   O     O_R   0.409830 0.909820 0.618740 -0.596701
C1    C     C_R   0.117068 0.379822 0.500669 0.815076
C2    C     C_R   0.881058 0.618716 0.499876 0.843518
C3    C     C_R   0.882296 0.379707 0.499956 0.843033
C4    C     C_R   0.115509 0.621581 0.499395 0.825669
C5    C     C_R   0.616890 0.879612 0.500195 0.833066
C6    C     C_R   0.380968 0.118595 0.499779 0.840827
C7    C     C_R   0.379624 0.882818 0.500167 0.847135
C8    C     C_R   0.617135 0.119947 0.499856 0.826026
N1    N     N_R   0.000000 0.500000 0.852070 -0.347343
N2    N     N_R   1.000000 0.500000 0.147930 -0.341231
N3    N     N_R   0.500000 0.000000 0.852070 -0.350223
N4    N     N_R   0.500000 0.000000 0.147930 -0.339994
Cu1   Cu    Cu3+1 0.000000 0.500000 0.640660 0.943560
Cu2   Cu    Cu3+1 0.000000 0.500000 0.359340 0.938491
Cu3   Cu    Cu3+1 0.500000 0.000000 0.640660 0.938173
Cu4   Cu    Cu3+1 0.500000 0.000000 0.359340 0.935242
C9    C     C_R   0.998615 0.422020 0.073290 0.419935
C10   C     C_R   0.005990 0.577701 0.926853 0.420279
C11   C     C_R   0.011767 0.576848 0.072044 0.387285
C12   C     C_R   0.003905 0.422177 0.928064 0.385173
C13   C     C_R   0.492470 0.922568 0.073456 0.414855
C14   C     C_R   0.507974 0.077652 0.926418 0.401445
C15   C     C_R   0.513176 0.076678 0.071697 0.379976
C16   C     C_R   0.496394 0.922056 0.928191 0.366591
C17   C     C_R   0.796014 0.261246 0.380162 0.326756
C18   C     C_R   0.188421 0.750495 0.604638 0.322696
C19   C     C_R   0.235386 0.697907 0.384767 0.356606
C20   C     C_R   0.771301 0.290875 0.619232 0.307546
C21   C     C_R   0.225218 0.289437 0.623779 0.333359
C22   C     C_R   0.772502 0.710768 0.377690 0.312667
C23   C     C_R   0.785671 0.724496 0.623564 0.313984
C24   C     C_R   0.202292 0.264385 0.383494 0.351806
C25   C     C_R   0.289266 0.771167 0.379014 0.334926
C26   C     C_R   0.698549 0.241975 0.609749 0.345554
C27   C     C_R   0.742069 0.187981 0.388637 0.337005
C28   C     C_R   0.258424 0.804409 0.614622 0.316714
C29   C     C_R   0.727813 0.793755 0.620324 0.321627
C30   C     C_R   0.273336 0.212966 0.377526 0.310591
C31   C     C_R   0.282917 0.219938 0.625049 0.304658
C32   C     C_R   0.700917 0.761577 0.382826 0.334930
C33   C     C_R   0.181042 0.689886 0.496747 -0.377130
C34   C     C_R   0.816874 0.309394 0.499834 -0.389295
C35   C     C_R   0.813184 0.685827 0.500056 -0.381482
C36   C     C_R   0.182374 0.310991 0.502798 -0.395047
C37   C     C_R   0.686585 0.183537 0.499547 -0.392307
C38   C     C_R   0.308973 0.818562 0.499050 -0.386999
C39   C     C_R   0.312673 0.185175 0.500166 -0.379819
C40   C     C_R   0.682093 0.810689 0.501002 -0.384129
O17   O     O_3   0.996089 0.339500 0.134612 -0.695557
H1    H     H_    0.997920 0.346954 0.233522 0.386309
O18   O     O_3   0.009744 0.660106 0.865511 -0.674026
H2    H     H_    0.997021 0.653073 0.768693 0.385933
O19   O     O_3   0.033134 0.656007 0.132225 -0.702154
H3    H     H_    0.012051 0.654887 0.225804 0.351814
O20   O     O_3   0.018176 0.340936 0.868638 -0.696907
H4    H     H_    0.007706 0.346749 0.770755 0.361232
O21   O     O_3   0.483442 0.841062 0.135577 -0.699059
H5    H     H_    0.498204 0.847134 0.231886 0.385435
O22   O     O_3   0.514907 0.159897 0.864501 -0.669696
H6    H     H_    0.497689 0.154842 0.769078 0.385636
O23   O     O_3   0.534233 0.155953 0.131673 -0.702089
H7    H     H_    0.513106 0.154455 0.225013 0.350367
O24   O     O_3   0.504027 0.839498 0.869315 -0.713440
H8    H     H_    0.504850 0.846687 0.770064 0.368888
O25   O     O_3   0.827605 0.283826 0.253845 -0.572624
C41   C     C_3   0.779961 0.353529 0.195510 0.103237
H9    H     H_    0.813792 0.378599 0.104741 0.165251
H10   H     H_    0.773915 0.411627 0.265255 0.138252
C42   C     C_3   0.693918 0.322543 0.152019 -0.333439
H11   H     H_    0.695044 0.252651 0.116889 0.295965
H12   H     H_    0.651969 0.325429 0.241261 0.191148
C43   C     C_3   0.660121 0.380954 0.037483 -0.908164
H13   H     H_    0.660534 0.451730 0.068733 0.253506
H14   H     H_    0.596790 0.360370 0.012285 0.291797
H15   H     H_    0.698297 0.374024 0.944903 0.295733
O26   O     O_3   0.128945 0.754624 0.704714 -0.556612
C44   C     C_3   0.071876 0.822458 0.670605 0.119988
H16   H     H_    0.009448 0.796438 0.690798 0.177486
H17   H     H_    0.072104 0.842711 0.560452 0.070319
C45   C     C_3   0.086544 0.903784 0.760729 -0.294186
H18   H     H_    0.096003 0.881094 0.867711 0.249744
H19   H     H_    0.142036 0.939641 0.724601 0.226950
C46   C     C_3   0.014507 0.967917 0.758382 -1.005693
H20   H     H_    0.001064 0.989329 0.652572 0.266372
H21   H     H_    0.029054 0.027712 0.820138 0.271051
H22   H     H_    0.959825 0.935054 0.802384 0.262291
O27   O     O_3   0.232205 0.640921 0.273455 -0.567242
C47   C     C_3   0.255963 0.553384 0.311976 0.142042
H23   H     H_    0.234645 0.506836 0.231416 0.164195
H24   H     H_    0.227153 0.529846 0.408024 0.131518
C48   C     C_3   0.348379 0.544523 0.326030 -0.398044
H25   H     H_    0.375391 0.536149 0.223432 0.220955
H26   H     H_    0.375260 0.606090 0.370156 0.226052
C49   C     C_3   0.369966 0.465483 0.418934 -0.998589
H27   H     H_    0.382179 0.491260 0.522421 0.268606
H28   H     H_    0.424495 0.429884 0.380960 0.271074
H29   H     H_    0.319954 0.415740 0.427118 0.241075
O28   O     O_3   0.787300 0.333224 0.740817 -0.606785
C50   C     C_3   0.847024 0.284360 0.813285 0.112377
H30   H     H_    0.868605 0.328385 0.895876 0.192521
H31   H     H_    0.899344 0.265124 0.747171 0.145174
C51   C     C_3   0.813452 0.199554 0.878002 -0.382690
H32   H     H_    0.753883 0.212989 0.926681 0.270676
H33   H     H_    0.804003 0.150311 0.795572 0.197940
C52   C     C_3   0.873825 0.161678 0.982428 -0.828468
H34   H     H_    0.927800 0.133163 0.929610 0.240733
H35   H     H_    0.843372 0.108954 0.043350 0.260564
H36   H     H_    0.895323 0.213696 0.053636 0.328705
O29   O     O_3   0.208785 0.332512 0.744961 -0.561362
C53   C     C_3   0.253633 0.413133 0.748849 0.144718
H37   H     H_    0.229068 0.452040 0.835999 0.178805
H38   H     H_    0.244172 0.455169 0.655875 0.117722
C54   C     C_3   0.345237 0.395842 0.770233 -0.374741
H39   H     H_    0.353339 0.341427 0.845087 0.280815
H40   H     H_    0.374883 0.374387 0.673977 0.213276
C55   C     C_3   0.387545 0.478013 0.823883 -1.008128
H41   H     H_    0.388830 0.532150 0.746232 0.267840
H42   H     H_    0.450369 0.460872 0.856632 0.268761
H43   H     H_    0.353802 0.500346 0.914613 0.275324
O30   O     O_3   0.793645 0.676125 0.252503 -0.604800
C56   C     C_3   0.861432 0.723112 0.199783 0.114536
H44   H     H_    0.888819 0.678303 0.123926 0.196359
H45   H     H_    0.907267 0.740627 0.279832 0.133148
C57   C     C_3   0.838393 0.806808 0.121290 -0.361556
H46   H     H_    0.803262 0.786543 0.030414 0.240625
H47   H     H_    0.800379 0.851447 0.184736 0.232781
C58   C     C_3   0.916142 0.855458 0.075768 -0.925103
H48   H     H_    0.954443 0.870444 0.165932 0.259960
H49   H     H_    0.902651 0.920181 0.026832 0.236556
H50   H     H_    0.950815 0.813972 0.002189 0.314572
O31   O     O_3   0.815133 0.696072 0.748970 -0.571602
C59   C     C_3   0.764832 0.625251 0.797280 0.117686
H51   H     H_    0.805366 0.574288 0.844751 0.148335
H52   H     H_    0.731857 0.588695 0.714385 0.130446
C60   C     C_3   0.705412 0.658683 0.907277 -0.337524
H53   H     H_    0.729840 0.639293 0.008419 0.210932
H54   H     H_    0.700769 0.732068 0.906285 0.295741
C61   C     C_3   0.619049 0.622306 0.889596 -0.885835
H55   H     H_    0.593236 0.646101 0.790918 0.272267
H56   H     H_    0.579293 0.646989 0.972947 0.282106
H57   H     H_    0.619412 0.548500 0.892813 0.246875
O32   O     O_3   0.147866 0.257412 0.275898 -0.540176
C62   C     C_3   0.085718 0.194775 0.311360 0.139742
H58   H     H_    0.047128 0.184580 0.219316 0.201839
H59   H     H_    0.044988 0.222564 0.391681 0.106758
C63   C     C_3   0.118691 0.102778 0.357921 -0.407889
H60   H     H_    0.163570 0.076895 0.283427 0.258599
H61   H     H_    0.148690 0.107957 0.459535 0.204794
C64   C     C_3   0.050271 0.036238 0.373499 -0.995493
H62   H     H_    0.075122 0.971915 0.411360 0.265411
H63   H     H_    0.019867 0.025822 0.273363 0.274952
H64   H     H_    0.006059 0.062051 0.449157 0.275457
O33   O     O_3   0.324866 0.793401 0.255862 -0.569491
C65   C     C_3   0.281832 0.866365 0.197071 0.139683
H65   H     H_    0.324458 0.901683 0.126995 0.140214
H66   H     H_    0.263237 0.917815 0.273124 0.141285
C66   C     C_3   0.208998 0.833876 0.112484 -0.374696
H67   H     H_    0.212532 0.862414 0.007753 0.202274
H68   H     H_    0.210215 0.760546 0.104676 0.307954
C67   C     C_3   0.127620 0.858973 0.174924 -0.895324
H69   H     H_    0.123759 0.836951 0.283332 0.254098
H70   H     H_    0.079502 0.824788 0.115905 0.302289
H71   H     H_    0.118504 0.931913 0.166803 0.259935
O34   O     O_3   0.638540 0.256371 0.706839 -0.547922
C68   C     C_3   0.584515 0.324092 0.658995 0.111492
H72   H     H_    0.535866 0.332125 0.737197 0.191243
H73   H     H_    0.553366 0.302927 0.563107 0.093786
C69   C     C_3   0.626957 0.415622 0.637263 -0.366923
H74   H     H_    0.664040 0.433119 0.728066 0.256534
H75   H     H_    0.667217 0.413072 0.545956 0.204841
C70   C     C_3   0.566552 0.490184 0.611250 -0.995836
H76   H     H_    0.521800 0.468769 0.534313 0.281893
H77   H     H_    0.599098 0.550752 0.574980 0.260811
H78   H     H_    0.534753 0.507935 0.705847 0.276200
O35   O     O_3   0.737690 0.129901 0.278550 -0.574363
C71   C     C_3   0.757141 0.041581 0.320272 0.136389
H79   H     H_    0.727961 0.994808 0.247226 0.170194
H80   H     H_    0.732529 0.023451 0.422321 0.119873
C72   C     C_3   0.849249 0.025336 0.319438 -0.396485
H81   H     H_    0.869173 0.009765 0.214348 0.218958
H82   H     H_    0.881593 0.086761 0.351980 0.236236
C73   C     C_3   0.871963 0.948189 0.415388 -0.982471
H83   H     H_    0.878035 0.973965 0.520620 0.244109
H84   H     H_    0.930714 0.917429 0.386003 0.273158
H85   H     H_    0.825163 0.894884 0.413644 0.245102
O36   O     O_3   0.274273 0.844248 0.738069 -0.611050
C74   C     C_3   0.331006 0.791039 0.810799 0.112674
H86   H     H_    0.351871 0.832152 0.897769 0.197022
H87   H     H_    0.385011 0.773374 0.747709 0.160220
C75   C     C_3   0.294987 0.703507 0.865551 -0.395910
H88   H     H_    0.231344 0.713196 0.900204 0.275496
H89   H     H_    0.292841 0.653249 0.782638 0.202950
C76   C     C_3   0.348035 0.667797 0.981857 -0.857142
H90   H     H_    0.406956 0.642491 0.941509 0.260818
H91   H     H_    0.314313 0.614841 0.037593 0.266199
H92   H     H_    0.363630 0.720506 0.055015 0.333226
O37   O     O_3   0.716514 0.844614 0.735734 -0.541694
C77   C     C_3   0.772047 0.916538 0.728916 0.125156
H93   H     H_    0.754332 0.964244 0.646652 0.129480
H94   H     H_    0.835382 0.892155 0.710222 0.113577
C78   C     C_3   0.773651 0.965250 0.864322 -0.452738
H95   H     H_    0.777693 0.916553 0.947268 0.250085
H96   H     H_    0.828167 0.008652 0.866414 0.186948
C79   C     C_3   0.696851 0.018000 0.891270 -0.691930
H97   H     H_    0.685251 0.066836 0.808549 0.278393
H98   H     H_    0.702105 0.053690 0.990002 0.239868
H99   H     H_    0.646228 0.970025 0.899160 0.277852
O38   O     O_3   0.293229 0.178901 0.251223 -0.589178
C80   C     C_3   0.362267 0.224353 0.199889 0.126936
H100  H     H_    0.386263 0.183463 0.115290 0.193656
H101  H     H_    0.409793 0.233087 0.280014 0.132374
C81   C     C_3   0.344417 0.316356 0.141117 -0.359893
H102  H     H_    0.303942 0.310966 0.050957 0.234252
H103  H     H_    0.312405 0.357961 0.216636 0.226831
C82   C     C_3   0.426106 0.359908 0.103027 -0.909618
H104  H     H_    0.471185 0.354714 0.187610 0.258905
H105  H     H_    0.417576 0.431356 0.082706 0.256472
H106  H     H_    0.452685 0.326845 0.012124 0.293692
O39   O     O_3   0.317078 0.195250 0.749084 -0.591559
C83   C     C_3   0.275298 0.120310 0.803684 0.104311
H107  H     H_    0.319500 0.084354 0.870446 0.169899
H108  H     H_    0.255720 0.071646 0.724015 0.125996
C84   C     C_3   0.201617 0.148892 0.889747 -0.280729
H109  H     H_    0.216515 0.210033 0.947989 0.280735
H110  H     H_    0.148987 0.163577 0.821272 0.224680
C85   C     C_3   0.177291 0.076120 0.991020 -0.930628
H111  H     H_    0.167734 0.012337 0.937617 0.250493
H112  H     H_    0.119636 0.094889 0.043095 0.274255
H113  H     H_    0.226427 0.066476 0.067977 0.276192
O40   O     O_3   0.650723 0.762205 0.269021 -0.560469
C86   C     C_3   0.590314 0.694785 0.284878 0.104699
H114  H     H_    0.546361 0.701858 0.199558 0.218375
H115  H     H_    0.554848 0.703752 0.381216 0.101580
C87   C     C_3   0.624811 0.599443 0.276822 -0.357626
H116  H     H_    0.665937 0.592610 0.188506 0.262654
H117  H     H_    0.659832 0.583026 0.370662 0.212355
C88   C     C_3   0.556333 0.532161 0.261719 -1.009055
H118  H     H_    0.579563 0.463738 0.280142 0.276266
H119  H     H_    0.528911 0.536535 0.158008 0.271625
H120  H     H_    0.509563 0.547381 0.338712 0.288919

loop_
_geom_bond_atom_site_label_1
_geom_bond_atom_site_label_2
_geom_bond_distance
_ccdc_geom_bond_type
C58   H50   1.110479 S    
C74   H86   1.106784 S    
C21   C36   1.410863 A    
C8    C37   1.480836 S    
C22   C35   1.417473 A    
O2    C2    1.325606 A    
O21   H5    0.976965 S    
O13   Cu4   2.008539 S    
O31   C59   1.420176 S    
C27   C37   1.415277 A    
C59   C60   1.536641 S    
O14   Cu3   2.008537 S    
O38   C80   1.408088 S    
C80   C81   1.519852 S    
C47   H24   1.106411 S    
O25   C41   1.421247 S    
C9    O17   1.372082 S    
O15   Cu4   2.010200 S    
O23   H7    0.976208 S    
O10   C6    1.324706 A    
O16   Cu3   2.010203 S    
C24   C30   1.396700 A    
C56   H45   1.115530 S    
C64   H62   1.108736 S    
C65   H66   1.117483 S    
C53   H37   1.111413 S    
O8    Cu1   2.010203 S    
C15   O23   1.371729 S    
C59   H52   1.118921 S    
C17   C34   1.419888 A    
C63   H60   1.106607 S    
C13   C16   1.422192 A    
C62   H58   1.110167 S    
C42   H11   1.104911 S    
C14   C15   1.423295 A    
C69   H75   1.110335 S    
C29   C40   1.407604 A    
C77   H94   1.114205 S    
C66   C67   1.513092 S    
C30   C39   1.421304 A    
N3    C14   1.382250 A    
C87   H117  1.108159 S    
C50   H30   1.103549 S    
C45   C46   1.521909 S    
C68   H72   1.110738 S    
C76   H92   1.098745 S    
C69   H74   1.107536 S    
O13   C7    1.324271 A    
O3    C2    1.322858 A    
C10   C11   1.423018 A    
O33   C65   1.420345 S    
C60   C61   1.522436 S    
O14   C8    1.318460 A    
O3    Cu1   2.012764 S    
C51   H32   1.103484 S    
C47   H23   1.111147 S    
C70   H78   1.095827 S    
C76   H91   1.106467 S    
C6    C39   1.499175 S    
C49   H27   1.103555 S    
C7    C38   1.502368 S    
C65   H65   1.108952 S    
C84   H109  1.108728 S    
C21   O29   1.379881 S    
C55   H41   1.108268 S    
C50   H31   1.111924 S    
C45   H19   1.110111 S    
C85   H112  1.109038 S    
O39   C83   1.415383 S    
C57   C58   1.528959 S    
C73   H83   1.105878 S    
C82   H106  1.109689 S    
C61   H56   1.108524 S    
C12   O20   1.373175 S    
N1    C10   1.382516 A    
C23   C29   1.406219 A    
C72   C73   1.531160 S    
O16   C7    1.325474 A    
C87   C88   1.512938 S    
C68   H73   1.114429 S    
O11   Cu3   2.012764 S    
C64   H63   1.109789 S    
O7    Cu2   2.010200 S    
C66   H67   1.109063 S    
O12   Cu4   2.012764 S    
C60   H54   1.102965 S    
C47   C48   1.522861 S    
C48   H26   1.110976 S    
C19   O27   1.388816 S    
C18   C33   1.401693 A    
C81   H103  1.102580 S    
C81   H102  1.105431 S    
C56   C57   1.515133 S    
C24   C36   1.402423 A    
C51   H33   1.107005 S    
C14   O22   1.374824 S    
C86   H115  1.115387 S    
C3    C34   1.499952 S    
N1    Cu1   2.067545 S    
C74   C75   1.530910 S    
C23   O31   1.382678 S    
C62   C63   1.547730 S    
C85   H113  1.109611 S    
C52   H35   1.104666 S    
O36   C74   1.413539 S    
C42   H12   1.111201 S    
N3    Cu3   2.067545 S    
C9    C12   1.422923 A    
O8    C3    1.327062 A    
C71   C72   1.525728 S    
N4    Cu4   2.067546 S    
C59   H51   1.111741 S    
C61   H57   1.106782 S    
C84   H110  1.111610 S    
C83   H107  1.111761 S    
C20   C34   1.411102 A    
C88   H119  1.110397 S    
O9    Cu3   2.014632 S    
C75   H88   1.104411 S    
C19   C25   1.407195 A    
C1    C36   1.486389 S    
C53   C54   1.534235 S    
C78   H95   1.090089 S    
O37   C77   1.409264 S    
C24   O32   1.382014 S    
O12   C5    1.320185 A    
C41   H9    1.109235 S    
O18   H2    0.975658 S    
C31   C39   1.417440 A    
C78   C79   1.509292 S    
C51   C52   1.527743 S    
C71   H80   1.108254 S    
C26   O34   1.383621 S    
O22   H6    0.977982 S    
C5    C40   1.486081 S    
Cu1   Cu2   2.751249 S    
C88   H118  1.108295 S    
C63   C64   1.504178 S    
C74   H87   1.110633 S    
N2    C11   1.379776 A    
N2    C9    1.382185 A    
C30   O38   1.378785 S    
Cu3   Cu4   2.751249 S    
C43   H15   1.105339 S    
N3    C16   1.382843 A    
C60   H53   1.104124 S    
C50   C51   1.518403 S    
C17   O25   1.379088 S    
C45   H18   1.109070 S    
C46   H22   1.105698 S    
C73   H85   1.105280 S    
O1    Cu1   2.014632 S    
C76   H90   1.109491 S    
C52   H34   1.110237 S    
C16   O24   1.374223 S    
C82   H105  1.097410 S    
C44   H16   1.109031 S    
C57   H46   1.101886 S    
C49   H29   1.107926 S    
C11   O19   1.372377 S    
C61   H55   1.110307 S    
C66   H68   1.102708 S    
O5    C3    1.321713 A    
O4    C1    1.324161 A    
C55   H42   1.105935 S    
O15   C8    1.320539 A    
C46   H21   1.109302 S    
C43   H14   1.107701 S    
N2    Cu2   2.067546 S    
C44   C45   1.527308 S    
C41   H10   1.114166 S    
O29   C53   1.412957 S    
C48   C49   1.530549 S    
O24   H8    0.976057 S    
C78   H96   1.102503 S    
C67   H71   1.106312 S    
C48   H25   1.104347 S    
O27   C47   1.418131 S    
C27   O35   1.390546 S    
O34   C68   1.423869 S    
C54   H39   1.100939 S    
C42   C43   1.521978 S    
C20   C26   1.399013 A    
O35   C71   1.419841 S    
C58   H49   1.101993 S    
C13   O21   1.369006 S    
O40   C86   1.419359 S    
C67   H69   1.110265 S    
C53   H38   1.114070 S    
C25   C38   1.412705 A    
C68   C69   1.549791 S    
C18   O26   1.381495 S    
C80   H100  1.105282 S    
C77   H93   1.111905 S    
C31   O39   1.383914 S    
O30   C56   1.407958 S    
C77   C78   1.516380 S    
C10   O18   1.371327 S    
C88   H120  1.098534 S    
C86   H114  1.105670 S    
C69   C70   1.513400 S    
O28   C50   1.410078 S    
C57   H47   1.107309 S    
C64   H64   1.106635 S    
C41   C42   1.540796 S    
O6    C4    1.322190 A    
C56   H44   1.099862 S    
O11   C6    1.323640 A    
O1    C1    1.317763 A    
C29   O37   1.378664 S    
N4    C15   1.382841 A    
C83   C84   1.532954 S    
C79   H98   1.109997 S    
O2    Cu2   2.014632 S    
C71   H79   1.110858 S    
C54   C55   1.508354 S    
C62   H59   1.113309 S    
C87   H116  1.100081 S    
O20   H4    0.975810 S    
O17   H1    0.974880 S    
C63   H61   1.111091 S    
C28   C38   1.414983 A    
C46   H20   1.103736 S    
C25   O33   1.376594 S    
C75   C76   1.525191 S    
O9    C5    1.321957 A    
C32   C40   1.408615 A    
O32   C62   1.423435 S    
C32   O40   1.382501 S    
N4    C13   1.379465 A    
C55   H43   1.099287 S    
C85   H111  1.103168 S    
C67   H70   1.102736 S    
O26   C44   1.419691 S    
C80   H101  1.111360 S    
C83   H108  1.116930 S    
C79   H97   1.104406 S    
C84   C85   1.521336 S    
C28   O36   1.374532 S    
C79   H99   1.097620 S    
C23   C35   1.416828 A    
O19   H3    0.978058 S    
C20   O28   1.376123 S    
C49   H28   1.105418 S    
C70   H77   1.107897 S    
C19   C33   1.414726 A    
N1    C12   1.381068 A    
C22   O30   1.377302 S    
C72   H81   1.104693 S    
O10   Cu4   2.014632 S    
C2    C35   1.499379 S    
C70   H76   1.098145 S    
O6    Cu1   2.008537 S    
C43   H13   1.106026 S    
C21   C31   1.406929 A    
C44   H17   1.117454 S    
O7    C4    1.316619 A    
O5    Cu2   2.008539 S    
C22   C32   1.398703 A    
C82   H104  1.110124 S    
C52   H36   1.105406 S    
C26   C37   1.406429 A    
C73   H84   1.105108 S    
C72   H82   1.109130 S    
C4    C33   1.480437 S    
C75   H89   1.110773 S    
C17   C27   1.409114 A    
C81   C82   1.530238 S    
O4    Cu2   2.012764 S    
C58   H48   1.105185 S    
C86   C87   1.540208 S    
C18   C28   1.403244 A    
C54   H40   1.108669 S    
C65   C66   1.529962 S    
