data_mof_unit_20741.cif
_audit_creation_date              2012-10-26T18:33:35-0400
_audit_creation_method            fapswitch 2.2
_symmetry_space_group_name_H-M    P1
_symmetry_Int_Tables_number       1
_space_group_crystal_system       triclinic
_cell_length_a                    15.079679
_cell_length_b                    13.696121
_cell_length_c                    10.743127
_cell_angle_alpha                 89.618657
_cell_angle_beta                  89.774248
_cell_angle_gamma                 90.009387
_cell_volume                      2218.7450042

loop_
_atom_site_label
_atom_site_type_symbol
_atom_type_description
_atom_site_fract_x
_atom_site_fract_y
_atom_site_fract_z
_atom_type_partial_charge
C1    C     C_R   0.328478 0.499999 0.499677 0.560997
C2    C     C_R   0.046330 0.677949 0.497359 -0.143137
C3    C     C_R   0.092988 0.589463 0.497239 0.003469
C4    C     C_R   0.501947 0.500158 0.259738 0.546558
C5    C     C_R   0.046543 0.500023 0.497811 0.058634
C6    C     C_R   0.092955 0.410595 0.498115 0.008519
C7    C     C_R   0.046281 0.322104 0.499369 -0.140250
C8    C     C_R   0.953832 0.322092 0.500157 -0.140110
C9    C     C_R   0.185352 0.588836 0.497812 -0.152289
C10   C     C_R   0.231674 0.500018 0.498316 -0.016314
C11   C     C_R   0.185312 0.411214 0.497685 -0.147936
C12   C     C_3   0.573687 0.569342 0.926641 -0.332439
C13   C     C_R   0.432115 0.793097 0.556542 0.029882
C14   C     C_R   0.431499 0.206264 0.555075 0.029760
C15   C     C_R   0.567236 0.793711 0.442151 0.029658
C16   C     C_R   0.567432 0.206909 0.442638 0.022174
C17   C     C_R   0.568847 0.896748 0.440787 -0.017296
C18   C     C_R   0.568897 0.103897 0.440939 -0.019050
C19   C     C_R   0.671533 0.500005 0.499980 0.540441
C20   C     C_R   0.499266 0.948202 0.498356 0.052284
C21   C     C_R   0.499155 0.051805 0.498100 0.049999
C22   C     C_R   0.429739 0.896101 0.556036 -0.018524
C23   C     C_R   0.814765 0.411192 0.500282 -0.145216
C24   C     C_R   0.429159 0.103241 0.554639 -0.024850
C25   C     C_R   0.637979 0.949324 0.383184 -0.150445
C26   C     C_R   0.638053 0.051962 0.383381 -0.151227
C27   C     C_R   0.358859 0.050607 0.609315 -0.152519
C28   C     C_R   0.359526 0.948006 0.610986 -0.152015
C29   C     C_R   0.501112 0.499469 0.740406 0.588206
C30   C     C_3   0.410264 0.530489 0.073071 -0.200156
C31   C     C_3   0.524546 0.396088 0.073651 -0.192641
C32   C     C_3   0.409513 0.532685 0.928787 0.173676
C33   C     C_3   0.523780 0.393651 0.930460 0.182780
C34   C     C_R   0.768401 0.500012 0.499846 -0.016201
C35   C     C_3   0.573620 0.571305 0.070185 -0.278717
C36   C     C_3   0.502704 0.499860 0.121987 -0.013730
C37   C     C_3   0.501276 0.497974 0.878585 0.093640
C38   C     C_3   0.260631 0.522462 0.872400 -0.001283
C39   C     C_3   0.186364 0.449698 0.846205 -0.241595
C40   C     C_3   0.096928 0.500848 0.833554 -0.480646
C41   C     C_3   0.497825 0.228975 0.888868 0.005572
C42   C     C_3   0.423726 0.154035 0.905171 -0.248439
C43   C     C_3   0.459582 0.049910 0.899657 -0.482576
C44   C     C_R   0.814788 0.588834 0.499140 -0.143452
C45   C     C_R   0.907177 0.589453 0.498608 0.010255
C46   C     C_R   0.953593 0.500019 0.498704 0.059368
C47   C     C_R   0.907153 0.410581 0.499746 0.009205
C48   C     C_R   0.953880 0.677947 0.497936 -0.138920
Cu1   Cu    Cu3+1 0.499990 0.597420 0.500010 0.917887
Cu2   Cu    Cu3+1 0.499990 0.402580 0.500010 0.943052
H1    H     H_    0.392503 0.604122 0.108624 0.084701
H2    H     H_    0.619740 0.753301 0.396823 0.116938
H3    H     H_    0.620166 0.247789 0.397824 0.117252
H4    H     H_    0.692090 0.911094 0.338232 0.098182
H5    H     H_    0.692231 0.090692 0.338602 0.097200
H6    H     H_    0.303648 0.088720 0.651658 0.096454
H7    H     H_    0.305039 0.909294 0.655024 0.096121
H8    H     H_    0.359239 0.478611 0.109066 0.147175
H9    H     H_    0.475235 0.342803 0.111165 0.166916
H10   H     H_    0.400371 0.609999 0.896928 0.073181
H11   H     H_    0.591846 0.375014 0.896098 0.069149
H12   H     H_    0.590945 0.372689 0.107673 0.073684
H13   H     H_    0.559622 0.646909 0.102151 0.142459
H14   H     H_    0.640397 0.550681 0.105454 0.123316
H15   H     H_    0.561650 0.644600 0.890794 0.136652
H16   H     H_    0.640208 0.546511 0.892254 0.110620
H17   H     H_    0.779100 0.342430 0.500924 0.118312
H18   H     H_    0.779140 0.657591 0.498874 0.119940
H19   H     H_    0.918909 0.747065 0.497964 0.103511
H20   H     H_    0.265024 0.575589 0.793661 0.127690
H21   H     H_    0.244428 0.562034 0.959941 0.113226
H22   H     H_    0.201489 0.409936 0.758954 0.180624
H23   H     H_    0.081332 0.747061 0.497184 0.103670
H24   H     H_    0.182474 0.395455 0.923462 0.170127
H25   H     H_    0.077724 0.534866 0.923264 0.143749
H26   H     H_    0.045403 0.446843 0.807518 0.155013
H27   H     H_    0.100127 0.558261 0.760338 0.161063
H28   H     H_    0.546762 0.216932 0.965117 0.098452
H29   H     H_    0.531669 0.217567 0.797944 0.151053
H30   H     H_    0.390638 0.165246 0.996614 0.166581
H31   H     H_    0.373548 0.164891 0.831124 0.169349
H32   H     H_    0.494768 0.037448 0.810145 0.162338
H33   H     H_    0.403778 0.997288 0.907316 0.146958
H34   H     H_    0.221020 0.657584 0.498273 0.118756
H35   H     H_    0.506126 0.036445 0.977794 0.144789
H36   H     H_    0.220958 0.342458 0.498119 0.120190
H37   H     H_    0.081269 0.252996 0.499825 0.103844
H38   H     H_    0.918846 0.252968 0.501063 0.102901
H39   H     H_    0.379622 0.752226 0.601953 0.113934
H40   H     H_    0.378756 0.246604 0.599938 0.136863
N1    N     N_R   0.499930 0.743810 0.499950 -0.238083
N2    N     N_R   0.499930 0.256190 0.499950 -0.243924
O1    O     O_R   0.370250 0.582280 0.500040 -0.514887
O2    O     O_3   0.460526 0.323827 0.890437 -0.506100
O3    O     O_R   0.370250 0.417720 0.500040 -0.504873
O4    O     O_R   0.499970 0.582270 0.317700 -0.501467
O5    O     O_R   0.499970 0.417730 0.317700 -0.511204
O6    O     O_R   0.629730 0.582260 0.499980 -0.515227
O7    O     O_R   0.629730 0.417740 0.499980 -0.522043
O8    O     O_R   0.500000 0.582270 0.682320 -0.526419
O9    O     O_R   0.500000 0.417730 0.682320 -0.452144
O10   O     O_3   0.341434 0.471019 0.883213 -0.520607

loop_
_geom_bond_atom_site_label_1
_geom_bond_atom_site_label_2
_ccdc_geom_bond_type
C30   H1    S    
C38   H20   S    
C42   H30   S    
C18   C21   A    
C43   H33   S    
C41   C42   S    
C35   C36   S    
C18   C26   A    
C24   C27   A    
C48   H19   S    
C26   H5    S    
C4    C36   S    
C7    C8    A    
C28   H7    S    
Cu2   O7    S    
C38   C39   S    
Cu2   O3    S    
C11   H36   S    
C14   C24   A    
C17   C20   A    
C46   C47   A    
C39   H24   S    
C23   H17   S    
C12   C37   S    
C16   H3    S    
C14   H40   S    
Cu1   O6    S    
C4    O4    A    
C7    H37   S    
C39   H22   S    
C31   C33   S    
C35   H14   S    
C9    C10   A    
C22   C28   A    
C4    O5    A    
C33   O2    S    
C31   H12   S    
C42   H31   S    
Cu1   N1    S    
C19   O6    A    
C23   C47   A    
C43   H35   S    
C34   C44   A    
C25   H4    S    
C6    C11   A    
C19   O7    A    
C27   H6    S    
C2    C48   A    
C25   C26   A    
C45   C46   A    
C12   H16   S    
C1    O1    A    
C33   C37   S    
C40   H26   S    
C8    H38   S    
C3    C9    A    
C41   O2    S    
C1    O3    A    
C23   C34   A    
C29   O9    A    
C32   C37   S    
C12   C35   S    
C14   N2    A    
C2    H23   S    
Cu2   N2    S    
C20   C22   A    
C16   N2    A    
C32   O10   S    
C44   H18   S    
C42   C43   S    
C32   H10   S    
C41   H28   S    
C44   C45   A    
C5    C46   A    
C45   C48   A    
C31   H9    S    
C15   C17   A    
C38   H21   S    
Cu2   O5    S    
C29   O8    A    
C13   H39   S    
C31   C36   S    
C1    C10   S    
C3    C5    A    
C19   C34   S    
C41   H29   S    
C6    C7    A    
C12   H15   S    
C40   H25   S    
C30   C36   S    
C17   C25   A    
C15   H2    S    
C2    C3    A    
C8    C47   A    
C38   O10   S    
Cu1   O8    S    
C30   C32   S    
C5    C6    A    
C33   H11   S    
C30   H8    S    
C13   C22   A    
Cu1   O4    S    
C10   C11   A    
C9    H34   S    
C15   N1    A    
C39   C40   S    
C20   C21   A    
Cu2   O9    S    
C16   C18   A    
Cu1   Cu2   S    
C21   C24   A    
C29   C37   S    
C27   C28   A    
C43   H32   S    
C40   H27   S    
C35   H13   S    
Cu1   O1    S    
C13   N1    A    
