data_mof_unit_48026.cif
_audit_creation_date              2012-12-10T16:59:24-0500
_audit_creation_method            fapswitch 2.2
_symmetry_space_group_name_H-M    P1
_symmetry_Int_Tables_number       1
_space_group_crystal_system       triclinic
_cell_length_a                    13.154655
_cell_length_b                    13.114173
_cell_length_c                    17.806516
_cell_angle_alpha                 110.051106
_cell_angle_beta                  73.036738
_cell_angle_gamma                 90.575756
_cell_volume                      2746.22730382

loop_
_atom_site_label
_atom_site_type_symbol
_atom_type_description
_atom_site_fract_x
_atom_site_fract_y
_atom_site_fract_z
_atom_type_partial_charge
C1    C     C_R   0.216795 0.544340 0.531913 0.494551
C2    C     C_R   0.569376 0.369557 0.897393 -0.114912
C3    C     C_R   0.634557 0.321823 0.927486 -0.120136
C4    C     C_R   0.782049 0.457000 0.469129 0.548564
C5    C     C_R   0.613797 0.348972 0.013690 0.005814
C6    C     C_R   0.518455 0.414351 0.070286 0.023964
C7    C     C_R   0.687717 0.311729 0.043741 -0.098602
C8    C     C_R   0.671111 0.342871 0.129963 0.261536
C9    C     C_R   0.499388 0.438377 0.156856 -0.166536
C10   C     C_2   0.895142 0.450310 0.462392 -0.094542
C11   C     C_2   0.931327 0.489399 0.529201 0.046450
C12   C     C_R   0.298970 0.615836 0.863279 0.019123
C13   C     C_2   0.101281 0.564309 0.547085 0.070438
C14   C     C_2   0.048283 0.481291 0.512695 -0.168162
C15   C     C_2   0.534517 0.896185 0.530709 -0.035452
C16   C     C_R   0.468290 0.217909 0.478159 0.500276
C17   C     C_2   0.450540 0.957441 0.534887 0.261053
C18   C     C_2   0.447536 0.105601 0.476859 0.058235
C19   C     C_2   0.467747 0.070487 0.535658 0.193982
C20   C     C_R   0.527936 0.782604 0.524106 0.550339
C21   C     C_R   0.552255 0.432858 0.276648 0.535615
C22   C     C_R   0.446448 0.564720 0.724295 0.510665
C23   C     C_R   0.472403 0.531987 0.848416 0.003001
C24   C     C_R   0.406627 0.575921 0.814330 -0.083022
C25   C     C_R   0.574885 0.403605 0.186337 0.040380
C26   C     C_R   0.259945 0.614453 0.945480 0.242636
C27   C     C_2   0.859851 0.541989 0.617262 0.632479
C28   C     C_2   0.047476 0.676453 0.597981 0.593774
C29   C     C_3   0.463793 0.153328 0.674960 0.011187
C30   C     C_3   0.379499 0.251581 0.710831 -0.259485
C31   C     C_3   0.318053 0.273046 0.802741 -0.479686
C32   C     C_3   0.265349 0.972586 0.586816 0.000362
C33   C     C_3   0.237482 0.937526 0.663504 -0.237222
C34   C     C_R   0.426649 0.511391 0.924019 -0.038752
C35   C     C_3   0.132134 0.997120 0.727945 -0.448480
C36   C     C_2   0.404761 0.034275 0.410152 0.562068
C37   C     C_3   0.821325 0.384654 0.170262 0.024464
C38   C     C_3   0.925551 0.345411 0.097352 -0.275649
C39   C     C_3   0.011806 0.421749 0.112431 -0.469639
C40   C     C_3   0.151270 0.774157 0.027558 0.022334
C41   C     C_3   0.154539 0.814184 0.118244 -0.285275
C42   C     C_3   0.137084 0.938418 0.157657 -0.460952
C43   C     C_2   0.223301 0.656621 0.830198 0.619294
C44   C     C_2   0.590405 0.528933 0.814904 0.573293
C45   C     C_R   0.322194 0.559582 0.974755 0.020569
C46   C     C_R   0.483260 0.447809 0.952670 0.044337
C47   C     C_R   0.448685 0.457647 0.038315 0.051367
C48   C     C_R   0.345473 0.508572 0.087927 -0.149381
C49   C     C_R   0.281765 0.553861 0.055144 -0.121807
H1    H     H_    0.201382 0.587810 0.094647 0.153152
H2    H     H_    0.723205 0.634340 0.696412 0.354198
H3    H     H_    0.943740 0.798396 0.611313 0.339655
H4    H     H_    0.522258 0.172371 0.710799 0.163667
H5    H     H_    0.427248 0.080742 0.685441 0.104318
H6    H     H_    0.419526 0.324856 0.706063 0.207711
H7    H     H_    0.322240 0.237354 0.674049 0.145101
H8    H     H_    0.273490 0.202440 0.808759 0.149179
H9    H     H_    0.260246 0.346750 0.827592 0.175078
H10   H     H_    0.373741 0.287032 0.840821 0.152549
H11   H     H_    0.198798 0.956387 0.558994 0.176562
H12   H     H_    0.759760 0.260732 0.000290 0.120483
H13   H     H_    0.270473 0.062075 0.606001 0.101821
H14   H     H_    0.231162 0.848291 0.642994 0.245719
H15   H     H_    0.301847 0.954647 0.693526 0.157449
H16   H     H_    0.136907 0.086656 0.749629 0.135054
H17   H     H_    0.114912 0.970692 0.782964 0.190447
H18   H     H_    0.065743 0.977821 0.700128 0.170207
H19   H     H_    0.410951 0.885434 0.323117 0.345401
H20   H     H_    0.838395 0.391530 0.229276 0.166345
H21   H     H_    0.791943 0.468660 0.178393 0.140986
H22   H     H_    0.954571 0.262106 0.089852 0.180283
H23   H     H_    0.092185 0.403004 0.470404 0.136046
H24   H     H_    0.911001 0.341889 0.038195 0.164589
H25   H     H_    0.985196 0.505259 0.118785 0.172230
H26   H     H_    0.085993 0.391309 0.058419 0.163171
H27   H     H_    0.029955 0.425126 0.170333 0.144985
H28   H     H_    0.073894 0.806521 0.026959 0.179719
H29   H     H_    0.215016 0.809197 0.989542 0.141519
H30   H     H_    0.091438 0.779098 0.156200 0.176841
H31   H     H_    0.233536 0.786694 0.119313 0.169483
H32   H     H_    0.200217 0.975272 0.121347 0.160441
H33   H     H_    0.140576 0.964742 0.223070 0.174603
H34   H     H_    0.951758 0.420527 0.399417 0.072581
H35   H     H_    0.057561 0.968289 0.159103 0.156673
H36   H     H_    0.091288 0.633278 0.793177 0.372021
H37   H     H_    0.728077 0.446213 0.729780 0.365243
H38   H     H_    0.611693 0.928235 0.526627 0.094198
H39   H     H_    0.429367 0.489151 0.203216 0.110476
H40   H     H_    0.703107 0.265881 0.883184 0.119391
H41   H     H_    0.309950 0.509982 0.151104 0.109277
H42   H     H_    0.585398 0.342236 0.830329 0.152030
O1    O     O_3   0.500000 0.500000 0.500000 -0.463582
O2    O     O_R   0.474570 0.394560 0.317400 -0.532217
O3    O     O_R   0.403380 0.624270 0.695980 -0.507857
O4    O     O_R   0.609140 0.497770 0.314440 -0.547364
O5    O     O_R   0.512900 0.483390 0.672170 -0.494210
O6    O     O_2   0.889860 0.539301 0.675485 -0.505245
O7    O     O_R   0.761833 0.599316 0.634081 -0.664917
O8    O     O_2   0.067469 0.729286 0.662458 -0.503852
O9    O     O_R   0.974813 0.721859 0.571546 -0.691643
O10   O     O_3   0.520622 0.134809 0.589797 -0.556268
O11   O     O_3   0.358130 0.909183 0.525053 -0.543332
O12   O     O_R   0.526170 0.271940 0.521690 -0.492657
O13   O     O_2   0.335099 0.071906 0.391407 -0.501100
O14   O     O_R   0.446284 0.925045 0.367104 -0.667264
O15   O     O_3   0.745917 0.307315 0.158708 -0.569650
O16   O     O_3   0.156603 0.658609 0.995104 -0.560157
O17   O     O_2   0.233171 0.743741 0.819223 -0.506535
O18   O     O_R   0.138162 0.597080 0.814974 -0.661480
O19   O     O_2   0.637244 0.596779 0.855156 -0.487678
O20   O     O_R   0.648212 0.445839 0.740708 -0.672667
O21   O     O_R   0.451880 0.756290 0.574830 -0.525092
O22   O     O_R   0.271960 0.460780 0.472050 -0.552248
O23   O     O_R   0.749980 0.510990 0.431420 -0.537744
O24   O     O_R   0.262540 0.611050 0.579000 -0.507562
O25   O     O_R   0.715520 0.417170 0.517520 -0.490805
O26   O     O_R   0.426070 0.262540 0.438550 -0.512129
O27   O     O_R   0.595870 0.709230 0.464930 -0.526126
Zn1   Zn    Zn3+2 0.562560 0.419520 0.551940 1.010878
Zn2   Zn    Zn3+2 0.419550 0.406100 0.433160 0.971011
Zn3   Zn    Zn3+2 0.611810 0.553570 0.428930 0.972855
Zn4   Zn    Zn3+2 0.406080 0.620810 0.585960 1.001292

loop_
_geom_bond_atom_site_label_1
_geom_bond_atom_site_label_2
_ccdc_geom_bond_type
C27   O7    S    
C37   H20   S    
C41   C42   S    
O5    Zn1   S    
C42   H33   S    
C41   H31   S    
C20   O27   A    
C9    C25   A    
C7    C8    A    
C2    C46   A    
C29   C30   S    
C29   H4    S    
C31   H9    S    
C4    O23   A    
O1    Zn1   S    
C12   C43   S    
H36   O18   S    
C9    H39   S    
C30   C31   S    
C11   C14   S    
C29   H5    S    
C35   H16   S    
C10   H34   S    
C18   C19   D    
C46   C47   A    
C39   H25   S    
C31   H10   S    
C7    H12   S    
C26   C45   A    
C17   C19   S    
C20   O21   A    
O23   Zn3   S    
C23   C24   A    
C13   C28   S    
C34   C46   A    
O2    Zn2   S    
C45   C49   A    
C28   O9    S    
H2    O7    S    
O24   Zn4   S    
C48   H41   S    
C13   C14   D    
C8    C25   A    
C22   O3    A    
C42   H32   S    
C1    O22   A    
C6    C9    A    
C11   C27   S    
C15   C20   S    
C6    C47   A    
C42   H35   S    
O26   Zn2   S    
C5    C7    A    
C21   O4    A    
C35   H17   S    
C30   H7    S    
H3    O9    S    
C23   C44   S    
C12   C26   A    
O27   Zn3   S    
C38   C39   S    
C17   O11   S    
O21   Zn4   S    
C37   C38   S    
O1    Zn4   S    
O22   Zn2   S    
C16   O12   A    
C47   C48   A    
C35   H18   S    
C33   H14   S    
C23   C34   A    
C29   O10   S    
C34   C45   A    
C39   H27   S    
C40   O16   S    
O3    Zn4   S    
C28   O8    D    
C40   C41   S    
C39   H26   S    
C22   C24   S    
C1    C13   S    
H19   O14   S    
C32   H11   S    
C4    C10   S    
C15   H38   S    
C15   C17   D    
C21   C25   S    
C38   H22   S    
C27   O6    D    
C36   O14   S    
C22   O5    A    
C4    O25   A    
O12   Zn1   S    
C3    C5    A    
C8    O15   S    
C26   O16   S    
C41   H30   S    
C32   O11   S    
C1    O24   A    
C30   H6    S    
C12   C24   A    
O25   Zn1   S    
C36   O13   D    
C3    H40   S    
C14   H23   S    
C32   C33   S    
C31   H8    S    
C2    C3    A    
O1    Zn2   S    
C32   H13   S    
C37   O15   S    
O1    Zn3   S    
C19   O10   S    
O4    Zn3   S    
C5    C6    A    
C21   O2    A    
C33   H15   S    
C48   C49   A    
C33   C35   S    
H37   O20   S    
C40   H29   S    
C43   O17   D    
C2    H42   S    
C10   C11   D    
C44   O20   S    
C16   C18   S    
C49   H1    S    
C40   H28   S    
C43   O18   S    
C16   O26   A    
C18   C36   S    
C37   H21   S    
C38   H24   S    
C44   O19   D    
