data_mof_unit_22774.cif
_audit_creation_date              2012-12-10T17:40:56-0500
_audit_creation_method            fapswitch 2.2
_symmetry_space_group_name_H-M    P1
_symmetry_Int_Tables_number       1
_space_group_crystal_system       triclinic
_cell_length_a                    14.7796
_cell_length_b                    15.397208
_cell_length_c                    9.926316
_cell_angle_alpha                 90.022877
_cell_angle_beta                  90.622913
_cell_angle_gamma                 89.98806
_cell_volume                      2258.7441624

loop_
_atom_site_label
_atom_site_type_symbol
_atom_type_description
_atom_site_fract_x
_atom_site_fract_y
_atom_site_fract_z
_atom_type_partial_charge
C1    C     C_R   0.383778 0.877354 0.499637 0.857336
C2    C     C_R   0.379842 0.119182 0.499870 0.848648
C3    C     C_R   0.879807 0.380842 0.499853 0.848552
C4    C     C_R   0.883579 0.622498 0.499679 0.856615
C5    C     C_R   0.229588 0.169569 0.455962 -0.228641
C6    C     C_R   0.255696 0.805417 0.403519 -0.219903
C7    C     C_R   0.753789 0.692779 0.405846 -0.218805
C8    C     C_R   0.728115 0.331861 0.464153 -0.229626
C9    C     C_R   0.689828 0.756486 0.407579 -0.205829
C10   C     C_R   0.664249 0.267192 0.463485 -0.215033
C11   C     C_R   0.165840 0.234335 0.455095 -0.215901
C12   C     C_R   0.191705 0.741817 0.405468 -0.206729
C13   C     C_R   0.695004 0.821848 0.504335 -0.111472
C14   C     C_R   0.689668 0.182813 0.497023 -0.086070
C15   C     C_R   0.190095 0.317534 0.496834 -0.088036
C16   C     C_R   0.195334 0.677979 0.504737 -0.112798
C17   C     C_R   0.334952 0.999006 0.137517 -0.187471
C18   C     C_R   0.834955 0.501369 0.137519 -0.186274
C19   C     C_R   0.253301 0.998134 0.066521 -0.239115
C20   C     C_R   0.753307 0.502470 0.066525 -0.238484
C21   C     C_R   0.252588 0.998205 0.926129 0.135925
C22   C     C_R   0.752595 0.502423 0.926134 0.135850
C23   C     C_R   0.334578 0.998795 0.857694 -0.151754
C24   C     C_R   0.834583 0.501657 0.857696 -0.151898
C25   C     C_R   0.418502 0.999178 0.926561 0.127928
C26   C     C_R   0.918505 0.501151 0.926559 0.128113
C27   C     C_R   0.418600 0.999277 0.070998 0.173243
C28   C     C_R   0.918602 0.501015 0.070999 0.172667
C29   C     C_R   0.577893 0.001327 0.072812 -0.102711
C30   C     C_R   0.077870 0.498078 0.072835 -0.102797
C31   C     C_R   0.620374 0.119230 0.499721 0.845038
C32   C     C_R   0.623329 0.883499 0.501225 0.843307
C33   C     C_R   0.123463 0.616423 0.501343 0.843648
C34   C     C_R   0.120627 0.380993 0.499676 0.845117
C35   C     C_R   0.577822 0.001653 0.929887 -0.103325
C36   C     C_R   0.077784 0.497611 0.929938 -0.103465
C37   C     C_R   0.433630 0.292306 0.578855 -0.191227
C38   C     C_R   0.412030 0.730652 0.680925 -0.168785
C39   C     C_R   0.913577 0.771218 0.676418 -0.170879
C40   C     C_R   0.935248 0.205859 0.564809 -0.189276
C41   C     C_R   0.460387 0.378244 0.598636 -0.159512
C42   C     C_R   0.416363 0.667798 0.781365 -0.144225
C43   C     C_R   0.919652 0.836262 0.773405 -0.144020
C44   C     C_R   0.962297 0.119468 0.578111 -0.159680
C45   C     C_R   0.850047 0.896014 0.785977 -0.153403
C46   C     C_R   0.899981 0.053044 0.556645 -0.126570
C47   C     C_R   0.398725 0.445233 0.577372 -0.128878
C48   C     C_R   0.346138 0.608913 0.794958 -0.157445
C49   C     C_R   0.775675 0.892582 0.698646 -0.198543
C50   C     C_R   0.809430 0.072924 0.529602 -0.190837
C51   C     C_R   0.308867 0.426193 0.544139 -0.188941
C52   C     C_R   0.273158 0.610746 0.704943 -0.198302
C53   C     C_R   0.767476 0.826508 0.599530 0.095154
C54   C     C_R   0.780602 0.160013 0.520854 0.094457
C55   C     C_R   0.280232 0.339461 0.528459 0.095685
C56   C     C_R   0.266510 0.674792 0.602464 0.096378
C57   C     C_R   0.344155 0.272520 0.537777 0.105747
C58   C     C_R   0.335121 0.737511 0.594719 0.098569
C59   C     C_R   0.835737 0.763358 0.592389 0.098189
C60   C     C_R   0.844855 0.226649 0.530299 0.105929
C61   C     C_R   0.317018 0.188191 0.500220 -0.078122
C62   C     C_R   0.325333 0.804573 0.498725 -0.096835
C63   C     C_R   0.824724 0.694977 0.498852 -0.095406
C64   C     C_R   0.816859 0.311924 0.500217 -0.076612
H1    H     H_    0.210620 0.104623 0.424074 0.133203
H2    H     H_    0.249161 0.857033 0.329748 0.155218
H3    H     H_    0.746357 0.640114 0.334002 0.153110
H4    H     H_    0.708316 0.397667 0.438287 0.132775
H5    H     H_    0.329647 0.999378 0.750678 0.209284
H6    H     H_    0.829646 0.500870 0.750682 0.209058
H7    H     H_    0.641483 0.003774 0.877789 0.133155
H8    H     H_    0.141407 0.494567 0.877975 0.132035
H9    H     H_    0.483715 0.242030 0.593329 0.149115
H10   H     H_    0.470383 0.772208 0.670536 0.169458
H11   H     H_    0.971326 0.728779 0.666785 0.169158
H12   H     H_    0.985549 0.255859 0.579787 0.145021
H13   H     H_    0.529656 0.392981 0.626870 0.140249
H14   H     H_    0.474959 0.664011 0.847513 0.145910
H15   H     H_    0.979087 0.840993 0.837709 0.146453
H16   H     H_    0.032127 0.104019 0.601877 0.140796
H17   H     H_    0.855248 0.947388 0.860162 0.141509
H18   H     H_    0.921976 0.986087 0.560831 0.158021
H19   H     H_    0.420860 0.511945 0.585928 0.159389
H20   H     H_    0.349994 0.559130 0.871814 0.141385
H21   H     H_    0.727736 0.944553 0.708124 0.162564
H22   H     H_    0.762772 0.020306 0.510592 0.118748
H23   H     H_    0.262804 0.479242 0.524967 0.118149
H24   H     H_    0.225213 0.559031 0.715399 0.163481
H25   H     H_    0.634081 0.752910 0.335802 0.165974
H26   H     H_    0.595209 0.282760 0.435473 0.150408
H27   H     H_    0.097751 0.219735 0.420986 0.151992
H28   H     H_    0.137010 0.744471 0.331823 0.167443
H29   H     H_    0.641618 0.002465 0.127446 0.146991
H30   H     H_    0.141583 0.496435 0.127470 0.146835
H31   H     H_    0.329903 0.999738 0.244423 0.204855
H32   H     H_    0.829904 0.500372 0.244418 0.205102
H33   H     H_    0.190452 0.997753 0.121651 0.141240
H34   H     H_    0.690456 0.502899 0.121651 0.141588
N1    N     N_R   0.498810 0.000000 0.142780 -0.118508
N2    N     N_R   0.998810 0.500000 0.142780 -0.118511
N3    N     N_R   0.498740 0.000000 0.857170 -0.117468
N4    N     N_R   0.998740 0.500000 0.857170 -0.117177
O1    O     O_R   0.408390 0.908380 0.614690 -0.640915
O2    O     O_R   0.408390 0.091620 0.614690 -0.637590
O3    O     O_R   0.908390 0.408380 0.614690 -0.636090
O4    O     O_R   0.908390 0.591620 0.614690 -0.640602
O5    O     O_R   0.408370 0.908380 0.385360 -0.634929
O6    O     O_R   0.408370 0.091620 0.385360 -0.625322
O7    O     O_R   0.908370 0.408380 0.385360 -0.625885
O8    O     O_R   0.908370 0.591620 0.385360 -0.634294
O9    O     O_R   0.591620 0.091610 0.614640 -0.621309
O10   O     O_R   0.591620 0.908390 0.614640 -0.634575
O11   O     O_R   0.091620 0.591610 0.614640 -0.635509
O12   O     O_R   0.091620 0.408390 0.614640 -0.620210
O13   O     O_R   0.591610 0.091610 0.385310 -0.607659
O14   O     O_R   0.591610 0.908390 0.385310 -0.612384
O15   O     O_R   0.091610 0.591610 0.385310 -0.612135
O16   O     O_R   0.091610 0.408390 0.385310 -0.608169
Zn1   Zn    Zn3+2 0.500010 0.000000 0.653130 0.925993
Zn2   Zn    Zn3+2 0.000010 0.500000 0.653130 0.926824
Zn3   Zn    Zn3+2 0.499980 0.000000 0.346870 0.940597
Zn4   Zn    Zn3+2 0.999980 0.500000 0.346870 0.940577
N5    N     N_3   0.169125 0.997101 0.850728 -0.465588
H35   H     H_    0.114011 0.994727 0.915817 0.180060
H36   H     H_    0.164272 0.055954 0.798599 0.179650
N6    N     N_3   0.669138 0.503572 0.850734 -0.465503
H37   H     H_    0.614022 0.506011 0.915818 0.180165
H38   H     H_    0.664278 0.444693 0.798619 0.178332

loop_
_geom_bond_atom_site_label_1
_geom_bond_atom_site_label_2
_ccdc_geom_bond_type
C34   O16   A    
C29   H29   S    
C58   C62   A    
N6    H37   S    
O13   Zn3   S    
C18   H32   S    
C23   H5    S    
C13   C32   S    
C14   C31   S    
C1    C62   S    
C53   C59   A    
C24   H6    S    
N5    H35   S    
C54   C60   A    
C3    C64   S    
C3    O3    A    
C33   O15   A    
C4    C63   S    
C27   N1    A    
C50   C54   A    
C6    H2    S    
C40   C60   A    
C36   N4    A    
C19   C21   A    
C24   C26   A    
C5    C11   A    
C6    C12   A    
O7    Zn4   S    
C22   N6    S    
C43   H15   S    
C30   N2    A    
C1    O1    A    
C18   C20   A    
O9    Zn1   S    
O16   Zn4   S    
C9    C13   A    
C37   H9    S    
C46   H18   S    
C11   C15   A    
C12   C16   A    
C40   H12   S    
C40   C44   A    
O3    Zn2   S    
C17   H31   S    
C47   H19   S    
O6    Zn3   S    
C15   C34   S    
N2    Zn4   S    
C2    C61   S    
N1    Zn3   S    
O2    Zn1   S    
C28   N2    A    
C35   H7    S    
C38   C58   A    
O12   Zn2   S    
C31   O13   A    
C44   C46   A    
C46   C50   A    
C13   C53   A    
C19   H33   S    
O1    Zn1   S    
O14   Zn3   S    
C29   N1    A    
N3    Zn1   S    
C49   H21   S    
C44   H16   S    
C18   C28   A    
C5    H1    S    
C10   C14   A    
C9    H25   S    
C39   C43   A    
C4    O4    A    
C48   H20   S    
C17   C27   A    
C21   N5    S    
O15   Zn4   S    
C16   C56   A    
C16   C33   S    
O11   Zn2   S    
C45   C49   A    
C39   C59   A    
C41   C47   A    
C5    C61   A    
C42   C48   A    
C32   O14   A    
C57   C61   A    
C43   C45   A    
C7    C63   A    
C8    C64   A    
C14   C54   A    
C1    O5    A    
C2    O2    A    
C8    H4    S    
C39   H11   S    
C21   C23   A    
C22   C24   A    
C59   C63   A    
C34   O12   A    
O5    Zn3   S    
C51   H23   S    
N4    Zn2   S    
C38   H10   S    
C7    C9    A    
C4    O8    A    
N6    H38   S    
C32   O10   A    
O4    Zn2   S    
C26   C28   A    
C12   H28   S    
C45   H17   S    
C20   C22   A    
C35   N3    A    
O10   Zn1   S    
C47   C51   A    
C42   H14   S    
C25   C27   A    
C29   C35   A    
C33   O11   A    
C30   C36   A    
C60   C64   A    
C6    C62   A    
C55   C57   A    
C30   H30   S    
C26   N4    A    
C41   H13   S    
C25   N3    A    
C52   C56   A    
C3    O7    A    
C49   C53   A    
C2    O6    A    
C17   C19   A    
C56   C58   A    
C51   C55   A    
C23   C25   A    
C37   C41   A    
C52   H24   S    
C37   C57   A    
N5    H36   S    
C50   H22   S    
C7    H3    S    
C38   C42   A    
C11   H27   S    
C48   C52   A    
C20   H34   S    
C10   H26   S    
C8    C10   A    
C31   O9    A    
O8    Zn4   S    
C36   H8    S    
C15   C55   A    
