data_mof_unit_57875.cif
_audit_creation_date              2013-03-05T16:42:23-0500
_audit_creation_method            fapswitch 2.2
_symmetry_space_group_name_H-M    P1
_symmetry_Int_Tables_number       1
_space_group_crystal_system       triclinic
_cell_length_a                    9.881653
_cell_length_b                    10.683699
_cell_length_c                    15.55434
_cell_angle_alpha                 90.511713
_cell_angle_beta                  67.197245
_cell_angle_gamma                 90.107511
_cell_volume                      1513.70953082

loop_
_atom_site_label
_atom_site_type_symbol
_atom_site_description
_atom_site_fract_x
_atom_site_fract_y
_atom_site_fract_z
_atom_type_partial_charge
O1    O     O_R   0.385310 0.683210 0.499990 -0.618713
O2    O     O_R   0.614650 0.683240 0.500000 -0.615957
C1    C     C_R   0.500848 0.739838 0.498540 0.875539
O3    O     O_R   0.319830 0.499970 0.632240 -0.605869
O4    O     O_R   0.549170 0.500000 0.632250 -0.629857
C2    C     C_R   0.407656 0.499531 0.675958 0.933028
Zn1   Zn    Zn3+2 0.346870 0.499980 0.499990 1.013710
Zn2   Zn    Zn3+2 0.653130 0.500020 0.500010 0.996493
O5    O     O_R   0.385350 0.316760 0.500000 -0.584278
O6    O     O_R   0.614690 0.316790 0.500010 -0.630734
O7    O     O_R   0.450830 0.500000 0.367750 -0.588063
O8    O     O_R   0.680170 0.500030 0.367760 -0.570300
C3    C     C_R   0.500930 0.260190 0.498358 0.923220
C4    C     C_R   0.592960 0.501449 0.323692 0.906698
C5    C     C_R   0.349075 0.511053 0.777145 -0.109432
C6    C     C_R   0.654169 0.504637 0.221371 -0.196603
C7    C     C_R   0.182676 0.608868 0.919032 0.685156
C8    C     C_R   0.217206 0.573365 0.826517 -0.306240
C9    C     C_R   0.440522 0.476668 0.821754 -0.180115
C10   C     C_R   0.417348 0.522339 0.910801 -0.051705
C11   C     C_R   0.283951 0.587116 0.961130 -0.149419
C12   C     C_R   0.525490 0.508534 0.949327 0.107455
C13   C     C_R   0.492428 0.548667 0.042360 0.000770
C14   C     C_R   0.358919 0.613193 0.090623 -0.273669
C15   C     C_R   0.257102 0.632400 0.050774 0.726008
C16   C     C_R   0.667759 0.460335 0.896766 -0.169928
C17   C     C_R   0.771537 0.446977 0.935538 -0.158655
C18   C     C_R   0.735271 0.474455 0.029207 0.109122
C19   C     C_R   0.594887 0.523665 0.083791 0.135235
C20   C     C_R   0.837031 0.449930 0.069384 -0.147969
C21   C     C_R   0.798660 0.465951 0.165178 0.338395
C22   C     C_R   0.557668 0.538202 0.179537 -0.214933
H1    H     H_    0.449133 0.567861 0.224520 0.193655
H2    H     H_    0.879245 0.410494 0.892603 0.169850
H3    H     H_    0.144638 0.599833 0.792466 0.175321
H4    H     H_    0.533026 0.418142 0.782995 0.160616
H5    H     H_    0.332118 0.655436 0.158389 0.182943
H6    H     H_    0.704856 0.433932 0.824523 0.135101
H7    H     H_    0.945893 0.415770 0.026492 0.175553
C23   C     C_R   0.374524 0.936084 0.508091 0.090652
C24   C     C_R   0.505228 0.871379 0.488538 -0.075537
C25   C     C_R   0.639755 0.934915 0.455329 -0.173162
H8    H     H_    0.743327 0.885295 0.433843 0.186732
C26   C     C_R   0.639792 0.064485 0.455206 -0.174359
H9    H     H_    0.743419 0.113884 0.433415 0.183251
C27   C     C_R   0.505282 0.128439 0.488778 -0.076466
C28   C     C_R   0.374518 0.063664 0.509209 0.112648
C29   C     C_3   0.232411 0.069930 0.592894 0.139955
C30   C     C_3   0.232130 0.927612 0.590778 -0.548696
H10   H     H_    0.141365 0.112835 0.578103 0.158528
H11   H     H_    0.243564 0.882196 0.651707 0.231424
H12   H     H_    0.143596 0.888504 0.571237 0.193415
C31   C     C_R   0.900834 0.591343 0.546714 0.216621
N1    N     N_R   0.856900 0.500860 0.500610 -0.132215
C32   C     C_R   0.959709 0.417718 0.446529 -0.118583
H13   H     H_    0.929951 0.350043 0.404702 0.194698
C33   C     C_R   0.103886 0.417702 0.445791 0.332325
N2    N     N_R   0.142540 0.500820 0.500610 -0.170333
C34   C     C_R   0.042826 0.590589 0.547374 0.148829
C35   C     C_3   0.985715 0.615752 0.649688 -0.496552
C36   C     C_3   0.832772 0.618627 0.648714 -0.469449
H14   H     H_    0.003391 0.535649 0.689352 0.220888
H15   H     H_    0.021555 0.707965 0.666677 0.209037
H16   H     H_    0.761949 0.541240 0.688332 0.210313
H17   H     H_    0.781058 0.712904 0.663849 0.215206
F1    F     F_    0.133401 0.698246 0.100121 -0.566512
N3    N     N_R   0.248322 0.122588 0.675808 0.224073
O9    O     O_R   0.349392 0.082117 0.703020 -0.380574
O10   O     O_R   0.162317 0.213168 0.721930 -0.392750
N4    N     N_R   0.207175 0.328489 0.388132 0.235039
O11   O     O_R   0.281001 0.355219 0.300988 -0.353829
O12   O     O_R   0.191270 0.211551 0.412417 -0.424038
N5    N     N_R   0.905768 0.438635 0.203587 0.208060
O13   O     O_R   0.950743 0.527489 0.243772 -0.323756
O14   O     O_R   0.981457 0.335441 0.179947 -0.369365
F2    F     F_    0.054906 0.671342 0.964688 -0.606944

loop_
_geom_bond_atom_site_label_1
_geom_bond_atom_site_label_2
_geom_bond_distance
_ccdc_geom_bond_type
C5    C8    1.396224 A    
C32   H13   1.082397 S    
C23   C28   1.362977 A    
N5    O13   1.300955 A    
C9    C10   1.396939 A    
C31   C34   1.407162 A    
C31   N1    1.365507 A    
C6    C21   1.414865 A    
Zn1   O7    1.910062 S    
C16   C17   1.384622 A    
C35   H15   1.110129 S    
C13   C19   1.421817 A    
C18   C19   1.415448 A    
C19   C22   1.395993 A    
C9    H4    1.076226 S    
C20   C21   1.396775 A    
O7    C4    1.302499 A    
C21   N5    1.434128 S    
C23   C30   1.497030 S    
C35   H14   1.112221 S    
C24   C25   1.401927 A    
O5    C3    1.284552 A    
C2    C5    1.455335 S    
N1    C32   1.362482 A    
C31   C36   1.489891 S    
C1    C24   1.414047 S    
C30   H11   1.112549 S    
C7    F2    1.357797 S    
C13   C14   1.416271 A    
N4    O11   1.300266 A    
C33   N4    1.425976 S    
C8    H3    1.082831 S    
Zn1   N2    2.015436 S    
C29   H10   1.111910 S    
C34   C35   1.490027 S    
N5    O14   1.301064 A    
C25   C26   1.384305 A    
O3    Zn1   1.968975 S    
C26   C27   1.401885 A    
C7    C8    1.393255 A    
C12   C13   1.416891 A    
C17   H2    1.084751 S    
N3    O9    1.302364 A    
C14   C15   1.387452 A    
O3    C2    1.293505 A    
Zn2   N1    2.017223 S    
C16   H6    1.073341 S    
N2    C34   1.362103 A    
C7    C11   1.412744 A    
C35   C36   1.517641 S    
N3    O10   1.300589 A    
C36   H16   1.107135 S    
C5    C9    1.387352 A    
C28   C29   1.500914 S    
Zn2   O8    1.968972 S    
C30   H12   1.111234 S    
C14   H5    1.077222 S    
C23   C24   1.390559 A    
O8    C4    1.292600 A    
C32   C33   1.420307 A    
C4    C6    1.467908 S    
C25   H8    1.083489 S    
C26   H9    1.083576 S    
Zn1   O5    1.994771 S    
C11   C15   1.396549 A    
C27   C28   1.389916 A    
C29   C30   1.520564 S    
O1    Zn1   1.993387 S    
O2    Zn2   1.994771 S    
C15   F1    1.358140 S    
C10   C12   1.421739 A    
O6    C3    1.284352 A    
O4    Zn2   1.910062 S    
C6    C22   1.395620 A    
C22   H1    1.075118 S    
C18   C20   1.400477 A    
O2    C1    1.285822 A    
C33   N2    1.378093 A    
O4    C2    1.296475 A    
C20   H7    1.084584 S    
C29   N3    1.465725 S    
C36   H17   1.111535 S    
C10   C11   1.422414 A    
Zn2   O6    1.993387 S    
C12   C16   1.419254 A    
C17   C18   1.387574 A    
C3    C27   1.413106 S    
N4    O12   1.299954 A    
O1    C1    1.283637 A    
