data_mof_unit_16259.cif
_audit_creation_date              2012-12-10T18:31:58-0500
_audit_creation_method            fapswitch 2.2
_symmetry_space_group_name_H-M    P1
_symmetry_Int_Tables_number       1
_space_group_crystal_system       triclinic
_cell_length_a                    10.728904
_cell_length_b                    14.89711
_cell_length_c                    15.553886
_cell_angle_alpha                 82.483913
_cell_angle_beta                  89.245323
_cell_angle_gamma                 103.750102
_cell_volume                      2391.45150135

loop_
_atom_site_label
_atom_site_type_symbol
_atom_type_description
_atom_site_fract_x
_atom_site_fract_y
_atom_site_fract_z
_atom_type_partial_charge
C1    C     C_R   0.487709 0.441798 0.661475 0.886052
C2    C     C_R   0.534188 0.439898 0.898568 0.029111
C3    C     C_R   0.478494 0.344431 0.929739 -0.036922
C4    C     C_R   0.741813 0.500546 0.498225 0.852123
C5    C     C_R   0.574421 0.505691 0.956395 0.091911
C6    C     C_R   0.537338 0.480080 0.044854 0.035151
C7    C     C_R   0.460543 0.388925 0.072379 -0.367022
C8    C     C_R   0.428479 0.322095 0.016376 0.385278
C9    C     C_R   0.650140 0.596579 0.927795 -0.247691
C10   C     C_R   0.674930 0.664295 0.982819 -0.152629
C11   C     C_R   0.630151 0.643018 0.069704 0.027660
C12   C     C_3   0.123201 0.505789 0.491887 -0.073594
C13   C     C_R   0.568556 0.548812 0.101628 0.065549
C14   C     C_R   0.647754 0.712125 0.126598 0.400038
C15   C     C_R   0.606729 0.685629 0.214212 -0.279866
C16   C     C_R   0.523005 0.558179 0.338018 0.917716
C17   C     C_R   0.540638 0.525139 0.190145 -0.303864
C18   C     C_R   0.673030 0.836686 0.648507 -0.310567
C19   C     C_R   0.636265 0.747083 0.626608 0.010222
C20   C     C_R   0.548515 0.801843 0.497254 0.081972
C21   C     C_R   0.571406 0.892866 0.519722 -0.012055
C22   C     C_R   0.640729 0.911007 0.595465 0.112734
C23   C     C_3   0.065408 0.480718 0.402199 -0.210220
C24   C     C_R   0.521616 0.963864 0.472357 0.071389
C25   C     C_R   0.540310 0.052158 0.502413 0.045508
C26   C     C_R   0.621738 0.070800 0.571754 -0.299885
C27   C     C_R   0.672773 0.002147 0.617718 0.013735
C28   C     C_R   0.259008 0.502420 0.495049 0.905433
C29   C     C_R   0.448463 0.948018 0.398348 -0.139351
C30   C     C_R   0.388937 0.014102 0.358339 -0.171710
C31   C     C_R   0.400468 0.098519 0.389946 0.144622
C32   C     C_R   0.477175 0.119253 0.461686 0.003905
C33   C     C_R   0.336948 0.163154 0.349495 -0.286726
C34   C     C_3   0.100426 0.602046 0.512204 0.289611
C35   C     C_R   0.351999 0.248730 0.379038 -0.001006
C36   C     C_R   0.486466 0.206913 0.489402 -0.038578
C37   C     C_3   0.902657 0.428675 0.569156 -0.446355
C38   C     C_3   0.045311 0.425759 0.564527 -0.225447
C39   C     C_3   0.920129 0.480590 0.403531 -0.176931
C40   C     C_3   0.957363 0.598917 0.509660 -0.501856
C41   C     C_3   0.877729 0.500530 0.494908 0.038500
C42   C     C_R   0.135087 0.531920 0.316178 0.125165
C43   C     C_R   0.197559 0.482986 0.264805 -0.153716
C44   C     C_R   0.243297 0.520928 0.180117 -0.110168
C45   C     C_R   0.496277 0.405972 0.752243 -0.049689
C46   C     C_R   0.232944 0.609929 0.146030 -0.125440
C47   C     C_R   0.171211 0.659529 0.195279 -0.118735
C48   C     C_R   0.119744 0.620000 0.278450 -0.018688
C49   C     C_R   0.460227 0.177604 0.897835 0.175702
C50   C     C_R   0.376094 0.107919 0.859233 -0.105857
C51   C     C_R   0.371225 0.013743 0.885359 -0.141841
C52   C     C_R   0.450907 0.988079 0.949438 -0.056884
C53   C     C_R   0.536805 0.056606 0.986844 -0.061433
C54   C     C_R   0.542203 0.150974 0.960855 -0.142236
C55   C     C_R   0.761830 0.029435 0.687399 0.111051
C56   C     C_R   0.554534 0.591849 0.245924 -0.107959
C57   C     C_R   0.888836 0.019764 0.682294 -0.170561
C58   C     C_R   0.974788 0.050010 0.745334 -0.155410
C59   C     C_R   0.934960 0.090531 0.813585 -0.058269
C60   C     C_R   0.809175 0.100996 0.818878 -0.082458
C61   C     C_R   0.722815 0.070805 0.756042 -0.158414
C62   C     C_R   0.098707 0.416526 0.655646 0.134523
C63   C     C_R   0.144504 0.336978 0.684553 -0.150619
C64   C     C_R   0.177573 0.319100 0.770527 -0.130217
C65   C     C_R   0.171183 0.381976 0.828416 -0.066605
C66   C     C_R   0.126960 0.461303 0.801210 -0.151853
C67   C     C_R   0.466261 0.278095 0.870277 0.040659
C68   C     C_R   0.088349 0.477643 0.716272 -0.144137
C69   C     C_R   0.839089 0.394982 0.367524 0.170321
C70   C     C_R   0.837955 0.302561 0.403049 -0.148274
C71   C     C_R   0.768457 0.226886 0.365476 -0.134653
C72   C     C_R   0.698075 0.241712 0.292491 -0.079589
C73   C     C_R   0.697978 0.332393 0.256387 -0.120295
C74   C     C_R   0.768049 0.408470 0.293254 -0.118998
C75   C     C_R   0.474075 0.310459 0.781158 -0.284589
C76   C     C_R   0.534393 0.469455 0.810019 -0.236750
H1    H     H_    0.839860 0.358224 0.566531 0.176275
H2    H     H_    0.692620 0.616902 0.862672 0.139301
H3    H     H_    0.542723 0.229982 0.542571 0.122244
H4    H     H_    0.307658 0.300712 0.346332 0.116917
H5    H     H_    0.332287 0.998520 0.302532 0.187756
H6    H     H_    0.722354 0.846417 0.708072 0.167918
H7    H     H_    0.659532 0.689684 0.667959 0.126195
H8    H     H_    0.507690 0.783532 0.437666 0.168234
H9    H     H_    0.649647 0.139229 0.591261 0.139891
H10   H     H_    0.433408 0.884663 0.369682 0.187412
H11   H     H_    0.278040 0.147965 0.294778 0.177160
H12   H     H_    0.906281 0.541444 0.359015 0.104627
H13   H     H_    0.045794 0.358772 0.540599 0.151117
H14   H     H_    0.071184 0.407319 0.401864 0.142253
H15   H     H_    0.937437 0.650992 0.457211 0.230102
H16   H     H_    0.926288 0.618003 0.572083 0.166636
H17   H     H_    0.127422 0.606931 0.579751 0.106586
H18   H     H_    0.208784 0.787721 0.568959 0.351223
H19   H     H_    0.206137 0.413402 0.288632 0.120775
H20   H     H_    0.285569 0.480749 0.140403 0.161626
H21   H     H_    0.270245 0.639529 0.080821 0.141392
H22   H     H_    0.159836 0.727658 0.168096 0.164958
H23   H     H_    0.510137 0.453294 0.217809 0.173285
H24   H     H_    0.065584 0.658142 0.311870 0.178403
H25   H     H_    0.228274 0.248555 0.177315 0.338590
H26   H     H_    0.312417 0.126138 0.810145 0.106010
H27   H     H_    0.305170 0.960600 0.856136 0.138107
H28   H     H_    0.445894 0.915033 0.969985 0.167609
H29   H     H_    0.599217 0.036702 0.036066 0.183532
H30   H     H_    0.609870 0.203193 0.990159 0.126706
H31   H     H_    0.614003 0.898429 0.170893 0.340537
H32   H     H_    0.921507 0.989766 0.629006 0.143291
H33   H     H_    0.072537 0.042590 0.740978 0.131018
H34   H     H_    0.620046 0.737208 0.258382 0.197397
H35   H     H_    0.001740 0.114214 0.862131 0.174082
H36   H     H_    0.778921 0.133032 0.871431 0.143642
H37   H     H_    0.625874 0.079947 0.760651 0.136725
H38   H     H_    0.150904 0.286661 0.641359 0.132525
H39   H     H_    0.207714 0.256014 0.792316 0.152349
H40   H     H_    0.198430 0.368475 0.894720 0.180046
H41   H     H_    0.118612 0.508773 0.846848 0.140104
H42   H     H_    0.044192 0.535315 0.700737 0.110718
H43   H     H_    0.893201 0.287777 0.458052 0.112053
H44   H     H_    0.769856 0.156504 0.392792 0.148873
H45   H     H_    0.731128 0.732791 0.956255 0.217893
H46   H     H_    0.644218 0.182924 0.263616 0.149589
H47   H     H_    0.644736 0.343708 0.199089 0.137222
H48   H     H_    0.767730 0.478115 0.263058 0.118608
H49   H     H_    0.460883 0.261374 0.734495 0.148465
H50   H     H_    0.555332 0.542922 0.785780 0.155875
H51   H     H_    0.874481 0.448077 0.631939 0.169673
H52   H     H_    0.416047 0.368696 0.136442 0.160332
N1    N     N_R   0.573860 0.731700 0.552730 -0.100811
N2    N     N_R   0.426060 0.268290 0.447230 -0.099528
O1    O     O_R   0.462770 0.383110 0.605620 -0.628469
O2    O     O_2   0.119455 0.774082 0.412669 -0.337369
O3    O     O_3   0.276072 0.769492 0.535792 -0.561256
O4    O     O_2   0.223190 0.189550 0.977649 -0.292486
O5    O     O_2   0.346954 0.147678 0.101548 -0.323168
O6    O     O_3   0.196048 0.257857 0.118320 -0.539073
O7    O     O_2   0.862029 0.841281 0.071977 -0.251652
O8    O     O_2   0.662107 0.865587 0.010852 -0.369307
O9    O     O_3   0.706010 0.897428 0.169217 -0.531969
O10   O     O_R   0.510160 0.531900 0.639510 -0.631603
O11   O     O_R   0.661510 0.425600 0.483070 -0.616645
O12   O     O_R   0.708900 0.574390 0.516960 -0.636519
O13   O     O_R   0.489840 0.468100 0.360490 -0.634577
O14   O     O_R   0.537230 0.616890 0.394380 -0.607202
O15   O     O_R   0.291100 0.425610 0.483040 -0.647572
O16   O     O_R   0.338490 0.574400 0.516930 -0.539727
O17   O     O_2   0.295582 0.699712 0.393709 -0.316985
S1    S     S_3+6 0.198308 0.712846 0.458166 -0.029743
S2    S     S_3+6 0.297781 0.225024 0.052402 0.006392
S3    S     S_3+6 0.721562 0.831375 0.091741 -0.000535
Zn1   Zn    Zn3+2 0.468350 0.400660 0.477370 0.931720
Zn2   Zn    Zn3+2 0.531650 0.599340 0.522630 0.995201

loop_
_geom_bond_atom_site_label_1
_geom_bond_atom_site_label_2
_ccdc_geom_bond_type
C19   N1    A    
C74   H48   S    
C58   H33   S    
C76   H50   S    
C73   C74   A    
C66   C68   A    
O17   S1    D    
C34   H17   S    
C20   N1    A    
C10   H45   S    
O6    S2    S    
C7    C8    A    
C39   C41   S    
C53   C54   A    
O8    S3    D    
C38   H13   S    
C28   O15   A    
C37   C38   S    
C23   C42   S    
C71   H44   S    
C12   C28   S    
C45   C76   A    
C44   H20   S    
C32   C36   A    
C16   O14   A    
C17   C56   A    
C4    O12   A    
C30   C31   A    
C33   C35   A    
C11   C14   A    
C27   C55   S    
C4    C41   S    
C51   H27   S    
C49   C54   A    
C35   H4    S    
H18   O3    S    
C18   C19   A    
O12   Zn2   S    
C49   C50   A    
C24   C29   A    
C68   H42   S    
C63   H38   S    
O1    Zn1   S    
C47   C48   A    
C73   H47   S    
C66   H41   S    
C33   H11   S    
C43   H19   S    
C31   C33   A    
C70   C71   A    
C7    H52   S    
C29   C30   A    
C9    C10   A    
O10   Zn2   S    
C25   C32   A    
O13   Zn1   S    
C59   C60   A    
C64   H39   S    
C21   C22   A    
C12   C38   S    
C15   H34   S    
C34   S1    S    
C39   H12   S    
C19   H7    S    
C44   C46   A    
C48   H24   S    
C54   H30   S    
C51   C52   A    
O2    S1    D    
C16   O13   A    
C24   C25   A    
N1    Zn2   S    
C3    C8    A    
C4    O11   A    
C25   C26   A    
O5    S2    D    
O4    S2    D    
C37   H1    S    
C60   C61   A    
C75   H49   S    
C43   C44   A    
C16   C56   S    
C5    C9    A    
C62   C63   A    
C60   H36   S    
C36   N2    A    
C17   H23   S    
C59   H35   S    
C31   C32   A    
C12   C23   S    
C70   H43   S    
C14   S3    S    
C50   C51   A    
C39   C69   S    
C23   H14   S    
C69   C74   A    
O3    S1    S    
C42   C48   A    
C40   H16   S    
C47   H22   S    
C35   N2    A    
C29   H10   S    
O15   Zn1   S    
C1    O10   A    
O16   Zn2   S    
C40   C41   S    
C46   H21   S    
C50   H26   S    
C22   C27   A    
C20   H8    S    
C26   C27   A    
C65   H40   S    
C34   C40   S    
O7    S3    D    
C2    C5    A    
C67   C75   A    
C42   C43   A    
C12   C34   S    
C2    C76   A    
C52   C53   A    
O11   Zn1   S    
H25   O6    S    
C46   C47   A    
C52   H28   S    
C49   C67   S    
C72   H46   S    
C18   C22   A    
C3    C67   A    
C72   C73   A    
C1    O1    A    
C36   H3    S    
C6    C7    A    
C62   C68   A    
O9    S3    S    
C28   O16   A    
C13   C17   A    
C45   C75   A    
C15   C56   A    
C30   H5    S    
C55   C57   A    
C2    C3    A    
C58   C59   A    
C71   C72   A    
O14   Zn2   S    
C64   C65   A    
C6    C13   A    
C61   H37   S    
C11   C13   A    
C1    C45   S    
C57   C58   A    
C5    C6    A    
C26   H9    S    
C23   C39   S    
C55   C61   A    
C18   H6    S    
C8    S2    S    
C9    H2    S    
C40   H15   S    
C37   C41   S    
C69   C70   A    
C10   C11   A    
C63   C64   A    
C53   H29   S    
C57   H32   S    
C20   C21   A    
C65   C66   A    
C21   C24   A    
N2    Zn1   S    
C14   C15   A    
C38   C62   S    
H31   O9    S    
C37   H51   S    
