data_mof_unit_53565.cif
_audit_creation_date              2012-12-10T18:58:38-0500
_audit_creation_method            fapswitch 2.2
_symmetry_space_group_name_H-M    P1
_symmetry_Int_Tables_number       1
_space_group_crystal_system       triclinic
_cell_length_a                    10.633664
_cell_length_b                    9.826829
_cell_length_c                    17.458722
_cell_angle_alpha                 89.761046
_cell_angle_beta                  90.065348
_cell_angle_gamma                 90.012412
_cell_volume                      1824.33551492

loop_
_atom_site_label
_atom_site_type_symbol
_atom_type_description
_atom_site_fract_x
_atom_site_fract_y
_atom_site_fract_z
_atom_type_partial_charge
C1    C     C_R   0.260546 0.499949 0.499898 0.928578
C2    C     C_R   0.739575 0.499968 0.500128 0.922328
C3    C     C_1   0.589983 0.500217 0.965954 -0.061938
C4    C     C_1   0.589672 0.499808 0.034117 -0.062145
C5    C     C_R   0.065707 0.496992 0.428648 0.104996
C6    C     C_R   0.934796 0.498813 0.571406 0.102826
C7    C     C_R   0.934323 0.499424 0.428694 0.104439
C8    C     C_R   0.066180 0.501224 0.571332 0.106476
C9    C     C_R   0.501650 0.500277 0.353155 0.887888
C10   C     C_R   0.501912 0.499723 0.646837 0.888348
C11   C     C_R   0.872178 0.499703 0.500081 -0.148429
C12   C     C_R   0.128128 0.499655 0.499953 -0.150474
C13   C     C_R   0.554040 0.624870 0.846650 0.174877
C14   C     C_R   0.552895 0.375199 0.153315 0.174647
C15   C     C_R   0.573966 0.624286 0.154843 0.169860
C16   C     C_R   0.575030 0.375786 0.845157 0.170439
C17   C     C_R   0.524121 0.622392 0.769056 -0.264035
C18   C     C_R   0.523074 0.377659 0.230887 -0.262994
C19   C     C_R   0.544521 0.623298 0.232505 -0.242264
C20   C     C_R   0.545532 0.376758 0.767461 -0.242616
C21   C     C_R   0.520186 0.499214 0.729400 -0.100808
C22   C     C_R   0.519424 0.500811 0.270572 -0.102360
C23   C     C_R   0.563167 0.071635 0.555292 -0.073226
C24   C     C_R   0.436962 0.928438 0.444660 -0.073782
C25   C     C_R   0.436835 0.072402 0.444709 -0.073592
C26   C     C_R   0.563037 0.927674 0.555341 -0.071293
C27   C     C_R   0.578459 0.500654 0.884871 0.075390
C28   C     C_R   0.577507 0.499408 0.115151 0.075300
H1    H     H_    0.506490 0.717424 0.739196 0.162786
H2    H     H_    0.505362 0.282628 0.260717 0.161997
H3    H     H_    0.543276 0.718752 0.263400 0.167826
H4    H     H_    0.544345 0.281315 0.736554 0.163829
N1    N     N_R   0.500000 0.857200 0.500000 -0.078047
N2    N     N_R   0.500000 0.142800 0.500000 -0.079437
O1    O     O_R   0.316770 0.614620 0.500000 -0.621640
O2    O     O_R   0.683230 0.385380 0.500000 -0.622943
O3    O     O_R   0.683230 0.614620 0.500000 -0.620802
O4    O     O_R   0.316770 0.385380 0.500000 -0.623855
O5    O     O_R   0.500010 0.614710 0.389120 -0.629241
O6    O     O_R   0.499990 0.385290 0.610880 -0.629904
O7    O     O_R   0.499990 0.614710 0.610880 -0.627943
O8    O     O_R   0.500010 0.385290 0.389120 -0.628919
Zn1   Zn    Zn3+2 0.500000 0.653120 0.500000 0.928947
Zn2   Zn    Zn3+2 0.500000 0.346880 0.500000 0.925686
C29   C     C_3   0.558926 0.761029 0.886907 -0.418566
C30   C     C_3   0.694550 0.807485 0.898496 -0.887313
H5    H     H_    0.748430 0.731093 0.932134 0.258758
H6    H     H_    0.741031 0.822579 0.842143 0.260078
H7    H     H_    0.695661 0.905496 0.929922 0.250815
H8    H     H_    0.509059 0.840256 0.852849 0.203245
H9    H     H_    0.509591 0.754867 0.942703 0.218514
C31   C     C_3   0.557546 0.239064 0.113029 -0.418667
C32   C     C_3   0.693077 0.192161 0.101856 -0.883763
H10   H     H_    0.747447 0.268543 0.068560 0.257888
H11   H     H_    0.739155 0.176562 0.158352 0.261285
H12   H     H_    0.694033 0.094325 0.070258 0.250394
H13   H     H_    0.507229 0.159978 0.146895 0.202473
H14   H     H_    0.508522 0.245454 0.057070 0.218056
C33   C     C_3   0.600067 0.760119 0.116629 -0.419310
C34   C     C_3   0.478296 0.838820 0.102994 -0.889314
H15   H     H_    0.410565 0.775995 0.069988 0.260099
H16   H     H_    0.434923 0.867753 0.158431 0.256000
H17   H     H_    0.498647 0.932863 0.069818 0.251576
H18   H     H_    0.663718 0.821483 0.153416 0.202934
H19   H     H_    0.649602 0.747424 0.061348 0.219595
C35   C     C_3   0.601248 0.239986 0.883398 -0.421189
C36   C     C_3   0.479598 0.160892 0.896643 -0.886940
H20   H     H_    0.411496 0.223547 0.929352 0.259901
H21   H     H_    0.436644 0.131689 0.841071 0.257735
H22   H     H_    0.499988 0.066994 0.929958 0.251179
H23   H     H_    0.665194 0.178866 0.846774 0.200586
H24   H     H_    0.650498 0.252769 0.938837 0.219917
H25   H     H_    0.613724 0.125954 0.599442 0.120207
H26   H     H_    0.386698 0.874256 0.400389 0.119314
H27   H     H_    0.386260 0.127333 0.400563 0.121345
H28   H     H_    0.613264 0.872911 0.599636 0.119023
C37   C     C_3   0.140317 0.491280 0.353681 -0.405002
C38   C     C_3   0.174659 0.633520 0.324858 -0.880950
H29   H     H_    0.088958 0.695556 0.314977 0.251086
H30   H     H_    0.235215 0.686626 0.366862 0.274774
H31   H     H_    0.227037 0.625329 0.270073 0.250119
H32   H     H_    0.227576 0.430640 0.360687 0.197329
H33   H     H_    0.088621 0.436530 0.308178 0.214580
C39   C     C_3   0.860819 0.495332 0.646549 -0.398206
C40   C     C_3   0.830682 0.638702 0.674613 -0.878425
H34   H     H_    0.916862 0.702124 0.677650 0.250337
H35   H     H_    0.762565 0.688889 0.635628 0.273774
H36   H     H_    0.788669 0.632879 0.732679 0.258581
H37   H     H_    0.771987 0.437251 0.640393 0.197370
H38   H     H_    0.911984 0.439010 0.691945 0.212223
C41   C     C_3   0.859815 0.501267 0.353620 -0.400074
C42   C     C_3   0.829354 0.357258 0.326549 -0.866137
H39   H     H_    0.915496 0.293764 0.323914 0.247767
H40   H     H_    0.761225 0.307688 0.365772 0.284067
H41   H     H_    0.787200 0.361935 0.268432 0.257056
H42   H     H_    0.771099 0.559547 0.359474 0.201593
H43   H     H_    0.910707 0.556579 0.307783 0.212722
C43   C     C_3   0.141295 0.505449 0.646260 -0.407485
C44   C     C_3   0.175772 0.362642 0.674227 -0.867670
H44   H     H_    0.090115 0.300231 0.683434 0.248678
H45   H     H_    0.236734 0.310366 0.632148 0.284420
H46   H     H_    0.227798 0.369853 0.729257 0.249351
H47   H     H_    0.228513 0.566244 0.639552 0.202048
H48   H     H_    0.089896 0.559292 0.692146 0.215448

loop_
_geom_bond_atom_site_label_1
_geom_bond_atom_site_label_2
_ccdc_geom_bond_type
C37   C38   S    
C24   C25   A    
C17   H1    S    
C14   C18   A    
C38   H31   S    
C19   H3    S    
C32   H10   S    
C15   C19   A    
C30   H7    S    
C9    O8    A    
C39   H38   S    
C34   H17   S    
C37   H32   S    
C34   H16   S    
C38   H30   S    
C9    C22   S    
C40   H36   S    
C29   H9    S    
C43   H47   S    
C9    O5    A    
C10   O6    A    
C23   C26   A    
C8    C43   S    
C41   H42   S    
C14   C31   S    
C44   H44   S    
C35   H24   S    
C26   H28   S    
C18   H2    S    
O1    Zn1   S    
C16   C20   A    
C25   N2    A    
C16   C27   A    
C32   H11   S    
C35   C36   S    
C33   C34   S    
C10   O7    A    
O7    Zn1   S    
C1    C12   S    
O8    Zn2   S    
C23   H25   S    
C2    C11   S    
C4    C28   S    
C40   H35   S    
C10   C21   S    
C30   H6    S    
C6    C39   S    
C36   H20   S    
N1    Zn1   S    
C19   C22   A    
N2    Zn2   S    
C39   C40   S    
C5    C12   A    
C41   C42   S    
C5    C7    A    
C38   H29   S    
C6    C8    A    
C40   H34   S    
C42   H41   S    
C17   C21   A    
C34   H15   S    
C36   H21   S    
O3    Zn1   S    
C7    C11   A    
O4    Zn2   S    
C26   N1    A    
C35   H23   S    
C8    C12   A    
C23   N2    A    
C7    C41   S    
C42   H40   S    
C33   H18   S    
C41   H43   S    
C31   H14   S    
C1    O4    A    
C44   H45   S    
O2    Zn2   S    
C16   C35   S    
C39   H37   S    
C5    C37   S    
C3    C4    T    
C6    C11   A    
C31   C32   S    
C1    O1    A    
C20   H4    S    
C32   H12   S    
C2    O2    A    
C30   H5    S    
C18   C22   A    
C15   C33   S    
O5    Zn1   S    
C24   N1    A    
C13   C17   A    
C36   H22   S    
C14   C28   A    
C3    C27   S    
C33   H19   S    
C13   C29   S    
C2    O3    A    
C24   H26   S    
C15   C28   A    
C29   H8    S    
C43   H48   S    
C42   H39   S    
C31   H13   S    
C29   C30   S    
O6    Zn2   S    
C44   H46   S    
C20   C21   A    
C43   C44   S    
C37   H33   S    
C13   C27   A    
C25   H27   S    
