data_mof_unit_60270.cif
_audit_creation_date              2012-12-10T21:35:37-0500
_audit_creation_method            fapswitch 2.2
_symmetry_space_group_name_H-M    P1
_symmetry_Int_Tables_number       1
_space_group_crystal_system       triclinic
_cell_length_a                    16.150728
_cell_length_b                    15.75192
_cell_length_c                    16.728901
_cell_angle_alpha                 90.815243
_cell_angle_beta                  86.40064
_cell_angle_gamma                 91.931216
_cell_volume                      4244.79497254

loop_
_atom_site_label
_atom_site_type_symbol
_atom_type_description
_atom_site_fract_x
_atom_site_fract_y
_atom_site_fract_z
_atom_type_partial_charge
Br1   Br    Br    0.454552 0.889761 0.677735 -0.313768
Br2   Br    Br    0.676537 0.602691 0.266282 -0.394800
Br3   Br    Br    0.894772 0.351737 0.406129 -0.375204
Br4   Br    Br    0.704463 0.649378 0.621916 -0.405014
Br5   Br    Br    0.084860 0.631650 0.584596 -0.329632
Br6   Br    Br    0.283142 0.617399 0.613803 -0.317907
Br7   Br    Br    0.403408 0.077617 0.362354 -0.453331
Br8   Br    Br    0.596021 0.106646 0.651814 -0.352764
Br9   Br    Br    0.406682 0.085713 0.660679 -0.330607
C1    C     C_R   0.512154 0.500955 0.346733 0.899677
C2    C     C_R   0.458994 0.456429 0.218828 -0.231457
C3    C     C_R   0.461376 0.457463 0.136222 -0.114899
C4    C     C_R   0.500463 0.338309 0.500036 0.898569
C5    C     C_R   0.526157 0.501728 0.093357 0.258637
C6    C     C_R   0.591198 0.539784 0.133201 -0.179387
C7    C     C_R   0.589140 0.539780 0.216517 0.253076
C8    C     C_R   0.512771 0.580383 0.860294 0.415276
C9    C     C_R   0.525132 0.566844 0.778631 -0.245224
C10   C     C_R   0.454562 0.527455 0.904451 0.116414
C11   C     C_R   0.476235 0.506752 0.739464 -0.219794
C12   C     C_3   0.567638 0.951633 0.442381 0.155760
C13   C     C_R   0.411651 0.460673 0.781462 0.327393
C14   C     C_R   0.403022 0.468912 0.865732 0.327878
C15   C     C_R   0.234152 0.542956 0.536550 0.249582
C16   C     C_R   0.487742 0.499614 0.653080 1.000973
C17   C     C_R   0.147775 0.544554 0.528139 0.141870
C18   C     C_R   0.110068 0.487465 0.474007 0.056208
C19   C     C_R   0.162286 0.433204 0.426343 0.225470
C20   C     C_R   0.249269 0.435059 0.436388 0.501068
C21   C     C_R   0.844854 0.443744 0.465337 0.192754
C22   C     C_R   0.758322 0.451020 0.463905 -0.050517
C23   C     C_3   0.499982 0.917093 0.505994 -0.074256
C24   C     C_R   0.890172 0.499847 0.514260 0.221187
C25   C     C_R   0.759714 0.565120 0.557321 0.395263
C26   C     C_R   0.846034 0.560055 0.560590 -0.291784
C27   C     C_R   0.499537 0.661683 0.500132 0.909847
C28   C     C_3   0.575815 0.050110 0.450450 0.229196
C29   C     C_3   0.418787 0.045989 0.473180 0.006257
C30   C     C_3   0.414819 0.948195 0.482254 -0.454658
C31   C     C_1   0.498587 0.750353 0.501884 -0.063287
C32   C     C_3   0.501536 0.083103 0.506170 -0.097097
C33   C     C_3   0.517010 0.952842 0.591641 0.062529
C34   C     C_3   0.505890 0.051465 0.594877 0.388037
C35   C     C_1   0.498717 0.825556 0.503861 0.099651
C36   C     C_1   0.501570 0.174543 0.503972 0.144723
C37   C     C_1   0.501237 0.249673 0.501931 -0.055328
C38   C     C_R   0.521389 0.498997 0.259759 -0.123502
H1    H     H_    0.544404 0.937086 0.382191 0.189745
H2    H     H_    0.397040 0.916798 0.425539 0.233006
H3    H     H_    0.365614 0.930036 0.529021 0.250440
H4    H     H_    0.582263 0.940461 0.603351 0.142149
H5    H     H_    0.671815 0.042102 0.516632 0.383054
H6    H     H_    0.656374 0.898041 0.498047 0.353043
H7    H     H_    0.534080 0.657568 0.948859 0.359546
H8    H     H_    0.304923 0.403465 0.768589 0.363329
H9    H     H_    0.338794 0.363353 0.883428 0.365209
H10   H     H_    0.071682 0.387387 0.364369 0.401433
H11   H     H_    0.270833 0.346083 0.355575 0.385638
H12   H     H_    0.571199 0.605818 0.745148 0.243456
H13   H     H_    0.641384 0.573075 0.099413 0.198125
H14   H     H_    0.411905 0.425306 0.105624 0.201836
H15   H     H_    0.571389 0.076283 0.389541 0.196432
H16   H     H_    0.407569 0.423131 0.250814 0.214810
H17   H     H_    0.723382 0.407354 0.427376 0.191450
H18   H     H_    0.878848 0.602938 0.599745 0.230320
H19   H     H_    0.364051 0.072562 0.507019 0.223213
N1    N     N_2   0.525734 0.510524 0.010040 -0.145719
N2    N     N_2   0.454908 0.522985 0.988121 -0.117305
N3    N     N_R   0.283090 0.489740 0.490280 -0.178687
N4    N     N_2   0.022527 0.488003 0.461803 -0.084553
N5    N     N_2   0.977124 0.493762 0.524950 -0.067137
N6    N     N_R   0.716930 0.510260 0.509710 -0.136478
O1    O     O_R   0.577460 0.503670 0.387340 -0.591390
O2    O     O_3   0.644875 0.912174 0.442475 -0.673915
O3    O     O_3   0.559834 0.643903 0.895116 -0.681719
O4    O     O_3   0.360082 0.407318 0.739228 -0.711149
O5    O     O_3   0.349470 0.417311 0.912640 -0.711345
O6    O     O_3   0.131285 0.378208 0.369461 -0.709499
O7    O     O_3   0.302344 0.383147 0.391924 -0.706627
O8    O     O_R   0.438160 0.497080 0.381100 -0.582234
O9    O     O_R   0.569680 0.380440 0.503120 -0.623880
O10   O     O_R   0.430380 0.373850 0.496890 -0.550543
O11   O     O_R   0.561840 0.502920 0.618900 -0.610356
O12   O     O_R   0.422540 0.496330 0.612660 -0.543558
O13   O     O_R   0.569620 0.626150 0.503110 -0.571409
O14   O     O_R   0.430320 0.619560 0.496880 -0.597857
O15   O     O_3   0.653629 0.079935 0.474917 -0.655545
Zn1   Zn    Zn3+2 0.593020 0.504400 0.504170 1.043116
Zn2   Zn    Zn3+2 0.406980 0.495600 0.495830 1.078480

loop_
_geom_bond_atom_site_label_1
_geom_bond_atom_site_label_2
_ccdc_geom_bond_type
C6    H13   S    
C2    C38   A    
H6    O2    S    
Br8   C34   S    
C13   O4    S    
C28   H15   S    
C36   C37   T    
C17   C18   A    
O10   Zn2   S    
C19   C20   A    
C15   C17   A    
C2    H16   S    
C29   C30   S    
C1    O1    A    
C11   C16   S    
C26   H18   S    
C6    C7    A    
C4    O9    A    
C25   C26   A    
C23   C30   S    
O8    Zn2   S    
C8    C10   A    
C29   H19   S    
C16   O12   A    
C5    N1    S    
N4    N5    D    
Br2   C7    S    
C33   H4    S    
C12   H1    S    
O11   Zn1   S    
C32   C34   S    
N3    Zn2   S    
H10   O6    S    
C7    C38   A    
N6    Zn1   S    
C15   N3    A    
C20   N3    A    
C12   C23   S    
Br4   C25   S    
Br9   C34   S    
N1    N2    D    
C27   C31   S    
C29   C32   S    
C1    O8    A    
C27   O14   A    
C4    O10   A    
H9    O5    S    
Br5   C17   S    
Br3   C21   S    
C10   C14   A    
O1    Zn1   S    
C9    H12   S    
C20   O7    S    
C21   C22   A    
Br6   C15   S    
C8    C9    A    
C23   C35   S    
C10   N2    S    
C14   O5    S    
C18   N4    S    
H11   O7    S    
H8    O4    S    
C22   N6    A    
C30   H2    S    
C11   C13   A    
O12   Zn2   S    
C25   N6    A    
C1    C38   S    
C19   O6    S    
C16   O11   A    
O13   Zn1   S    
C23   C33   S    
C21   C24   A    
C13   C14   A    
C22   H17   S    
C28   O15   S    
H5    O15   S    
C3    C5    A    
O14   Zn2   S    
C2    C3    A    
C27   O13   A    
C3    H14   S    
C4    C37   S    
C12   O2    S    
C24   C26   A    
Br7   C29   S    
C9    C11   A    
C28   C32   S    
O9    Zn1   S    
C24   N5    S    
H7    O3    S    
Br1   C33   S    
C31   C35   T    
C30   H3    S    
C12   C28   S    
C33   C34   S    
C18   C19   A    
C8    O3    S    
C32   C36   S    
C5    C6    A    
