data_mof_unit_33493.cif
_audit_creation_date              2013-03-05T15:43:42-0500
_audit_creation_method            fapswitch 2.2
_symmetry_space_group_name_H-M    P1
_symmetry_Int_Tables_number       1
_space_group_crystal_system       triclinic
_cell_length_a                    13.963699
_cell_length_b                    13.98012
_cell_length_c                    27.512156
_cell_angle_alpha                 89.718468
_cell_angle_beta                  89.887813
_cell_angle_gamma                 119.585178
_cell_volume                      4670.42173909

loop_
_atom_site_label
_atom_site_type_symbol
_atom_site_description
_atom_site_fract_x
_atom_site_fract_y
_atom_site_fract_z
_atom_type_partial_charge
O1    O     O_R   0.137150 0.468200 0.553200 -0.479376
O2    O     O_R   0.531800 0.668950 0.553200 -0.478688
O3    O     O_R   0.331050 0.862850 0.553200 -0.479971
O4    O     O_R   0.173970 0.688730 0.549930 -0.492654
O5    O     O_R   0.311270 0.485240 0.549930 -0.495659
O6    O     O_R   0.514760 0.826030 0.549930 -0.489212
C1    C     C_R   0.235300 0.786234 0.569320 0.545659
C2    C     C_R   0.213373 0.448410 0.569220 0.547955
C3    C     C_R   0.550663 0.764041 0.569413 0.555920
O7    O     O_R   0.140110 0.470540 0.446010 -0.517871
O8    O     O_R   0.529460 0.669570 0.446010 -0.497038
O9    O     O_R   0.330430 0.859890 0.446010 -0.525128
O10   O     O_R   0.176710 0.690910 0.450560 -0.506905
O11   O     O_R   0.309090 0.485800 0.450560 -0.524273
O12   O     O_R   0.514200 0.823290 0.450560 -0.502501
C4    C     C_R   0.236312 0.785895 0.430119 0.537182
C5    C     C_R   0.214036 0.449808 0.430622 0.540735
C6    C     C_R   0.499894 0.736807 0.426096 0.551904
Cr1   Cr    Cr6+3 0.164410 0.584450 0.499910 1.052073
Cr2   Cr    Cr6+3 0.415550 0.579960 0.499910 1.053296
Cr3   Cr    Cr6+3 0.420040 0.835590 0.499910 1.054548
O13   O     O_3   0.333333 0.666667 0.499990 -0.317069
C7    C     C_3   0.584162 0.865450 0.739110 -0.238440
C8    C     C_3   0.131819 0.719725 0.739860 -0.237720
C9    C     C_3   0.279898 0.410014 0.738386 -0.237989
C10   C     C_3   0.777896 0.918129 0.715851 -0.207708
C11   C     C_3   0.081616 0.862818 0.715975 -0.209624
C12   C     C_3   0.138280 0.217581 0.715955 -0.209831
C13   C     C_3   0.812154 0.935553 0.769937 -0.264148
C14   C     C_3   0.063239 0.879314 0.770058 -0.265771
C15   C     C_3   0.121931 0.183619 0.770228 -0.265675
H1    H     H_    0.652300 0.976923 0.800800 0.158745
H2    H     H_    0.021699 0.679711 0.802577 0.158255
H3    H     H_    0.322084 0.341741 0.801102 0.158281
H4    H     H_    0.592246 0.941736 0.722209 0.156493
H5    H     H_    0.054565 0.653003 0.723704 0.155791
H6    H     H_    0.347123 0.399507 0.721918 0.155077
H7    H     H_    0.833626 0.898272 0.694631 0.177680
H8    H     H_    0.103055 0.938765 0.694750 0.177201
H9    H     H_    0.062702 0.162951 0.695121 0.177815
H10   H     H_    0.788238 0.996290 0.700283 0.182422
H11   H     H_    0.003364 0.796995 0.700399 0.183903
H12   H     H_    0.204968 0.205425 0.700348 0.182421
H13   H     H_    0.842828 0.023172 0.779537 0.138785
H14   H     H_    0.975656 0.822346 0.780007 0.139951
H15   H     H_    0.179340 0.152963 0.780089 0.136392
H16   H     H_    0.881074 0.918717 0.775492 0.116150
H17   H     H_    0.078966 0.964364 0.775416 0.113384
H18   H     H_    0.036683 0.115225 0.776176 0.114618
C16   C     C_1   0.786969 0.892576 0.895261 0.022959
C17   C     C_1   0.107335 0.897964 0.895207 0.021446
C18   C     C_1   0.103402 0.209755 0.895134 0.019855
C19   C     C_3   0.655957 0.827206 0.710793 0.006646
C20   C     C_3   0.171448 0.829036 0.710812 0.007366
C21   C     C_3   0.170347 0.340122 0.710276 0.007959
C22   C     C_3   0.620389 0.888042 0.793462 0.054247
C23   C     C_3   0.110617 0.735250 0.794304 0.055439
C24   C     C_3   0.265430 0.374399 0.792990 0.054155
C25   C     C_3   0.713793 0.860117 0.803420 0.022710
C26   C     C_3   0.139088 0.856508 0.803339 0.022623
C27   C     C_3   0.144531 0.282236 0.803054 0.023703
C28   C     C_3   0.673669 0.738590 0.789380 -0.172995
C29   C     C_3   0.260640 0.936310 0.788392 -0.173175
C30   C     C_3   0.063597 0.323500 0.788409 -0.173222
C31   C     C_3   0.636374 0.717793 0.735275 0.119740
C32   C     C_3   0.281615 0.916782 0.734672 0.119417
C33   C     C_3   0.081532 0.362078 0.734352 0.119424
C34   C     C_1   0.751225 0.878818 0.854436 -0.013301
C35   C     C_1   0.120825 0.876326 0.854259 -0.014868
C36   C     C_1   0.125403 0.244986 0.854157 -0.013477
C37   C     C_1   0.625188 0.810275 0.659033 -0.017854
C38   C     C_1   0.187834 0.814050 0.659045 -0.016699
C39   C     C_1   0.184729 0.371242 0.658537 -0.017777
C40   C     C_1   0.596420 0.792860 0.617197 0.037417
C41   C     C_1   0.205276 0.802433 0.617166 0.037924
C42   C     C_1   0.196433 0.401060 0.616780 0.037538
H19   H     H_    0.545774 0.658865 0.734985 0.126504
H20   H     H_    0.338921 0.882468 0.735205 0.126803
H21   H     H_    0.114358 0.452954 0.734020 0.125812
H22   H     H_    0.603572 0.681987 0.813177 0.178920
H23   H     H_    0.317674 0.924140 0.812558 0.178353
H24   H     H_    0.075863 0.393020 0.812054 0.177820
H25   H     H_    0.495602 0.801559 0.736445 0.151791
H26   H     H_    0.194653 0.692788 0.736967 0.151674
H27   H     H_    0.305881 0.499050 0.734936 0.150745
H28   H     H_    0.740720 0.718966 0.796171 0.156896
H29   H     H_    0.279592 0.022834 0.793767 0.155375
H30   H     H_    0.977364 0.256653 0.794788 0.156163
O14   O     O_R   0.176750 0.985260 0.074180 -0.480381
O15   O     O_R   0.014740 0.191490 0.074180 -0.451515
O16   O     O_R   0.808510 0.823250 0.074180 -0.471872
O17   O     O_R   0.146100 0.172630 0.068980 -0.423686
O18   O     O_R   0.827370 0.973470 0.068980 -0.461757
O19   O     O_R   0.026530 0.853900 0.068980 -0.454632
C43   C     C_R   0.080622 0.178793 0.097748 0.548809
C44   C     C_R   0.778228 0.883511 0.088639 0.606170
C45   C     C_R   0.116580 0.893614 0.087853 0.606123
Cr4   Cr    Cr6+3 0.155170 0.075460 0.019960 1.150468
Cr5   Cr    Cr6+3 0.924540 0.079710 0.019960 1.149123
Cr6   Cr    Cr6+3 0.920290 0.844830 0.019960 1.143524
C46   C     C_R   0.072092 0.164188 0.943186 0.489139
C47   C     C_R   0.833985 0.907134 0.942966 0.486624
C48   C     C_R   0.092600 0.928197 0.943264 0.486884
O20   O     O_3   0.000000 0.000000 0.020040 -0.355310
O21   O     O_R   0.148270 0.170520 0.969620 -0.466037
O22   O     O_R   0.829480 0.977750 0.969620 -0.478261
O23   O     O_R   0.022250 0.851730 0.969620 -0.474420
C49   C     C_R   0.561665 0.860505 0.353644 -0.129728
C50   C     C_R   0.109495 0.728201 0.358700 -0.130872
C51   C     C_R   0.269132 0.376713 0.360426 -0.142922
C52   C     C_R   0.593703 0.879088 0.304993 -0.024524
C53   C     C_R   0.095922 0.732941 0.308418 -0.020315
C54   C     C_R   0.260880 0.353844 0.310821 -0.024563
C55   C     C_R   0.671472 0.920674 0.208016 0.014805
C56   C     C_R   0.067393 0.749938 0.207207 0.007619
C57   C     C_R   0.236625 0.297967 0.211368 0.005817
C58   C     C_R   0.696434 0.007888 0.241100 0.239207
C59   C     C_R   0.975723 0.687733 0.238981 0.231960
C60   C     C_R   0.304745 0.275245 0.242512 0.227283
C61   C     C_R   0.650411 0.986198 0.287326 -0.101668
C62   C     C_R   0.992160 0.672111 0.287720 -0.102176
C63   C     C_R   0.321667 0.309881 0.290605 -0.108372
C64   C     C_R   0.699743 0.937157 0.157762 0.158797
C65   C     C_R   0.058479 0.758730 0.155966 0.162493
C66   C     C_R   0.222686 0.272512 0.161273 0.158617
H31   H     H_    0.574404 0.929507 0.376076 0.134131
H32   H     H_    0.041284 0.669494 0.381132 0.127399
H33   H     H_    0.329513 0.368892 0.382551 0.126533
H34   H     H_    0.669032 0.054527 0.311495 0.149041
H35   H     H_    0.921216 0.621982 0.310906 0.150810
H36   H     H_    0.375636 0.293570 0.313562 0.150799
C67   C     C_R   0.709171 0.854126 0.133041 -0.032057
C68   C     C_R   0.143335 0.851091 0.131814 -0.028629
C69   C     C_R   0.123141 0.253263 0.139790 -0.018920
C70   C     C_R   0.504237 0.667286 0.344747 -0.121884
C71   C     C_R   0.299645 0.873347 0.350690 -0.116528
C72   C     C_R   0.123750 0.423567 0.352604 -0.111330
C73   C     C_R   0.534283 0.684891 0.295893 -0.004606
C74   C     C_R   0.288655 0.873446 0.300877 -0.007562
C75   C     C_R   0.119295 0.406683 0.303358 -0.009542
C76   C     C_R   0.580821 0.791365 0.275603 0.054987
C77   C     C_R   0.186212 0.805319 0.279113 0.053405
C78   C     C_R   0.185651 0.368864 0.281915 0.054368
C79   C     C_R   0.524699 0.598224 0.268264 -0.094962
C80   C     C_R   0.380148 0.941139 0.272980 -0.086924
C81   C     C_R   0.048900 0.427741 0.275772 -0.090093
C82   C     C_R   0.563902 0.615024 0.220946 0.210762
C83   C     C_R   0.371408 0.947845 0.223319 0.211636
C84   C     C_R   0.035522 0.402876 0.227006 0.213667
C85   C     C_R   0.613701 0.722565 0.199477 0.021091
C86   C     C_R   0.266462 0.889161 0.200599 0.019028
C87   C     C_R   0.091867 0.351978 0.205189 0.020019
C88   C     C_R   0.619810 0.811137 0.227109 -0.052309
C89   C     C_R   0.173620 0.812906 0.228602 -0.055026
C90   C     C_R   0.173303 0.341941 0.232360 -0.054803
C91   C     C_R   0.664939 0.746149 0.153459 0.140244
C92   C     C_R   0.249393 0.912691 0.152811 0.137223
C93   C     C_R   0.060366 0.298726 0.160292 0.152059
C94   C     C_R   0.521672 0.755458 0.374052 0.007124
C95   C     C_R   0.211450 0.799857 0.379965 0.011683
C96   C     C_R   0.198858 0.409679 0.381369 0.013182
H37   H     H_    0.491071 0.517212 0.284532 0.137950
H38   H     H_    0.458942 0.992268 0.290220 0.137409
H39   H     H_    0.001324 0.461033 0.292643 0.136662
H40   H     H_    0.470999 0.585549 0.360441 0.124829
H41   H     H_    0.380067 0.927093 0.366240 0.134714
H42   H     H_    0.071037 0.452648 0.368004 0.141384
O24   O     O_R   0.179100 0.982980 0.967000 -0.464117
O25   O     O_R   0.017020 0.196120 0.967000 -0.452077
O26   O     O_R   0.803880 0.820900 0.967000 -0.461952
Br1   Br    Br    0.494575 0.809297 0.837021 -0.392279
Br2   Br    Br    0.190210 0.688296 0.837653 -0.387092
Br3   Br    Br    0.311419 0.500775 0.835471 -0.393934
N1    N     N_R   0.697492 0.023142 0.128733 0.113448
O27   O     O_R   0.726313 0.120553 0.145550 -0.178247
O28   O     O_R   0.650520 0.998072 0.086203 -0.269270
N2    N     N_R   0.979617 0.669278 0.126012 0.114981
O29   O     O_R   0.880763 0.598614 0.140646 -0.177716
O30   O     O_R   0.011576 0.652081 0.084001 -0.271884
N3    N     N_R   0.313714 0.291489 0.129519 0.116648
O31   O     O_R   0.391821 0.271648 0.142851 -0.180739
O32   O     O_R   0.328004 0.346028 0.089077 -0.252507
Br4   Br    Br    0.824567 0.150858 0.237027 -0.416150
Br5   Br    Br    0.829478 0.663164 0.227897 -0.391056
Br6   Br    Br    0.341676 0.162221 0.231478 -0.398165
N4    N     N_R   0.689194 0.666405 0.131780 -0.048957
O33   O     O_R   0.640936 0.614545 0.091689 -0.000336
O34   O     O_R   0.641041 0.614673 0.091780 -0.000336
N5    N     N_R   0.333165 0.012255 0.129644 -0.049385
O35   O     O_R   0.382350 0.008549 0.089601 -0.001966
O36   O     O_R   0.383267 0.009949 0.089688 -0.001977
N6    N     N_R   0.952377 0.269194 0.141898 -0.039928
O37   O     O_R   0.939323 0.320669 0.104814 -0.000054
O38   O     O_R   0.939320 0.320643 0.104830 -0.000054
Br7   Br    Br    0.548087 0.483062 0.192142 -0.248329
Br8   Br    Br    0.508366 0.049002 0.192578 -0.269508
Br9   Br    Br    0.933470 0.438730 0.196433 -0.264499
N7    N     N_R   0.690791 0.666622 0.708707 0.085521
O39   O     O_R   0.631616 0.573447 0.686524 -0.296387
O40   O     O_R   0.797490 0.709314 0.709561 -0.384866
N8    N     N_R   0.335800 0.020648 0.707024 0.085076
O41   O     O_R   0.430538 0.051779 0.686024 -0.298966
O42   O     O_R   0.294005 0.085905 0.705644 -0.381222
N9    N     N_R   0.976962 0.310914 0.707592 0.085323
O43   O     O_R   0.943505 0.372652 0.686369 -0.295994
O44   O     O_R   0.913142 0.204506 0.707446 -0.381904

loop_
_geom_bond_atom_site_label_1
_geom_bond_atom_site_label_2
_geom_bond_distance
_ccdc_geom_bond_type
C27   C36   1.474200 S    
C47   O26   1.248180 A    
C70   C73   1.391321 A    
O8    C6    1.316510 A    
C64   C67   1.409135 A    
C4    C95   1.459014 S    
O1    C2    1.301950 A    
N8    O41   1.303571 A    
C15   C27   1.549089 S    
C14   H14   1.113399 S    
O4    Cr1   1.966015 S    
C83   C86   1.425737 A    
C45   C68   1.473026 S    
C62   H35   1.089488 S    
C64   N1    1.453218 S    
O6    C3    1.309650 A    
C11   C20   1.549727 S    
O17   Cr4   1.966592 S    
O15   C43   1.208601 A    
O5    Cr2   1.959057 S    
C28   H28   1.113821 S    
C8    H5    1.115217 S    
Cr4   O21   1.949971 S    
C7    H25   1.114782 S    
C65   C68   1.410848 A    
C29   H23   1.113566 S    
C26   C29   1.554865 S    
C86   C92   1.402863 A    
C14   H17   1.108020 S    
O3    C1    1.307861 A    
C79   C82   1.384478 A    
C74   C77   1.405562 A    
C59   Br5   1.921475 S    
C30   H30   1.113767 S    
C12   H9    1.111925 S    
O7    C5    1.274276 A    
C8    C20   1.559313 S    
C2    C42   1.428962 S    
C86   C89   1.426191 A    
C53   C77   1.411296 A    
N5    O36   1.310918 A    
C22   C25   1.559394 S    
N1    O27   1.302426 A    
C57   C90   1.425333 A    
C33   N9    1.471005 S    
C9    H6    1.114972 S    
O16   C44   1.183706 A    
C32   N8    1.470232 S    
C12   C21   1.548993 S    
Cr6   O20   1.886954 S    
C54   C63   1.387162 A    
O9    C4    1.285585 A    
C11   H8    1.112331 S    
C8    C23   1.563094 S    
N2    O30   1.303646 A    
C15   H15   1.113040 S    
C14   C26   1.547965 S    
C75   C78   1.403830 A    
C82   Br7   1.921700 S    
N7    O39   1.303449 A    
C6    C94   1.458435 S    
O16   Cr6   2.067362 S    
C38   C41   1.205399 T    
C19   C31   1.563414 S    
O18   Cr5   1.961904 S    
C55   C88   1.428680 A    
C44   C67   1.479936 S    
C23   Br2   1.950996 S    
C29   H29   1.113954 S    
C24   C27   1.560008 S    
Cr5   O20   1.873901 S    
C29   C32   1.557528 S    
C48   O24   1.251593 A    
C85   C91   1.408159 A    
Cr3   O13   2.054148 S    
C11   C14   1.547022 S    
N8    O42   1.303790 A    
O11   C5    1.289150 A    
C15   H18   1.109874 S    
O4    C1    1.316175 A    
C16   C34   1.207123 T    
C51   C96   1.397964 A    
C83   Br8   1.919373 S    
C7    C19   1.558253 S    
C92   N5    1.446588 S    
C46   O21   1.256558 A    
C32   H20   1.117895 S    
C72   C75   1.372674 A    
C87   C93   1.400470 A    
C18   C46   1.434949 S    
O1    Cr1   2.073450 S    
C31   H19   1.118140 S    
O10   Cr1   1.953162 S    
Cr6   O26   2.086692 S    
C61   H34   1.088072 S    
C30   C33   1.556503 S    
O11   Cr2   1.969602 S    
C7    C22   1.562531 S    
Cr1   O13   2.051331 S    
C33   H21   1.117637 S    
C58   C61   1.386706 A    
C75   C81   1.383973 A    
C49   C94   1.401661 A    
C10   H7    1.112046 S    
C23   C26   1.559672 S    
C1    C41   1.433309 S    
C80   H38   1.084106 S    
O19   C45   1.214496 A    
O6    Cr3   1.959827 S    
O2    Cr2   2.089360 S    
O8    Cr2   2.074449 S    
C85   C88   1.422557 A    
C43   C69   1.475960 S    
C54   C78   1.414030 A    
C25   C28   1.554656 S    
O14   C45   1.191651 A    
C52   C61   1.387818 A    
C59   C62   1.395098 A    
C71   C74   1.379384 A    
C27   C30   1.554209 S    
C60   Br6   1.914028 S    
C93   N6    1.445916 S    
C25   C34   1.477539 S    
C37   C40   1.205572 T    
C81   C84   1.377383 A    
O12   C6    1.313281 A    
C78   C90   1.404286 A    
C87   C90   1.425294 A    
O19   Cr6   1.964555 S    
O7    Cr1   2.083683 S    
C56   C59   1.431061 A    
C82   C85   1.431822 A    
C66   N3    1.452464 S    
C9    H27   1.114805 S    
C18   C36   1.204858 T    
C70   H40   1.085480 S    
C77   C89   1.411116 A    
C46   O25   1.248931 A    
C51   C54   1.395165 A    
C30   H24   1.113265 S    
C65   N2    1.452418 S    
C5    C96   1.444630 S    
C20   C32   1.565459 S    
C55   C64   1.423154 A    
C69   C93   1.429061 A    
C13   H16   1.108521 S    
C16   C47   1.438437 S    
O18   C44   1.218512 A    
C7    H4    1.114640 S    
C57   C66   1.414733 A    
C56   C89   1.428560 A    
C39   C42   1.203155 T    
C84   C87   1.428558 A    
C24   Br3   1.950048 S    
C3    C40   1.432891 S    
Cr2   O13   2.039984 S    
N4    O34   1.310255 A    
C19   C37   1.474379 S    
C10   C19   1.549156 S    
O15   Cr5   2.083356 S    
C72   H42   1.087470 S    
C80   C83   1.378805 A    
N3    O31   1.303956 A    
C60   C63   1.391238 A    
C28   H22   1.113762 S    
Cr5   O22   1.967279 S    
C57   C60   1.427847 A    
C74   C80   1.382773 A    
Cr6   O23   1.951875 S    
H2    C23   1.114239 S    
C56   C65   1.425531 A    
N3    O32   1.303730 A    
C28   C31   1.558628 S    
C79   H37   1.082851 S    
C12   C15   1.546548 S    
C50   C53   1.402322 A    
C9    C21   1.558530 S    
N9    O44   1.303129 A    
C70   C94   1.393881 A    
C73   C76   1.408852 A    
O5    C2    1.309550 A    
C21   C33   1.563873 S    
C58   Br4   1.916913 S    
Cr5   O25   2.081646 S    
C91   N4    1.446314 S    
C12   H12   1.111665 S    
C49   C52   1.392346 A    
C81   H39   1.086118 S    
O14   Cr4   2.065097 S    
C71   C95   1.399832 A    
N6    O37   1.309611 A    
N7    O40   1.303382 A    
C8    H26   1.115466 S    
C53   C62   1.392155 A    
C22   Br1   1.950279 S    
C66   C69   1.410436 A    
C73   C79   1.383143 A    
C72   C96   1.402416 A    
C50   C95   1.404788 A    
C11   H11   1.112318 S    
C76   C88   1.413446 A    
C63   H36   1.090396 S    
C71   H41   1.086528 S    
C26   C35   1.475322 S    
Cr4   O20   1.884301 S    
O9    Cr3   2.074173 S    
C67   C91   1.430171 A    
C50   H32   1.087431 S    
C47   O22   1.258792 A    
C68   C92   1.420384 A    
C13   H13   1.113197 S    
O17   C43   1.243156 A    
N5    O35   1.311802 A    
N1    O28   1.304683 A    
C55   C58   1.424469 A    
O3    Cr3   2.074813 S    
C52   C76   1.408057 A    
C31   N7    1.470767 S    
C21   C39   1.470483 S    
O12   Cr3   1.954558 S    
C20   C38   1.474337 S    
N9    O43   1.303248 A    
C10   C13   1.547136 S    
N2    O29   1.300313 A    
C9    C24   1.561320 S    
O10   C4    1.292980 A    
C51   H33   1.088922 S    
H3    C24   1.113739 S    
C13   C25   1.549990 S    
C48   O23   1.259453 A    
C17   C35   1.206201 T    
C49   H31   1.086250 S    
N4    O33   1.313263 A    
O2    C3    1.302353 A    
C17   C48   1.435045 S    
H1    C22   1.113275 S    
Cr4   O24   2.085516 S    
C10   H10   1.112490 S    
C84   Br9   1.922311 S    
N6    O38   1.309064 A    
