data_mof_unit_63103.cif
_audit_creation_date              2013-03-05T16:41:29-0500
_audit_creation_method            fapswitch 2.2
_symmetry_space_group_name_H-M    P1
_symmetry_Int_Tables_number       1
_space_group_crystal_system       triclinic
_cell_length_a                    17.864119
_cell_length_b                    16.607553
_cell_length_c                    14.336112
_cell_angle_alpha                 89.911754
_cell_angle_beta                  93.455916
_cell_angle_gamma                 90.00069
_cell_volume                      4245.48806424

loop_
_atom_site_label
_atom_site_type_symbol
_atom_site_description
_atom_site_fract_x
_atom_site_fract_y
_atom_site_fract_z
_atom_type_partial_charge
O1    O     O_R   0.391260 0.567930 0.500000 -0.545385
O2    O     O_R   0.608740 0.432070 0.500000 -0.546292
O3    O     O_R   0.608740 0.567930 0.500000 -0.546680
O4    O     O_R   0.391260 0.432070 0.500000 -0.546480
C1    C     C_R   0.355283 0.500014 0.502712 0.866250
C2    C     C_R   0.644711 0.499992 0.497217 0.865874
O5    O     O_R   0.500000 0.567920 0.376050 -0.566392
O6    O     O_R   0.500000 0.432080 0.623950 -0.566198
O7    O     O_R   0.500000 0.567920 0.623950 -0.566586
O8    O     O_R   0.500000 0.432080 0.376050 -0.566044
C3    C     C_R   0.499666 0.500049 0.330911 0.804228
C4    C     C_R   0.500331 0.499949 0.669089 0.803664
Cu1   Cu    Cu3+1 0.500000 0.580420 0.500000 1.011911
Cu2   Cu    Cu3+1 0.500000 0.419580 0.500000 1.012997
C5    C     C_1   0.499702 0.500128 0.228665 -0.154326
C6    C     C_1   0.500299 0.499863 0.771335 -0.153817
C7    C     C_1   0.499783 0.500106 0.143284 0.045717
C8    C     C_1   0.500220 0.499877 0.856716 0.046304
C9    C     C_1   0.499932 0.500027 0.042694 0.064826
C10   C     C_1   0.500073 0.499950 0.957306 0.065088
C11   C     C_R   0.847507 0.573433 0.499300 0.233148
C12   C     C_R   0.152515 0.426511 0.500508 0.233201
C13   C     C_R   0.152314 0.573300 0.497858 0.233417
C14   C     C_R   0.847623 0.426640 0.501482 0.233527
C15   C     C_R   0.768677 0.573787 0.492409 0.214418
C16   C     C_R   0.231341 0.426216 0.507520 0.215488
C17   C     C_R   0.231132 0.573865 0.504795 0.213960
C18   C     C_R   0.768806 0.426133 0.494607 0.215609
C19   C     C_R   0.728139 0.499954 0.493207 -0.360367
C20   C     C_R   0.271843 0.500060 0.506558 -0.360426
C21   C     C_R   0.886395 0.500067 0.504025 -0.224014
C22   C     C_R   0.113586 0.499845 0.495530 -0.223831
C23   C     C_1   0.966538 0.499993 0.501301 0.208227
C24   C     C_1   0.033441 0.499883 0.498226 0.208213
C25   C     C_R   0.540100 0.830340 0.570656 0.224480
C26   C     C_R   0.464981 0.169223 0.426236 0.225018
C27   C     C_R   0.461184 0.831006 0.429415 0.227320
C28   C     C_R   0.535394 0.169430 0.574179 0.225435
C29   C     C_R   0.540042 0.744335 0.569940 0.232109
C30   C     C_R   0.462517 0.255269 0.428399 0.228088
C31   C     C_R   0.460130 0.744933 0.430275 0.230889
C32   C     C_R   0.537532 0.255394 0.571802 0.230715
N1    N     N_R   0.500000 0.701220 0.500000 -0.177319
N2    N     N_R   0.500000 0.298780 0.500000 -0.177316
C33   C     C_R   0.501352 0.873947 0.499701 -0.149750
C34   C     C_R   0.500404 0.125954 0.500277 -0.151951
C35   C     C_1   0.501229 0.963041 0.500229 0.218200
C36   C     C_1   0.500958 0.036845 0.500398 0.216712
N3    N     N_R   0.888172 0.648123 0.499214 0.186770
O9    O     O_R   0.874644 0.700617 0.432860 -0.193754
O10   O     O_R   0.938363 0.664162 0.566154 -0.246547
N4    N     N_R   0.111897 0.351794 0.500693 0.186498
O11   O     O_R   0.125425 0.299390 0.567143 -0.194514
O12   O     O_R   0.061784 0.335620 0.433710 -0.246667
N5    N     N_R   0.111489 0.647944 0.495377 0.186852
O13   O     O_R   0.124822 0.701885 0.559983 -0.193118
O14   O     O_R   0.061384 0.662495 0.427799 -0.246610
N6    N     N_R   0.888401 0.351973 0.503673 0.186722
O15   O     O_R   0.875064 0.298241 0.438831 -0.193552
O16   O     O_R   0.938452 0.337181 0.571238 -0.246810
N7    N     N_R   0.730726 0.649826 0.483853 0.167877
O17   O     O_R   0.741953 0.704275 0.548342 -0.283633
O18   O     O_R   0.695522 0.669482 0.404989 -0.280718
N8    N     N_R   0.269332 0.350218 0.516320 0.168145
O19   O     O_R   0.258398 0.295747 0.451803 -0.288280
O20   O     O_R   0.304401 0.330670 0.595308 -0.279456
N9    N     N_R   0.268857 0.650130 0.510548 0.166703
O21   O     O_R   0.257437 0.702911 0.444044 -0.280028
O22   O     O_R   0.303376 0.672058 0.588937 -0.278668
N10   N     N_R   0.731030 0.349911 0.488498 0.166819
O23   O     O_R   0.742433 0.296882 0.554731 -0.288093
O24   O     O_R   0.696376 0.328329 0.410061 -0.278083
N11   N     N_R   0.579624 0.873787 0.644571 0.134166
O25   O     O_R   0.642865 0.908900 0.629652 -0.219069
O26   O     O_R   0.554435 0.874731 0.727835 -0.269959
N12   N     N_R   0.431098 0.125678 0.348098 0.140749
O27   O     O_R   0.377793 0.074065 0.360388 -0.228097
O28   O     O_R   0.453956 0.137107 0.264632 -0.271236
N13   N     N_R   0.421627 0.875223 0.355967 0.131605
O29   O     O_R   0.350114 0.888472 0.359877 -0.225044
O30   O     O_R   0.458725 0.911815 0.293072 -0.251954
N14   N     N_R   0.569349 0.126088 0.652423 0.134351
O31   O     O_R   0.627272 0.080371 0.641665 -0.225002
O32   O     O_R   0.544216 0.134752 0.735123 -0.273971
C37   C     C_3   0.583830 0.703067 0.650141 -0.563352
H1    H     H_    0.630614 0.740785 0.679733 0.249433
H2    H     H_    0.546207 0.690443 0.707241 0.217319
H3    H     H_    0.612107 0.647977 0.629371 0.234533
C38   C     C_3   0.417115 0.296072 0.349342 -0.560593
H4    H     H_    0.369816 0.257728 0.322313 0.247926
H5    H     H_    0.389258 0.351230 0.370751 0.234484
H6    H     H_    0.453316 0.308574 0.290746 0.221958
C39   C     C_3   0.417928 0.703943 0.348861 -0.577454
H7    H     H_    0.373146 0.742188 0.315513 0.249278
H8    H     H_    0.457202 0.689700 0.294122 0.213362
H9    H     H_    0.387926 0.649801 0.369796 0.240245
C40   C     C_3   0.582322 0.296247 0.651216 -0.558222
H10   H     H_    0.629281 0.257900 0.679360 0.249323
H11   H     H_    0.610575 0.351230 0.629781 0.234613
H12   H     H_    0.545578 0.308930 0.709173 0.220896

loop_
_geom_bond_atom_site_label_1
_geom_bond_atom_site_label_2
_geom_bond_distance
_ccdc_geom_bond_type
N5    O13   1.301171 A    
C39   H7    1.106768 S    
N11   O26   1.300939 A    
N11   O25   1.300330 A    
C9    C10   1.224293 T    
O3    C2    1.300307 A    
C11   N3    1.437521 S    
C40   H10   1.109289 S    
C37   H1    1.108552 S    
O5    C3    1.300422 A    
C11   C21   1.402087 A    
C12   C22   1.402066 A    
O1    C1    1.299862 A    
C12   N4    1.437515 S    
C18   C19   1.424572 A    
N12   O28   1.301078 A    
C28   C32   1.428568 A    
N6    O16   1.301100 A    
N7    O18   1.301341 A    
C16   N8    1.434822 S    
O7    Cu1   1.788729 S    
C26   N12   1.436991 S    
C3    C5    1.465836 S    
C31   C39   1.513404 S    
C4    C6    1.465833 S    
N3    O10   1.301101 A    
C21   C23   1.434565 S    
C26   C34   1.400068 A    
N10   O23   1.301074 A    
C13   C17   1.405563 A    
C30   C38   1.512737 S    
C38   H5    1.095562 S    
O3    Cu1   1.953590 S    
C33   C35   1.479665 S    
C39   H8    1.109493 S    
Cu1   Cu2   2.671160 S    
C28   N14   1.435204 S    
C17   C20   1.424655 A    
C27   C31   1.429623 A    
C31   N1    1.394793 A    
O2    C2    1.299949 A    
C32   N2    1.393850 A    
C40   H11   1.095807 S    
N4    O12   1.301098 A    
C37   H2    1.109770 S    
C15   C19   1.424431 A    
C34   C36   1.479925 S    
N9    O21   1.301123 A    
C26   C30   1.430125 A    
N12   O27   1.300869 A    
O8    Cu2   1.788729 S    
C32   C40   1.513016 S    
N13   O30   1.300709 A    
C29   N1    1.394790 A    
N6    O15   1.301169 A    
N14   O31   1.300222 A    
N9    O22   1.301345 A    
C22   C24   1.434564 S    
C25   C29   1.428385 A    
C27   N13   1.433625 S    
C35   C36   1.225712 T    
C30   N2    1.394133 A    
O6    C4    1.300396 A    
C23   C24   1.198636 T    
C15   N7    1.434887 S    
C38   H6    1.109937 S    
C14   N6    1.437530 S    
C16   C20   1.424353 A    
C39   H9    1.097435 S    
N14   O32   1.301004 A    
N5    O14   1.301105 A    
O1    Cu1   1.953587 S    
C29   C37   1.514175 S    
C27   C33   1.397789 A    
C25   C33   1.396868 A    
Cu1   N1    2.006191 S    
C40   H12   1.109908 S    
N4    O11   1.301166 A    
Cu2   N2    2.006191 S    
C1    C20   1.494922 S    
C37   H3    1.095384 S    
C5    C7    1.224125 T    
C11   C15   1.405764 A    
C25   N11   1.433229 S    
O6    Cu2   1.789364 S    
C18   N10   1.434804 S    
C14   C18   1.405518 A    
O4    C1    1.300379 A    
C13   N5    1.437569 S    
N8    O19   1.301078 A    
C14   C21   1.401841 A    
C13   C22   1.401884 A    
C7    C9    1.442234 S    
C8    C10   1.442233 S    
O4    Cu2   1.953592 S    
N7    O17   1.301102 A    
O2    Cu2   1.953585 S    
O7    C4    1.300135 A    
C28   C34   1.398924 A    
C17   N9    1.434846 S    
O8    C3    1.300109 A    
N13   O29   1.300867 A    
O5    Cu1   1.789364 S    
C2    C19   1.494938 S    
C6    C8    1.224124 T    
N3    O9    1.301167 A    
C12   C16   1.405695 A    
N10   O24   1.301350 A    
C38   H4    1.109452 S    
N8    O20   1.301340 A    
