data_mof_unit_65642.cif
_audit_creation_date              2013-03-05T16:18:45-0500
_audit_creation_method            fapswitch 2.2
_symmetry_space_group_name_H-M    P1
_symmetry_Int_Tables_number       1
_space_group_crystal_system       monoclinic
_cell_length_a                    44.362618
_cell_length_b                    38.896766
_cell_length_c                    21.306659
_cell_angle_alpha                 90.0
_cell_angle_beta                  61.355525
_cell_angle_gamma                 90.0
_cell_volume                      32266.2237567

loop_
_atom_site_label
_atom_site_type_symbol
_atom_site_description
_atom_site_fract_x
_atom_site_fract_y
_atom_site_fract_z
_atom_type_partial_charge
O1    O     O_R   0.050910 0.528730 0.449120 -0.624514
O2    O     O_R   0.949090 0.528730 0.550880 -0.624514
O3    O     O_R   0.550910 0.028730 0.449120 -0.624545
O4    O     O_R   0.449090 0.028730 0.550880 -0.624544
O5    O     O_R   0.050890 0.471240 0.449130 -0.622386
O6    O     O_R   0.949110 0.471240 0.550870 -0.622384
O7    O     O_R   0.550890 0.971240 0.449130 -0.622185
O8    O     O_R   0.449110 0.971240 0.550870 -0.622184
C1    C     C_R   0.067229 0.499986 0.432852 0.893276
C2    C     C_R   0.932771 0.499986 0.567148 0.893276
C3    C     C_R   0.567229 0.999986 0.432852 0.893164
C4    C     C_R   0.432771 0.999986 0.567148 0.893164
O9    O     O_R   0.999990 0.528730 0.593030 -0.627354
O10   O     O_R   0.000010 0.528730 0.406970 -0.627354
O11   O     O_R   0.499990 0.028730 0.593030 -0.627364
O12   O     O_R   0.500010 0.028730 0.406970 -0.627364
O13   O     O_R   0.999970 0.471240 0.593040 -0.609607
O14   O     O_R   0.000030 0.471240 0.406960 -0.609608
O15   O     O_R   0.499970 0.971240 0.593040 -0.609413
O16   O     O_R   0.500030 0.971240 0.406960 -0.609413
C5    C     C_R   0.999840 0.500001 0.621775 0.892369
C6    C     C_R   0.000160 0.500001 0.378225 0.892370
C7    C     C_R   0.499838 0.000001 0.621777 0.892211
C8    C     C_R   0.500162 0.000001 0.378223 0.892212
Zn1   Zn    Zn3+2 1.000000 0.538370 0.500000 0.974125
Zn2   Zn    Zn3+2 0.500000 0.038370 0.500000 0.974320
Zn3   Zn    Zn3+2 1.000000 0.461600 0.500000 1.006905
Zn4   Zn    Zn3+2 0.500000 0.961600 0.500000 1.008360
C9    C     C_3   0.031144 0.490242 0.697586 -0.218129
C10   C     C_3   0.968856 0.490242 0.302414 -0.218128
C11   C     C_3   0.531174 0.990347 0.697554 -0.218150
C12   C     C_3   0.468826 0.990347 0.302445 -0.218149
C13   C     C_3   0.006907 0.468747 0.762542 0.375328
C14   C     C_3   0.993093 0.468747 0.237458 0.375328
C15   C     C_3   0.507010 0.968770 0.762439 0.374409
C16   C     C_3   0.492990 0.968770 0.237561 0.374409
H1    H     H_    0.056471 0.482007 0.653665 0.160157
H2    H     H_    0.943529 0.482007 0.346334 0.160157
H3    H     H_    0.556528 0.982197 0.653606 0.160192
H4    H     H_    0.443472 0.982197 0.346394 0.160192
C17   C     C_3   0.999888 0.499738 0.811011 -0.081903
C18   C     C_3   0.000112 0.499738 0.188989 -0.081902
C19   C     C_3   0.499888 0.999737 0.811012 -0.081897
C20   C     C_3   0.500112 0.999737 0.188988 -0.081896
C21   C     C_3   0.023833 0.522025 0.746831 -0.213841
C22   C     C_3   0.976167 0.522025 0.253169 -0.213841
C23   C     C_3   0.523756 0.022105 0.746907 -0.213712
C24   C     C_3   0.476243 0.022105 0.253093 -0.213713
C25   C     C_3   0.992581 0.531823 0.736919 -0.136652
C26   C     C_3   0.007419 0.531823 0.263081 -0.136653
C27   C     C_3   0.492472 0.031797 0.737028 -0.136632
C28   C     C_3   0.507528 0.031797 0.262972 -0.136633
C29   C     C_3   0.968623 0.509463 0.801958 -0.210491
C30   C     C_3   0.031377 0.509463 0.198042 -0.210491
C31   C     C_3   0.468589 0.009357 0.801992 -0.210433
C32   C     C_3   0.531411 0.009357 0.198008 -0.210433
C33   C     C_3   0.975698 0.477664 0.753019 -0.209010
C34   C     C_3   0.024302 0.477664 0.246981 -0.209010
C35   C     C_3   0.475771 0.977582 0.752946 -0.208688
C36   C     C_3   0.524229 0.977582 0.247054 -0.208689
C37   C     C_3   0.999771 0.500017 0.689233 -0.037159
C38   C     C_3   0.000229 0.500017 0.310767 -0.037158
C39   C     C_3   0.499769 0.000016 0.689235 -0.037159
C40   C     C_3   0.500231 0.000016 0.310764 -0.037158
H5    H     H_    0.043332 0.540183 0.745989 0.164230
H6    H     H_    0.956668 0.540183 0.254011 0.164230
H7    H     H_    0.543195 0.040327 0.746128 0.164158
H8    H     H_    0.456805 0.040327 0.253872 0.164158
H9    H     H_    0.986628 0.557901 0.724694 0.162397
H10   H     H_    0.013372 0.557901 0.275306 0.162398
H11   H     H_    0.486431 0.057855 0.724890 0.162408
H12   H     H_    0.513569 0.057855 0.275110 0.162408
H13   H     H_    0.943170 0.517451 0.845781 0.174007
H14   H     H_    0.056830 0.517451 0.154219 0.174008
H15   H     H_    0.443109 0.017259 0.845840 0.174031
H16   H     H_    0.556891 0.017259 0.154160 0.174032
H17   H     H_    0.956382 0.459273 0.753799 0.170208
H18   H     H_    0.043618 0.459273 0.246201 0.170208
H19   H     H_    0.456517 0.959126 0.753666 0.170469
H20   H     H_    0.543483 0.959126 0.246334 0.170469
C41   C     C_R   0.377148 0.498431 0.065708 -0.175932
C42   C     C_R   0.622852 0.498431 0.934292 -0.175933
C43   C     C_R   0.877148 0.998427 0.065708 -0.175708
C44   C     C_R   0.122852 0.998427 0.934292 -0.175709
H21   H     H_    0.390543 0.497412 0.007829 0.161818
H22   H     H_    0.609457 0.497412 0.992171 0.161818
H23   H     H_    0.890543 0.997408 0.007830 0.161719
H24   H     H_    0.109457 0.997408 0.992170 0.161719
C45   C     C_R   0.341464 0.498227 0.101295 -0.164789
C46   C     C_R   0.658536 0.498227 0.898705 -0.164789
C47   C     C_R   0.841464 0.998223 0.101295 -0.164671
C48   C     C_R   0.158536 0.998223 0.898705 -0.164671
H25   H     H_    0.327970 0.496787 0.070383 0.137216
H26   H     H_    0.672030 0.496787 0.929617 0.137216
H27   H     H_    0.827970 0.996781 0.070384 0.137114
H28   H     H_    0.172030 0.996781 0.929616 0.137113
C49   C     C_R   0.323405 0.499404 0.176186 0.117241
C50   C     C_R   0.676595 0.499404 0.823814 0.117241
C51   C     C_R   0.823405 0.999400 0.176186 0.117346
C52   C     C_R   0.176595 0.999400 0.823814 0.117346
C53   C     C_R   0.341405 0.500732 0.215142 -0.161853
C54   C     C_R   0.658595 0.500732 0.784858 -0.161853
C55   C     C_R   0.841405 0.000730 0.215142 -0.161622
C56   C     C_R   0.158595 0.000730 0.784858 -0.161622
H29   H     H_    0.327860 0.502074 0.273000 0.138934
H30   H     H_    0.672139 0.502074 0.727000 0.138934
H31   H     H_    0.827860 0.002073 0.273000 0.138871
H32   H     H_    0.172140 0.002073 0.727000 0.138871
C57   C     C_R   0.377092 0.500906 0.179596 -0.179568
C58   C     C_R   0.622908 0.500906 0.820404 -0.179567
C59   C     C_R   0.877092 0.000905 0.179596 -0.179523
C60   C     C_R   0.122908 0.000905 0.820404 -0.179521
H33   H     H_    0.390444 0.502057 0.210811 0.161475
H34   H     H_    0.609556 0.502057 0.789189 0.161475
H35   H     H_    0.890444 0.002057 0.210811 0.161336
H36   H     H_    0.109556 0.002057 0.789189 0.161336
C61   C     C_R   0.395203 0.499781 0.104628 -0.040592
C62   C     C_R   0.604797 0.499781 0.895372 -0.040592
C63   C     C_R   0.895202 0.999780 0.104628 -0.040477
C64   C     C_R   0.104797 0.999780 0.895372 -0.040477
C65   C     C_R   0.267718 0.478534 0.274001 -0.174060
C66   C     C_R   0.732282 0.478534 0.725999 -0.174061
C67   C     C_R   0.767718 0.978532 0.274003 -0.174178
C68   C     C_R   0.232282 0.978532 0.725997 -0.174177
H37   H     H_    0.281197 0.461864 0.292973 0.142359
H38   H     H_    0.718803 0.461864 0.707027 0.142359
H39   H     H_    0.781197 0.961862 0.292976 0.142305
H40   H     H_    0.218803 0.961862 0.707024 0.142305
C69   C     C_R   0.232031 0.478769 0.309865 -0.175289
C70   C     C_R   0.767969 0.478769 0.690135 -0.175289
C71   C     C_R   0.732031 0.978768 0.309867 -0.175208
C72   C     C_R   0.267969 0.978768 0.690133 -0.175208
H41   H     H_    0.218395 0.462674 0.356657 0.146537
H42   H     H_    0.781605 0.462674 0.643343 0.146537
H43   H     H_    0.718394 0.962673 0.356661 0.146570
H44   H     H_    0.281606 0.962673 0.643339 0.146570
C73   C     C_R   0.214105 0.499947 0.285849 0.144133
C74   C     C_R   0.785895 0.499947 0.714151 0.144133
C75   C     C_R   0.714105 0.999946 0.285850 0.144087
C76   C     C_R   0.285895 0.999946 0.714150 0.144086
C77   C     C_R   0.232123 0.520634 0.225277 -0.081323
C78   C     C_R   0.767877 0.520634 0.774723 -0.081323
C79   C     C_R   0.732123 0.020631 0.225276 -0.081284
C80   C     C_R   0.267877 0.020631 0.774724 -0.081284
H45   H     H_    0.218571 0.536761 0.205564 0.163953
H46   H     H_    0.781429 0.536761 0.794436 0.163953
H47   H     H_    0.718572 0.036758 0.205562 0.164024
H48   H     H_    0.281428 0.036758 0.794438 0.164024
C81   C     C_R   0.267803 0.520418 0.189413 -0.193911
C82   C     C_R   0.732197 0.520418 0.810587 -0.193911
C83   C     C_R   0.767803 0.020415 0.189412 -0.193568
C84   C     C_R   0.232197 0.020415 0.810588 -0.193568
H49   H     H_    0.281343 0.536905 0.143246 0.141380
H50   H     H_    0.718657 0.536905 0.856754 0.141380
H51   H     H_    0.781344 0.036901 0.143243 0.141621
H52   H     H_    0.218656 0.036901 0.856757 0.141621
C85   C     C_R   0.285794 0.499419 0.213672 0.097979
C86   C     C_R   0.714206 0.499419 0.786328 0.097979
C87   C     C_R   0.785794 0.999416 0.213672 0.097906
C88   C     C_R   0.214206 0.999416 0.786328 0.097905
C89   C     C_R   0.158604 0.469005 0.339299 -0.254485
C90   C     C_R   0.841396 0.469005 0.660701 -0.254485
C91   C     C_R   0.658603 0.969004 0.339303 -0.254456
C92   C     C_R   0.341397 0.969004 0.660697 -0.254456
H53   H     H_    0.172237 0.444761 0.323196 0.168748
H54   H     H_    0.827763 0.444761 0.676804 0.168748
H55   H     H_    0.672236 0.944760 0.323201 0.168835
H56   H     H_    0.327764 0.944760 0.676799 0.168835
C93   C     C_R   0.122923 0.468901 0.374918 -0.171947
C94   C     C_R   0.877077 0.468901 0.625082 -0.171947
C95   C     C_R   0.622922 0.968901 0.374921 -0.171666
C96   C     C_R   0.377078 0.968901 0.625079 -0.171666
H57   H     H_    0.109597 0.444489 0.386111 0.179561
H58   H     H_    0.890403 0.444489 0.613889 0.179561
H59   H     H_    0.609597 0.944488 0.386115 0.179801
H60   H     H_    0.390403 0.944488 0.613885 0.179801
C97   C     C_R   0.104782 0.500030 0.395442 -0.130767
C98   C     C_R   0.895218 0.500030 0.604558 -0.130768
C99   C     C_R   0.604782 0.000030 0.395442 -0.130883
C100  C     C_R   0.395218 0.000030 0.604558 -0.130884
C101  C     C_R   0.122791 0.531245 0.380115 -0.264701
C102  C     C_R   0.877209 0.531244 0.619885 -0.264701
C103  C     C_R   0.622791 0.031244 0.380114 -0.264676
C104  C     C_R   0.377208 0.031244 0.619886 -0.264676
H61   H     H_    0.109309 0.555566 0.395944 0.190393
H62   H     H_    0.890691 0.555566 0.604056 0.190393
H63   H     H_    0.609309 0.055565 0.395940 0.190463
H64   H     H_    0.390691 0.055565 0.604060 0.190463
C105  C     C_R   0.158488 0.531386 0.344539 0.645011
C106  C     C_R   0.841512 0.531386 0.655461 0.645011
C107  C     C_R   0.658489 0.031385 0.344537 0.645150
C108  C     C_R   0.341511 0.031385 0.655462 0.645150
C109  C     C_R   0.176554 0.500196 0.323722 -0.037015
C110  C     C_R   0.823446 0.500196 0.676278 -0.037015
C111  C     C_R   0.676554 0.000195 0.323723 -0.037163
C112  C     C_R   0.323446 0.000195 0.676277 -0.037163
O17   O     O_R   0.971250 0.449110 0.028730 -0.570112
O18   O     O_R   0.028750 0.449110 0.971270 -0.570113
O19   O     O_R   0.471250 0.949110 0.028730 -0.570561
O20   O     O_R   0.528750 0.949110 0.971270 -0.570562
C113  C     C_R   0.000000 0.432872 0.000000 1.079674
C114  C     C_R   0.500000 0.932872 0.000000 1.079779
O21   O     O_R   0.971250 0.500020 0.935710 -0.619202
O22   O     O_R   0.028750 0.500020 0.064290 -0.619203
O23   O     O_R   0.471250 0.000020 0.935710 -0.619263
O24   O     O_R   0.528750 0.000020 0.064290 -0.619264
O25   O     O_R   0.028730 0.500040 0.878250 -0.619208
O26   O     O_R   0.971270 0.500040 0.121750 -0.619209
O27   O     O_R   0.528730 0.000040 0.878250 -0.619127
O28   O     O_R   0.471270 0.000040 0.121750 -0.619127
C115  C     C_R   0.999965 0.499994 0.878402 0.934176
C116  C     C_R   0.000034 0.499994 0.121597 0.934175
C117  C     C_R   0.499965 0.999993 0.878403 0.934289
C118  C     C_R   0.500035 0.999993 0.121597 0.934288
Zn5   Zn    Zn3+2 0.961610 0.500020 0.038370 1.031929
Zn6   Zn    Zn3+2 0.038390 0.500020 0.961630 1.031929
Zn7   Zn    Zn3+2 0.461610 0.000020 0.038370 1.031471
Zn8   Zn    Zn3+2 0.538390 0.000020 0.961630 1.031471
O29   O     O_R   0.971250 0.550940 0.028740 -0.636536
O30   O     O_R   0.028750 0.550940 0.971260 -0.636536
O31   O     O_R   0.471250 0.050940 0.028740 -0.636520
O32   O     O_R   0.528750 0.050940 0.971260 -0.636521
C119  C     C_R   0.000000 0.567242 0.000000 0.838814
C120  C     C_R   0.500000 0.067242 0.000000 0.838922
O33   O     O_R   0.499970 0.449000 0.052430 -0.621011
O34   O     O_R   0.500030 0.449000 0.947570 -0.621011
O35   O     O_R   0.999970 0.949000 0.052430 -0.621064
O36   O     O_R   0.000030 0.949000 0.947570 -0.621064
C121  C     C_R   0.500000 0.432672 0.000000 0.884921
C122  C     C_R   1.000000 0.932672 0.000000 0.884930
O37   O     O_R   0.449080 0.499920 0.103410 -0.622845
O38   O     O_R   0.550920 0.499920 0.896590 -0.622846
O39   O     O_R   0.949080 0.999920 0.103410 -0.622925
O40   O     O_R   0.050920 0.999920 0.896590 -0.622926
O41   O     O_R   0.449080 0.499990 0.998370 -0.623659
O42   O     O_R   0.550920 0.499990 0.001630 -0.623658
O43   O     O_R   0.949080 0.999990 0.998370 -0.623667
O44   O     O_R   0.050920 0.999990 0.001630 -0.623666
C123  C     C_R   0.432758 0.499937 0.067177 0.870315
C124  C     C_R   0.567242 0.499937 0.932823 0.870317
C125  C     C_R   0.932758 0.999937 0.067177 0.870554
C126  C     C_R   0.067242 0.999937 0.932823 0.870556
Zn9   Zn    Zn3+2 0.499980 0.499910 0.070140 0.969115
Zn10  Zn    Zn3+2 0.500020 0.499910 0.929860 0.969115
Zn11  Zn    Zn3+2 0.999980 0.999910 0.070140 0.968624
Zn12  Zn    Zn3+2 0.000020 0.999910 0.929860 0.968624
O45   O     O_R   0.500000 0.550840 0.052620 -0.620949
O46   O     O_R   0.500000 0.550840 0.947380 -0.620949
O47   O     O_R   0.000000 0.050840 0.052620 -0.621100
O48   O     O_R   0.000000 0.050840 0.947380 -0.621100
C127  C     C_R   0.500000 0.567106 0.000000 0.863288
C128  C     C_R   0.000000 0.067107 0.000000 0.863537
C129  C     C_R   0.513776 0.622627 0.037394 -0.183863
C130  C     C_R   0.486224 0.622627 0.962605 -0.183862
C131  C     C_R   0.013727 0.122620 0.037386 -0.181813
C132  C     C_R   0.986273 0.122620 0.962614 -0.181813
H65   H     H_    0.524665 0.609091 0.066254 0.155209
H66   H     H_    0.475335 0.609091 0.933746 0.155209
H67   H     H_    0.024748 0.109072 0.065983 0.154475
H68   H     H_    0.975252 0.109072 0.934017 0.154475
C133  C     C_R   0.514103 0.658376 0.036743 -0.163227
C134  C     C_R   0.485897 0.658376 0.963257 -0.163227
C135  C     C_R   0.014050 0.158362 0.036801 -0.163638
C136  C     C_R   0.985950 0.158362 0.963199 -0.163638
H69   H     H_    0.524972 0.672096 0.065442 0.142367
H70   H     H_    0.475028 0.672096 0.934558 0.142367
H71   H     H_    0.025675 0.171695 0.064417 0.135133
H72   H     H_    0.974325 0.171695 0.935583 0.135133
C137  C     C_R   0.500000 0.676288 0.000000 0.107898
C138  C     C_R   0.000000 0.176567 0.000000 0.116264
C139  C     C_R   0.500000 0.604600 0.000000 -0.033229
C140  C     C_R   0.000000 0.104603 0.000000 -0.033862
C141  C     C_R   0.468921 0.731657 0.027063 -0.181087
C142  C     C_R   0.531079 0.731657 0.972937 -0.181087
C143  C     C_R   0.005646 0.232632 0.938327 -0.185286
C144  C     C_R   0.994354 0.232632 0.061672 -0.185286
H73   H     H_    0.444746 0.717930 0.048627 0.146091
H74   H     H_    0.555254 0.717930 0.951372 0.146091
H75   H     H_    0.010737 0.219305 0.889621 0.140733
H76   H     H_    0.989263 0.219305 0.110379 0.140733
C145  C     C_R   0.005302 0.268373 0.938611 -0.157121
C146  C     C_R   0.994698 0.268373 0.061389 -0.157122
C147  C     C_R   0.468871 0.767398 0.027742 -0.160543
C148  C     C_R   0.531129 0.767398 0.972258 -0.160543
H77   H     H_    0.009698 0.282101 0.890711 0.157243
H78   H     H_    0.990302 0.282101 0.109289 0.157243
H79   H     H_    0.444472 0.780727 0.050737 0.144937
H80   H     H_    0.555528 0.780727 0.949262 0.144937
C149  C     C_R   0.000000 0.286275 0.000000 0.169397
C150  C     C_R   0.500000 0.785606 0.000000 0.184010
C151  C     C_R   0.500000 0.713753 0.000000 0.092967
C152  C     C_R   0.000000 0.214423 0.000000 0.101893
C153  C     C_R   0.023682 0.341634 0.013410 -0.238550
C154  C     C_R   0.976318 0.341634 0.986590 -0.238550
C155  C     C_R   0.523630 0.841652 0.013511 -0.242270
C156  C     C_R   0.476370 0.841652 0.986489 -0.242271
H81   H     H_    0.042085 0.327858 0.023724 0.184715
H82   H     H_    0.957915 0.327858 0.976276 0.184715
H83   H     H_    0.541621 0.828259 0.025612 0.179486
H84   H     H_    0.458379 0.828259 0.974387 0.179487
C157  C     C_R   0.023993 0.377385 0.012645 0.621247
C158  C     C_R   0.976007 0.377385 0.987355 0.621248
C159  C     C_R   0.523913 0.877397 0.012762 0.621166
C160  C     C_R   0.476087 0.877397 0.987238 0.621166
C161  C     C_R   0.000000 0.395424 0.000000 -0.301349
C162  C     C_R   0.500000 0.895422 0.000000 -0.300142
C163  C     C_R   0.000000 0.323739 0.000000 -0.095220
C164  C     C_R   0.500000 0.823462 0.000000 -0.080151
C165  C     C_R   0.504938 0.377077 0.938754 -0.174786
C166  C     C_R   0.495062 0.377077 0.061246 -0.174786
C167  C     C_R   0.004927 0.877077 0.938762 -0.174897
C168  C     C_R   0.995073 0.877077 0.061238 -0.174898
H85   H     H_    0.508906 0.390484 0.890840 0.161014
H86   H     H_    0.491094 0.390484 0.109160 0.161014
H87   H     H_    0.008887 0.890483 0.890853 0.160938
H88   H     H_    0.991113 0.890483 0.109146 0.160938
C169  C     C_R   0.505046 0.341375 0.938720 -0.058267
C170  C     C_R   0.494954 0.341375 0.061280 -0.058268
C171  C     C_R   0.005035 0.841375 0.938728 -0.058327
C172  C     C_R   0.994964 0.841375 0.061272 -0.058327
H89   H     H_    0.509051 0.327600 0.891136 0.139510
H90   H     H_    0.490949 0.327600 0.108864 0.139510
H91   H     H_    0.009032 0.827600 0.891149 0.139431
H92   H     H_    0.990968 0.827600 0.108851 0.139431
C173  C     C_R   0.500000 0.323541 0.000000 0.212439
C174  C     C_R   1.000000 0.823540 0.000000 0.212554
C175  C     C_R   0.500000 0.395142 0.000000 -0.049651
C176  C     C_R   1.000000 0.895142 0.000000 -0.049590
C177  C     C_R   0.526331 0.267979 0.005564 0.292678
C178  C     C_R   0.473669 0.267979 0.994436 0.292677
C179  C     C_R   0.026338 0.767979 0.005536 0.292688
C180  C     C_R   0.973662 0.767979 0.994463 0.292687
C181  C     C_R   0.025613 0.732142 0.006712 -0.234156
C182  C     C_R   0.974387 0.732142 0.993288 -0.234156
C183  C     C_R   0.525605 0.232142 0.006738 -0.234087
C184  C     C_R   0.474395 0.232142 0.993261 -0.234087
H93   H     H_    0.045380 0.718132 0.012016 0.184752
H94   H     H_    0.954620 0.718132 0.987984 0.184752
H95   H     H_    0.545367 0.218133 0.012063 0.184767
H96   H     H_    0.454633 0.218132 0.987937 0.184767
C185  C     C_R   0.000000 0.714214 0.000000 -0.021818
C186  C     C_R   0.500000 0.214214 0.000000 -0.021819
C187  C     C_R   0.500000 0.286034 0.000000 -0.190763
C188  C     C_R   1.000000 0.786034 0.000000 -0.190798
C189  C     C_R   0.030699 0.658536 0.959502 -0.161009
C190  C     C_R   0.969301 0.658536 0.040498 -0.161009
C191  C     C_R   0.530701 0.158536 0.959520 -0.160951
C192  C     C_R   0.469299 0.158536 0.040480 -0.160950
H97   H     H_    0.054569 0.672057 0.927152 0.144896
H98   H     H_    0.945431 0.672057 0.072848 0.144896
H99   H     H_    0.554573 0.172057 0.927185 0.144916
H100  H     H_    0.445427 0.172057 0.072815 0.144916
C193  C     C_R   0.030724 0.622834 0.959652 -0.189973
C194  C     C_R   0.969276 0.622834 0.040348 -0.189973
C195  C     C_R   0.530726 0.122834 0.959670 -0.189951
C196  C     C_R   0.469274 0.122834 0.040330 -0.189952
H101  H     H_    0.054711 0.609421 0.927767 0.163060
H102  H     H_    0.945289 0.609421 0.072233 0.163060
H103  H     H_    0.554715 0.109421 0.927799 0.163061
H104  H     H_    0.445285 0.109421 0.072201 0.163061
C197  C     C_R   0.000000 0.604772 0.000000 -0.030382
C198  C     C_R   0.500000 0.104773 0.000000 -0.030418
C199  C     C_R   0.000000 0.676575 0.000000 0.161208
C200  C     C_R   0.500000 0.176575 0.000000 0.161196
N1    N     N_R   0.014793 0.433997 0.775790 0.212949
O49   O     O_R   0.020012 0.409844 0.729489 -0.368071
O50   O     O_R   0.016854 0.426884 0.833220 -0.393509
N2    N     N_R   0.985207 0.433997 0.224210 0.212950
O51   O     O_R   0.979988 0.409844 0.270510 -0.368071
O52   O     O_R   0.983146 0.426884 0.166780 -0.393510
N3    N     N_R   0.515013 0.934046 0.775567 0.213455
O53   O     O_R   0.520315 0.909913 0.729181 -0.365105
O54   O     O_R   0.517094 0.926937 0.832977 -0.391828
N4    N     N_R   0.484987 0.934046 0.224433 0.213455
O55   O     O_R   0.479685 0.909913 0.270819 -0.365105
O56   O     O_R   0.482906 0.926937 0.167023 -0.391828
F1    F     F_    0.175332 0.561864 0.331985 -0.668949
F2    F     F_    0.824668 0.561864 0.668015 -0.668949
F3    F     F_    0.675333 0.061863 0.331981 -0.668678
F4    F     F_    0.324667 0.061863 0.668019 -0.668678
F5    F     F_    0.047095 0.394315 0.025978 -0.618323
F6    F     F_    0.952905 0.394315 0.974022 -0.618323
F7    F     F_    0.546831 0.894342 0.026652 -0.618786
F8    F     F_    0.453169 0.894342 0.973348 -0.618786
N5    N     N_R   0.554171 0.285483 0.008810 0.208842
O57   O     O_R   0.568436 0.271943 0.043975 -0.376827
O58   O     O_R   0.568244 0.312510 0.969569 -0.379374
N6    N     N_R   0.445829 0.285483 0.991190 0.208842
O59   O     O_R   0.431564 0.271943 0.956025 -0.376827
O60   O     O_R   0.431756 0.312510 0.030431 -0.379374
N7    N     N_R   0.054185 0.785483 0.008754 0.208817
O61   O     O_R   0.068463 0.771942 0.043895 -0.377031
O62   O     O_R   0.068252 0.812511 0.969510 -0.379483
N8    N     N_R   0.945815 0.785483 0.991246 0.208817
O63   O     O_R   0.931537 0.771942 0.956105 -0.377031
O64   O     O_R   0.931748 0.812511 0.030490 -0.379483

loop_
_geom_bond_atom_site_label_1
_geom_bond_atom_site_label_2
_geom_bond_distance
_ccdc_geom_bond_type
C51   C55   1.401693 A    
C153  H81   1.083526 S    
C31   C35   1.549788 S    
O20   Zn8   2.015488 S    
C78   H46   1.083241 S    
C43   H23   1.082996 S    
C14   C18   1.519301 S    
O18   Zn6   2.015488 S    
C58   C62   1.403023 A    
C135  H71   1.082626 S    
C194  C197  1.402484 A    
C94   C98   1.402692 A    
C20   C118  1.437558 S    
O21   Zn5   2.017549 S    
C154  H82   1.083526 S    
C178  N6    1.440693 S    
C94   H58   1.082992 S    
C153  C163  1.399153 A    
C179  N7    1.440693 S    
O48   C128  1.287377 A    
C9    C13   1.530981 S    
C52   C56   1.401693 A    
C10   H2    1.110260 S    
C43   C63   1.403112 A    
C81   H49   1.083128 S    
C30   H14   1.110208 S    
C135  C138  1.404743 A    
C144  H76   1.082580 S    
C114  C162  1.456703 S    
Zn8   O32   2.015870 S    
C83   H51   1.083129 S    
O4    C4    1.285970 A    
C167  C176  1.403772 A    
C173  C187  1.458874 S    
C77   H45   1.083241 S    
O24   C118  1.273741 A    
C79   C83   1.389178 A    
C155  C164  1.404159 A    
C53   C57   1.389404 A    
C148  C150  1.405512 A    
C25   H9    1.110177 S    
C70   H42   1.083342 S    
C27   H11   1.110177 S    
N2    O52   1.299795 A    
N2    O51   1.300169 A    
C75   C111  1.462042 S    
C131  H67   1.083320 S    
Zn7   O31   2.015866 S    
C171  H91   1.083447 S    
C92   H56   1.083432 S    
C105  F1    1.357816 S    
C60   C64   1.403024 A    
C165  H85   1.082983 S    
C155  H83   1.082696 S    
O16   Zn4   2.016898 S    
C50   C54   1.401698 A    
O27   C117  1.274518 A    
O7    Zn4   2.016477 S    
C9    C21   1.551817 S    
C2    C98   1.462054 S    
O15   C7    1.273976 A    
C6    C38   1.435846 S    
C28   H12   1.110177 S    
C11   C39   1.533199 S    
O34   Zn10  2.015906 S    
C171  C174  1.398522 A    
C157  C161  1.404531 A    
O26   C116  1.274511 A    
O22   C116  1.273748 A    
C66   C86   1.402510 A    
O9    C5    1.272773 A    
C33   C37   1.533621 S    
C63   C125  1.462166 S    
C98   C102  1.403180 A    
C69   H41   1.083344 S    
C131  C135  1.390289 A    
C193  C197  1.402481 A    
C132  C136  1.390289 A    
O8    Zn4   2.016477 S    
C16   C20   1.519299 S    
C72   C76   1.401075 A    
C42   C62   1.403109 A    
C70   C74   1.401071 A    
C172  H92   1.083449 S    
C1    C97   1.462054 S    
C166  H86   1.082983 S    
C129  C133  1.390608 A    
C108  F4    1.357821 S    
C35   C39   1.533626 S    
C158  F6    1.357898 S    
O3    Zn2   2.017238 S    
C44   H24   1.082996 S    
C95   C99   1.402691 A    
C22   H6    1.110209 S    
C180  N8    1.440693 S    
C149  C163  1.457221 S    
C43   C47   1.389297 A    
C150  C164  1.472499 S    
C36   C40   1.533626 S    
C26   H10   1.110176 S    
C13   C17   1.519300 S    
N1    O49   1.300168 A    
C134  C137  1.399745 A    
O39   Zn11  2.016597 S    
C144  C146  1.390270 A    
C25   C29   1.547358 S    
C68   C88   1.402508 A    
O44   Zn11  2.018661 S    
O25   Zn6   2.017350 S    
C27   C31   1.547361 S    
O3    C3    1.285970 A    
N8    O63   1.301464 A    
C104  H64   1.083065 S    
C24   C28   1.546822 S    
C69   C73   1.401070 A    
C61   C123  1.462166 S    
O20   C114  1.285222 A    
C167  H87   1.082984 S    
C14   C34   1.532193 S    
C17   C21   1.535307 S    
C55   H31   1.083192 S    
C102  C106  1.389811 A    
C19   C23   1.535302 S    
C190  C194  1.388694 A    
C89   H53   1.083431 S    
C100  C104  1.403181 A    
N5    O58   1.301377 A    
C182  C185  1.397707 A    
C195  H103  1.083067 S    
C51   C87   1.464299 S    
C91   H55   1.083432 S    
C174  C188  1.458874 S    
O5    C1    1.286404 A    
O23   Zn7   2.017549 S    
C67   C87   1.402512 A    
C12   C16   1.530979 S    
C15   C35   1.532194 S    
C190  C199  1.401766 A    
C143  C152  1.405534 A    
C18   C22   1.535307 S    
C13   N1    1.457302 S    
C130  C139  1.402454 A    
C48   H28   1.083192 S    
C68   C72   1.389446 A    
C59   C63   1.403023 A    
N4    O55   1.300166 A    
C184  C186  1.397708 A    
C146  C149  1.398597 A    
O5    Zn3   2.016477 S    
C75   C79   1.401060 A    
C157  F5    1.357898 S    
N6    O59   1.301464 A    
C168  C176  1.403769 A    
O19   C114  1.285225 A    
C15   C19   1.519299 S    
C58   H34   1.082994 S    
C133  C137  1.399740 A    
O8    C4    1.286406 A    
C31   H15   1.110208 S    
C160  C162  1.402661 A    
O25   C115  1.274511 A    
O21   C115  1.273746 A    
C93   C97   1.402692 A    
O7    C3    1.286404 A    
C131  C140  1.400573 A    
C147  C150  1.405515 A    
C9    C37   1.533201 S    
C10   C14   1.530980 S    
O13   Zn3   2.016891 S    
C84   H52   1.083129 S    
C12   C40   1.533199 S    
C56   C60   1.389405 A    
C194  H102  1.083065 S    
C191  H99   1.083190 S    
C83   C87   1.402450 A    
C65   H37   1.083141 S    
C169  H89   1.083448 S    
C179  C181  1.394247 A    
C67   H39   1.083135 S    
C106  F2    1.357816 S    
C72   H44   1.083345 S    
C168  C172  1.388696 A    
C89   C109  1.401011 A    
O32   C120  1.286459 A    
O15   Zn4   2.016891 S    
C17   C29   1.536427 S    
O40   C126  1.286940 A    
C19   C31   1.536440 S    
C4    C100  1.462054 S    
O26   Zn5   2.017349 S    
C172  C174  1.398517 A    
C21   H5    1.110209 S    
C92   C96   1.389179 A    
C153  C157  1.390685 A    
C60   H36   1.082998 S    
C18   C116  1.437558 S    
C192  C196  1.388694 A    
C155  C159  1.390417 A    
C62   C124  1.462166 S    
N7    O62   1.301373 A    
Zn11  O47   2.015797 S    
C36   H20   1.110251 S    
O47   C128  1.287375 A    
C136  C138  1.404748 A    
O14   C6    1.273981 A    
C10   C22   1.551817 S    
Zn6   O30   2.015866 S    
C92   C112  1.401012 A    
C15   N3    1.457303 S    
O45   C127  1.287361 A    
C141  C151  1.398629 A    
O22   Zn6   2.017553 S    
O43   C125  1.286799 A    
O10   C6    1.272772 A    
C80   C84   1.389178 A    
C97   C101  1.403184 A    
C132  H68   1.083320 S    
C45   H25   1.083187 S    
C143  C145  1.390270 A    
C107  C111  1.403572 A    
C71   C75   1.401073 A    
C47   H27   1.083192 S    
C129  H65   1.083245 S    
C179  C188  1.415806 A    
C130  C134  1.390608 A    
C93   H57   1.082992 S    
C44   C48   1.389297 A    
C47   C51   1.401601 A    
C185  C199  1.464051 S    
O30   C119  1.286461 A    
C41   H21   1.082997 S    
C96   H60   1.082995 S    
O2    C2    1.285970 A    
C34   C38   1.533621 S    
C107  F3    1.357821 S    
O19   Zn7   2.015487 S    
O36   C122  1.284479 A    
C57   C61   1.403023 A    
C26   C30   1.547358 S    
O28   Zn7   2.017349 S    
C189  C193  1.388694 A    
C108  C112  1.403572 A    
O42   Zn9   2.018661 S    
C137  C151  1.457271 S    
O31   C120  1.286461 A    
C122  C176  1.459768 S    
C138  C152  1.472492 S    
C169  C173  1.398523 A    
N3    O53   1.300166 A    
C196  H104  1.083067 S    
C55   C59   1.389409 A    
C102  H62   1.083068 S    
C90   H54   1.083431 S    
C101  C105  1.389811 A    
C50   C86   1.464299 S    
C167  C171  1.388696 A    
C104  C108  1.389811 A    
C178  C187  1.415816 A    
C91   C95   1.389179 A    
C5    C37   1.435846 S    
C80   H48   1.083240 S    
C68   H40   1.083137 S    
C41   C45   1.389301 A    
C96   C100  1.402691 A    
C7    C39   1.435844 S    
O23   C117  1.273739 A    
C8    C40   1.435844 S    
C11   C23   1.551823 S    
C145  H77   1.083490 S    
C12   C24   1.551823 S    
C17   C115  1.437558 S    
C46   H26   1.083187 S    
C159  C162  1.402656 A    
C74   C110  1.462042 S    
O12   Zn2   2.017108 S    
C25   C37   1.534231 S    
C170  H90   1.083448 S    
C147  H79   1.082592 S    
C33   H17   1.110252 S    
C148  H80   1.082592 S    
C27   C39   1.534223 S    
C74   C78   1.401060 A    
C35   H19   1.110251 S    
C29   C33   1.549798 S    
C23   C27   1.546822 S    
C154  C163  1.399158 A    
C119  C197  1.459803 S    
C42   H22   1.082995 S    
C141  H73   1.083479 S    
C32   C36   1.549788 S    
C143  H75   1.082580 S    
C133  H69   1.083450 S    
Zn5   O29   2.015866 S    
O35   Zn11  2.015905 S    
C14   N2    1.457304 S    
C182  H94   1.083409 S    
C90   C94   1.389179 A    
C91   C111  1.401012 A    
C44   C64   1.403112 A    
C177  C183  1.394247 A    
O1    C1    1.285970 A    
C64   C126  1.462166 S    
C24   H8    1.110211 S    
N8    O64   1.301373 A    
Zn9   O45   2.015797 S    
C10   C38   1.533201 S    
C28   C40   1.534223 S    
C11   C15   1.530979 S    
C54   C58   1.389404 A    
C165  C175  1.403771 A    
C56   H32   1.083192 S    
N5    O57   1.301466 A    
C195  C198  1.402484 A    
C73   C77   1.401062 A    
C82   C86   1.402454 A    
C67   C71   1.389446 A    
O38   Zn10  2.016605 S    
O41   C123  1.286797 A    
C186  C200  1.464047 S    
C76   C80   1.401059 A    
C65   C69   1.389446 A    
O6    C2    1.286406 A    
O4    Zn2   2.017242 S    
C121  C175  1.459768 S    
C177  N5    1.440693 S    
C159  F7    1.357999 S    
O33   Zn9   2.015905 S    
C178  C184  1.394247 A    
C196  C198  1.402485 A    
C42   C46   1.389301 A    
C113  C161  1.456641 S    
C78   C82   1.389177 A    
Zn12  O48   2.015798 S    
C156  C164  1.404164 A    
O40   Zn12  2.016605 S    
C129  C139  1.402449 A    
O43   Zn12  2.018661 S    
O2    Zn1   2.017242 S    
O10   Zn1   2.017108 S    
C189  H97   1.083189 S    
N4    O56   1.299800 A    
O41   Zn10  2.018661 S    
C154  C158  1.390685 A    
C34   H18   1.110252 S    
O29   C119  1.286461 A    
Zn10  O46   2.015798 S    
C156  H84   1.082696 S    
O36   Zn12  2.015906 S    
N6    O60   1.301377 A    
C9    H1    1.110260 S    
C120  C198  1.459811 S    
C191  C195  1.388690 A    
C81   C85   1.402454 A    
O13   C5    1.273982 A    
C20   C24   1.535302 S    
C84   C88   1.402452 A    
C32   H16   1.110208 S    
C184  H96   1.083407 S    
C77   C81   1.389177 A    
N7    O61   1.301464 A    
O24   Zn8   2.017553 S    
C79   H47   1.083240 S    
C132  C140  1.400578 A    
C158  C161  1.404536 A    
C156  C160  1.390417 A    
O27   Zn8   2.017350 S    
C180  C182  1.394247 A    
C103  H63   1.083065 S    
N1    O50   1.299798 A    
C130  H66   1.083245 S    
C192  H100  1.083190 S    
O37   C123  1.286946 A    
C20   C32   1.536440 S    
C177  C187  1.415811 A    
C165  C169  1.388696 A    
C192  C200  1.401768 A    
C166  C175  1.403768 A    
O16   C8    1.273975 A    
N3    O54   1.299800 A    
O17   C113  1.285225 A    
C181  H93   1.083409 S    
C142  C151  1.398625 A    
O17   Zn5   2.015487 S    
O46   C127  1.287363 A    
C57   H33   1.082994 S    
O11   C7    1.272780 A    
C181  C185  1.397702 A    
C90   C110  1.401011 A    
O12   C8    1.272779 A    
C65   C85   1.402508 A    
O1    Zn1   2.017238 S    
O9    Zn1   2.017102 S    
C23   H7    1.110211 S    
C22   C26   1.546819 S    
C190  H98   1.083189 S    
C99   C103  1.403181 A    
C53   H29   1.083190 S    
C73   C109  1.462042 S    
C141  C147  1.390275 A    
C18   C30   1.536431 S    
C142  C148  1.390275 A    
C127  C139  1.458372 S    
C101  H61   1.083064 S    
C128  C140  1.458477 S    
O11   Zn2   2.017102 S    
C166  C170  1.388696 A    
C66   C70   1.389446 A    
O28   C118  1.274518 A    
C95   H59   1.082995 S    
C168  H88   1.082982 S    
C170  C173  1.398522 A    
C45   C49   1.401600 A    
C49   C85   1.464299 S    
C66   H38   1.083138 S    
O37   Zn9   2.016597 S    
C105  C109  1.403573 A    
C160  F8    1.357999 S    
C52   C88   1.464299 S    
C71   H43   1.083345 S    
O6    Zn3   2.016477 S    
C136  H72   1.082626 S    
C189  C199  1.401763 A    
O18   C113  1.285222 A    
C21   C25   1.546815 S    
C76   C112  1.462042 S    
C41   C61   1.403107 A    
O39   C125  1.286944 A    
C146  H78   1.083490 S    
C26   C38   1.534231 S    
C19   C117  1.437558 S    
C48   C52   1.401601 A    
C30   C34   1.549798 S    
C180  C188  1.415811 A    
C13   C33   1.532194 S    
C142  H74   1.083479 S    
C191  C200  1.401765 A    
C29   H13   1.110210 S    
O14   Zn3   2.016898 S    
C16   C36   1.532194 S    
C103  C107  1.389811 A    
C134  H70   1.083450 S    
O34   C121  1.284477 A    
C16   N4    1.457303 S    
O44   C126  1.286799 A    
C89   C93   1.389179 A    
C183  H95   1.083407 S    
C11   H3    1.110259 S    
C54   H30   1.083190 S    
C12   H4    1.110259 S    
C193  H101  1.083065 S    
C106  C110  1.403573 A    
C144  C152  1.405531 A    
O35   C122  1.284477 A    
C3    C99   1.462054 S    
O33   C121  1.284475 A    
C82   H50   1.083128 S    
O38   C124  1.286942 A    
O42   C124  1.286797 A    
C59   H35   1.082994 S    
C46   C50   1.401600 A    
C183  C186  1.397704 A    
C49   C53   1.401698 A    
C28   C32   1.547361 S    
C145  C149  1.398601 A    
