data_mof_unit_12691.cif
_audit_creation_date              2012-12-11T14:34:39-0500
_audit_creation_method            fapswitch 2.2
_symmetry_space_group_name_H-M    P1
_symmetry_Int_Tables_number       1
_space_group_crystal_system       triclinic
_cell_length_a                    8.459673
_cell_length_b                    14.940496
_cell_length_c                    16.419774
_cell_angle_alpha                 109.491488
_cell_angle_beta                  97.097195
_cell_angle_gamma                 79.828365
_cell_volume                      1920.96382845

loop_
_atom_site_label
_atom_site_type_symbol
_atom_type_description
_atom_site_fract_x
_atom_site_fract_y
_atom_site_fract_z
_atom_type_partial_charge
Ba1   Ba    Ba6+2 0.364960 0.465930 0.541880 1.723396
Ba2   Ba    Ba6+2 0.824870 0.533990 0.458110 1.709117
C1    C     C_3   0.343742 0.172914 0.758824 -0.264291
C2    C     C_3   0.244653 0.261400 0.741320 0.634409
C3    C     C_3   0.010481 0.725059 0.723430 0.313404
C4    C     C_3   0.015957 0.772207 0.821176 -0.253630
C5    C     C_3   0.465324 0.691685 0.221201 0.239938
C6    C     C_3   0.536784 0.629902 0.135924 -0.324373
C7    C     C_3   0.878903 0.742105 0.234096 0.738329
C8    C     C_3   0.773037 0.810747 0.189675 -0.246539
C9    C     C_2   0.301093 0.487235 0.246415 -0.271627
C10   C     C_R   0.891892 0.530828 0.753352 -0.306620
C11   C     C_2   0.489300 0.394117 0.136028 -0.099069
C12   C     C_3   0.645719 0.300800 0.764001 0.370782
C13   C     C_2   0.457138 0.426166 0.220109 0.015358
C14   C     C_2   0.179134 0.499852 0.187595 0.021753
C15   C     C_3   0.200333 0.446519 0.091478 -0.057044
C16   C     C_3   0.376314 0.423775 0.067834 0.002512
C17   C     C_2   0.076690 0.476079 0.025977 0.392362
C18   C     C_2   0.111167 0.515082 0.967631 -0.048286
C19   C     C_R   0.838636 0.592947 0.928535 0.124638
C20   C     C_R   0.988184 0.539968 0.901926 -0.036540
C21   C     C_R   0.716797 0.614569 0.869344 0.281823
C22   C     C_R   0.741215 0.581361 0.780211 -0.014049
C23   C     C_3   0.649970 0.282662 0.852220 0.329299
C24   C     C_R   0.016723 0.511924 0.813289 0.079334
C25   C     C_R   0.261023 0.759222 0.472032 -0.191921
C26   C     C_R   0.340244 0.811410 0.436727 0.073066
C27   C     C_R   0.272106 0.904939 0.440542 -0.021173
C28   C     C_R   0.126863 0.948741 0.481745 0.046285
C29   C     C_R   0.056357 0.895903 0.521163 -0.100886
C30   C     C_R   0.119800 0.801630 0.514710 0.030332
C31   C     C_R   0.894188 0.086527 0.515182 -0.148421
C32   C     C_R   0.834442 0.183721 0.532399 0.084785
C33   C     C_R   0.071635 0.207042 0.477960 0.043972
C34   C     C_3   0.726217 0.227311 0.334047 0.303636
C35   C     C_R   0.137948 0.111867 0.467522 -0.118655
C36   C     C_R   0.051913 0.049570 0.487205 -0.009245
C37   C     C_R   0.922751 0.243444 0.512846 -0.214117
C38   C     C_3   0.765725 0.118419 0.299915 -0.354931
C39   C     C_3   0.477056 0.766463 0.652242 0.330740
C40   C     C_3   0.448156 0.875602 0.675966 0.266535
C41   C     C_3   0.184386 0.296888 0.279755 0.277534
C42   C     C_3   0.191054 0.247918 0.182556 -0.315340
H1    H     H_    0.264425 0.257244 0.674406 -0.013085
H2    H     H_    0.822889 0.096063 0.237462 0.160997
H3    H     H_    0.850384 0.091511 0.346233 0.074944
H4    H     H_    0.653937 0.085537 0.289731 0.118527
H5    H     H_    0.360468 0.738592 0.634774 -0.012049
H6    H     H_    0.553134 0.737127 0.596070 -0.027042
H7    H     H_    0.392634 0.897245 0.619430 -0.084815
H8    H     H_    0.564593 0.904067 0.696152 0.098888
H9    H     H_    0.301460 0.321579 0.306818 0.012486
H10   H     H_    0.086755 0.359202 0.291731 0.065439
H11   H     H_    0.466444 0.163905 0.739918 0.111325
H12   H     H_    0.287821 0.185142 0.169238 0.144508
H13   H     H_    0.216430 0.297918 0.150937 0.076848
H14   H     H_    0.073884 0.223319 0.154295 0.153693
H15   H     H_    0.299574 0.105732 0.717648 0.117463
H16   H     H_    0.888515 0.704982 0.700632 -0.014749
H17   H     H_    0.102168 0.659657 0.708610 0.039553
H18   H     H_    0.924151 0.837348 0.838279 0.155628
H19   H     H_    0.990832 0.721700 0.852774 0.023421
H20   H     H_    0.137132 0.792752 0.845730 0.191261
H21   H     H_    0.344082 0.178111 0.827925 0.197272
H22   H     H_    0.419675 0.640391 0.244407 0.083444
H23   H     H_    0.373778 0.745797 0.205147 0.195532
H24   H     H_    0.621124 0.567932 0.145076 0.187657
H25   H     H_    0.438419 0.600934 0.088627 0.080940
H26   H     H_    0.594565 0.670401 0.105665 0.181434
H27   H     H_    0.850169 0.759512 0.302202 0.045991
H28   H     H_    0.791712 0.886271 0.224253 0.108360
H29   H     H_    0.642638 0.812158 0.188278 0.099989
H30   H     H_    0.526080 0.335288 0.748065 -0.022885
H31   H     H_    0.803726 0.791589 0.121447 0.159790
H32   H     H_    0.601671 0.348212 0.116106 0.145373
H33   H     H_    0.283249 0.517511 0.315103 0.080622
H34   H     H_    0.913822 0.508529 0.685427 0.093597
H35   H     H_    0.233611 0.526903 0.966432 0.064975
H36   H     H_    0.818092 0.042860 0.528175 0.089918
H37   H     H_    0.333344 0.940666 0.409411 0.057486
H38   H     H_    0.255702 0.088443 0.443001 0.089599
H39   H     H_    0.723280 0.355712 0.772042 0.075857
H40   H     H_    0.954454 0.927088 0.559888 0.091117
H41   H     H_    0.873888 0.318155 0.523559 0.071859
H42   H     H_    0.312370 0.686609 0.468941 0.044592
H43   H     H_    0.710644 0.337736 0.901321 0.108201
H44   H     H_    0.527875 0.296421 0.874618 -0.003269
H45   H     H_    0.840103 0.258202 0.347454 0.019642
H46   H     H_    0.661128 0.248363 0.393908 0.009364
O1    O     O_2   0.426270 0.593440 0.713420 -0.423416
O2    O     O_3   0.153332 0.229738 0.315791 -0.626586
O3    O     O_3   0.689718 0.216368 0.695743 -0.512772
O4    O     O_2   0.763420 0.406520 0.286530 -0.457215
O5    O     O_3   0.541980 0.429670 0.395140 -0.505892
O6    O     O_3   0.985790 0.582400 0.342040 -0.468708
O7    O     O_3   0.628343 0.257305 0.270581 -0.622336
O8    O     O_3   0.119470 0.618230 0.545790 -0.498865
O9    O     O_3   0.574000 0.638040 0.386500 -0.472051
O10   O     O_2   0.674882 0.804852 0.444428 -0.496586
O11   O     O_3   0.572584 0.745087 0.282297 -0.625635
O12   O     O_3   0.647730 0.570260 0.604850 -0.513773
O13   O     O_3   0.070240 0.381690 0.454200 -0.501345
O14   O     O_2   0.845720 0.730180 0.545110 -0.461361
O15   O     O_3   0.043813 0.790385 0.685393 -0.582542
O16   O     O_2   0.875316 0.474000 0.195594 -0.426921
O17   O     O_3   0.865656 0.644786 0.185618 -0.617767
O18   O     O_3   0.203920 0.417520 0.657950 -0.486197
O19   O     O_2   0.343039 0.514004 0.808691 -0.457156
O20   O     O_3   0.554854 0.742240 0.723822 -0.579209
O21   O     O_3   0.286698 0.346468 0.803731 -0.637796
O22   O     O_2   0.343970 0.269780 0.454840 -0.463745
O23   O     O_3   0.615710 0.361880 0.613490 -0.491823
O24   O     O_2   0.505610 0.190879 0.553296 -0.521694
P1    P     P_3+3 0.589930 0.617420 0.700180 1.064653
P2    P     P_3+3 0.161520 0.277720 0.428790 0.986911
P3    P     P_3+3 0.656919 0.237960 0.595586 1.041506
P4    P     P_3+3 0.599780 0.382500 0.299810 0.986560
P5    P     P_3+3 0.535116 0.755499 0.387742 0.983303
P6    P     P_3+3 0.212287 0.448123 0.770961 1.029067
P7    P     P_3+3 0.030495 0.738140 0.572703 0.989388
P8    P     P_3+3 0.978059 0.556013 0.229341 1.068964
Cl1   Cl    Cl    0.317974 0.927720 0.762422 -0.583262
S1    S     S_3+6 0.042189 0.258149 0.749837 -0.086173
O25   O     O_2   0.004346 0.308004 0.842364 -0.241335
O26   O     O_2   0.949717 0.313651 0.694308 -0.438505
O27   O     O_3   0.998873 0.145491 0.718618 -0.421559
H47   H     H_    0.050176 0.112061 0.663701 0.298615
S2    S     S_3+6 0.743307 0.167445 0.861269 0.031935
O28   O     O_2   0.651591 0.144245 0.922643 -0.287072
O29   O     O_2   0.741413 0.088040 0.776029 -0.237741
O30   O     O_3   0.934322 0.173194 0.903053 -0.392283
H48   H     H_    0.977009 0.107677 0.904846 0.378000
S3    S     S_3+6 0.073045 0.764983 0.234641 -0.179352
O31   O     O_2   0.084596 0.870387 0.271164 -0.326378
O32   O     O_2   0.173898 0.713645 0.290917 -0.475710
O33   O     O_3   0.124878 0.722791 0.131547 -0.536606
H49   H     H_    0.160111 0.653555 0.120810 0.298447
Cl2   Cl    Cl    0.538352 0.686311 0.910873 -0.624572
Cl3   Cl    Cl    0.886756 0.441067 0.018439 -0.661688

loop_
_geom_bond_atom_site_label_1
_geom_bond_atom_site_label_2
_ccdc_geom_bond_type
C34   H45   S    
O8    P7    S    
C38   H3    S    
C39   C40   S    
O18   P6    S    
C17   C18   D    
C23   S2    S    
S3    O33   S    
Ba2   P4    S    
C5    C6    S    
C3    O15   S    
C38   H2    S    
C28   C36   S    
C6    H25   S    
C35   C36   A    
Ba1   O23   S    
C11   C16   S    
C12   H30   S    
C21   Cl2   S    
Ba2   O5    S    
C33   C35   A    
C24   P6    S    
Ba1   O22   S    
C28   C29   A    
C8    H29   S    
Ba2   O12   S    
C23   H43   S    
C2    S1    S    
Ba1   Ba2   S    
C8    H31   S    
C4    H20   S    
O7    P4    S    
C14   P8    S    
O12   P1    S    
C9    H33   S    
C1    H11   S    
C41   H9    S    
C42   H14   S    
C14   C15   S    
C10   H34   S    
C21   C22   A    
C34   O7    S    
Ba1   P2    S    
Ba2   O14   S    
C7    C8    S    
Ba1   O13   S    
C12   O3    S    
C3    H16   S    
C40   H7    S    
S2    O30   S    
C7    S3    S    
C32   P3    S    
Ba1   O1    S    
C19   C20   A    
C1    H21   S    
O3    P3    S    
C12   H39   S    
C39   H5    S    
C40   Cl1   S    
C31   C32   A    
C2    H1    S    
O5    P4    S    
O15   P7    S    
C32   C37   A    
O11   P5    S    
C34   C38   S    
C17   Cl3   S    
S3    O32   D    
O14   P7    D    
O9    P5    S    
C23   H44   S    
C29   H40   S    
C10   C24   A    
O21   P6    S    
C4    H19   S    
C25   H42   S    
C33   C37   A    
C41   C42   S    
C27   H37   S    
C27   C28   A    
C9    C14   D    
C42   H12   S    
C41   H10   S    
C29   C30   A    
C11   H32   S    
Ba2   O4    S    
C42   H13   S    
Ba1   O5    S    
O16   P8    D    
C15   C16   S    
C3    H17   S    
C33   P2    S    
O10   P5    D    
O2    P2    S    
S1    O27   S    
O23   P3    S    
C41   O2    S    
C2    O21   S    
C18   C20   S    
Ba2   O9    S    
C6    H24   S    
C9    C13   S    
C39   O20   S    
C11   C13   D    
C5    O11   S    
C35   H38   S    
C8    H28   S    
C37   H41   S    
O27   H47   S    
C39   H6    S    
O22   P2    D    
S1    O26   D    
S2    O28   D    
C34   H46   S    
C38   H4    S    
C26   C27   A    
C18   H35   S    
C25   C30   A    
C30   P7    S    
C7    H27   S    
C26   P5    S    
Ba1   O8    S    
C31   H36   S    
S3    O31   D    
C7    O17   S    
O33   H49   S    
C10   C22   A    
C6    H26   S    
C31   C36   A    
C13   P4    S    
O6    P8    S    
C4    H18   S    
C19   C21   A    
O13   P2    S    
C5    H22   S    
O4    P4    D    
C3    C4    S    
Ba2   O13   S    
O20   P1    S    
Ba2   O6    S    
C15   C17   S    
O1    P1    D    
O30   H48   S    
C12   C23   S    
O24   P3    D    
Ba1   O18   S    
C5    H23   S    
Ba2   O8    S    
C22   P1    S    
C20   C24   A    
C25   C26   A    
Ba1   P1    S    
O17   P8    S    
Ba1   O12   S    
C1    C2    S    
O19   P6    D    
C40   H8    S    
S1    O25   D    
S2    O29   D    
C1    H15   S    
