data_mof_unit_7830.cif
_audit_creation_date              2012-12-10T17:57:53-0500
_audit_creation_method            fapswitch 2.2
_symmetry_space_group_name_H-M    P1
_symmetry_Int_Tables_number       1
_space_group_crystal_system       triclinic
_cell_length_a                    10.913204
_cell_length_b                    9.672145
_cell_length_c                    15.19445
_cell_angle_alpha                 89.999621
_cell_angle_beta                  92.323912
_cell_angle_gamma                 90.000037
_cell_volume                      1602.5173054

loop_
_atom_site_label
_atom_site_type_symbol
_atom_type_description
_atom_site_fract_x
_atom_site_fract_y
_atom_site_fract_z
_atom_type_partial_charge
C1    C     C_R   0.262467 0.500387 0.499772 0.743574
C2    C     C_R   0.737533 0.500387 0.500228 0.743583
C3    C     C_R   0.276392 0.496960 0.038448 0.201439
C4    C     C_R   0.723611 0.496955 0.961552 0.201440
C5    C     C_R   0.063394 0.377264 0.500862 -0.207242
C6    C     C_R   0.936269 0.627580 0.500236 -0.187453
C7    C     C_R   0.936606 0.377264 0.499148 -0.207240
C8    C     C_R   0.063731 0.627579 0.499756 -0.187448
C9    C     C_R   0.871823 0.501911 0.499976 -0.025208
C10   C     C_R   0.128177 0.501911 0.500024 -0.025198
C11   C     C_R   0.423366 0.072641 0.442937 0.286667
C12   C     C_R   0.565379 0.925931 0.563036 0.291441
C13   C     C_R   0.576630 0.072639 0.557065 0.286647
C14   C     C_R   0.434617 0.925934 0.436966 0.291421
C15   C     C_R   0.498243 0.499788 0.328961 0.874079
C16   C     C_R   0.501758 0.499787 0.671039 0.874085
C17   C     C_R   0.611196 0.528598 0.818305 0.176196
C18   C     C_R   0.388807 0.528604 0.181695 0.176200
C19   C     C_R   0.502598 0.498729 0.768143 -0.165336
C20   C     C_R   0.497404 0.498732 0.231857 -0.165336
C21   C     C_R   0.395061 0.464529 0.811747 0.189997
C22   C     C_R   0.604942 0.464530 0.188253 0.189996
C23   C     C_R   0.390160 0.489411 0.903235 -0.012908
C24   C     C_R   0.609843 0.489410 0.096766 -0.012906
C25   C     C_R   0.500734 0.502015 0.953542 -0.099815
C26   C     C_R   0.499270 0.502016 0.046458 -0.099814
C27   C     C_R   0.612965 0.509367 0.910880 -0.004094
C28   C     C_R   0.387038 0.509371 0.089119 -0.004094
C29   C     C_R   0.277878 0.493889 0.945828 0.201001
C30   C     C_R   0.722125 0.493886 0.054172 0.201000
Cu1   Cu    Cu3+1 0.500000 0.640660 0.500000 0.935982
Cu2   Cu    Cu3+1 0.500000 0.359340 0.500000 0.936669
H1    H     H_    0.110602 0.279544 0.504298 0.159823
H2    H     H_    0.888494 0.725717 0.500607 0.147312
H3    H     H_    0.889399 0.279544 0.495719 0.159827
H4    H     H_    0.111505 0.725716 0.499378 0.147317
N1    N     N_R   0.500000 0.852070 0.500000 -0.260617
N2    N     N_R   0.500000 0.147930 0.500000 -0.269987
O1    O     O_R   0.319640 0.618740 0.499990 -0.600517
O2    O     O_R   0.680360 0.381260 0.500010 -0.589419
O3    O     O_R   0.680360 0.618740 0.500010 -0.600504
O4    O     O_R   0.319640 0.381260 0.499990 -0.589417
O5    O     O_R   0.499970 0.618800 0.370260 -0.570277
O6    O     O_R   0.500030 0.381200 0.629740 -0.587781
O7    O     O_R   0.500030 0.618800 0.629740 -0.570237
O8    O     O_R   0.499970 0.381200 0.370260 -0.587778
N3    N     N_2   0.711675 0.594839 0.778139 -0.428219
H5    H     H_    0.758163 0.668286 0.815697 0.257048
C31   C     C_3   0.788310 0.513418 0.722658 -0.637322
H6    H     H_    0.880281 0.498078 0.754761 0.236664
H7    H     H_    0.802172 0.572025 0.661790 0.206922
H8    H     H_    0.747497 0.411101 0.707078 0.215245
N4    N     N_2   0.288328 0.594845 0.221859 -0.428219
H9    H     H_    0.241841 0.668291 0.184300 0.257048
C32   C     C_3   0.211692 0.513426 0.277340 -0.637321
H10   H     H_    0.119720 0.498091 0.245239 0.236662
H11   H     H_    0.197834 0.572031 0.338209 0.206924
H12   H     H_    0.252502 0.411106 0.292919 0.215244
N5    N     N_2   0.304598 0.378686 0.769003 -0.416442
H13   H     H_    0.267049 0.302646 0.807183 0.252041
C33   C     C_3   0.219852 0.440381 0.705256 -0.599787
H14   H     H_    0.127103 0.448628 0.731996 0.228120
H15   H     H_    0.212024 0.369535 0.648523 0.227192
H16   H     H_    0.250336 0.544546 0.684438 0.216418
N6    N     N_2   0.695405 0.378689 0.231001 -0.416440
H17   H     H_    0.732955 0.302648 0.192822 0.252042
C34   C     C_3   0.780154 0.440389 0.294743 -0.599790
H18   H     H_    0.872900 0.448639 0.268001 0.228122
H19   H     H_    0.787990 0.369545 0.351477 0.227190
H20   H     H_    0.749668 0.544553 0.315560 0.216418
N7    N     N_2   0.166190 0.503836 0.895063 -0.431247
H21   H     H_    0.098100 0.439037 0.914759 0.254435
C35   C     C_3   0.126345 0.644105 0.877180 -0.734798
H22   H     H_    0.042919 0.642776 0.832939 0.228419
H23   H     H_    0.198985 0.702287 0.843787 0.246539
H24   H     H_    0.104541 0.697558 0.939349 0.211556
N8    N     N_2   0.833814 0.503835 0.104937 -0.431247
H25   H     H_    0.901904 0.439037 0.085240 0.254434
C36   C     C_3   0.873657 0.644106 0.122817 -0.734795
H26   H     H_    0.957085 0.642779 0.167056 0.228416
H27   H     H_    0.801017 0.702286 0.156212 0.246538
H28   H     H_    0.895456 0.697560 0.060647 0.211556
N9    N     N_2   0.165520 0.468461 0.080735 -0.427663
H29   H     H_    0.089993 0.519603 0.054580 0.252697
C37   C     C_3   0.145176 0.322532 0.096151 -0.724419
H30   H     H_    0.065488 0.308564 0.138282 0.218834
H31   H     H_    0.226384 0.275653 0.131176 0.250614
H32   H     H_    0.126859 0.267610 0.032767 0.212824
N10   N     N_2   0.834484 0.468457 0.919265 -0.427663
H33   H     H_    0.910010 0.519600 0.945420 0.252697
C38   C     C_3   0.854828 0.322528 0.903850 -0.724417
H34   H     H_    0.934519 0.308561 0.861721 0.218830
H35   H     H_    0.773622 0.275651 0.868823 0.250616
H36   H     H_    0.873143 0.267605 0.967235 0.212824
N11   N     N_2   0.332443 0.138350 0.386914 -0.401170
H37   H     H_    0.338456 0.242067 0.378449 0.302443
C39   C     C_3   0.206778 0.091171 0.393222 -0.726594
H38   H     H_    0.188916 0.999741 0.350809 0.250713
H39   H     H_    0.142451 0.172804 0.368634 0.212726
H40   H     H_    0.186597 0.065158 0.462399 0.216288
N12   N     N_2   0.623171 0.857492 0.636205 -0.399040
H41   H     H_    0.673169 0.769120 0.627391 0.292888
C40   C     C_3   0.583686 0.891579 0.723653 -0.622487
H42   H     H_    0.664966 0.917202 0.766813 0.212697
H43   H     H_    0.535644 0.802312 0.752177 0.233358
H44   H     H_    0.519842 0.981188 0.722670 0.219996
N13   N     N_2   0.667551 0.138345 0.613090 -0.401168
H45   H     H_    0.661542 0.242063 0.621549 0.302450
C41   C     C_3   0.793215 0.091161 0.606787 -0.726651
H46   H     H_    0.811067 0.999721 0.649192 0.250704
H47   H     H_    0.857544 0.172786 0.631385 0.212736
H48   H     H_    0.813403 0.065162 0.537610 0.216293
N14   N     N_2   0.376810 0.857500 0.363800 -0.399081
H49   H     H_    0.326865 0.769095 0.372617 0.292941
C42   C     C_3   0.416296 0.891583 0.276352 -0.622524
H50   H     H_    0.335014 0.917162 0.233184 0.212702
H51   H     H_    0.464371 0.802330 0.247841 0.233363
H52   H     H_    0.480109 0.981219 0.277327 0.220009

loop_
_geom_bond_atom_site_label_1
_geom_bond_atom_site_label_2
_ccdc_geom_bond_type
C32   H10   S    
N12   H41   S    
C11   N2    A    
C42   H51   S    
C35   H22   S    
N11   H37   S    
C13   N13   S    
C4    C27   A    
C6    C9    A    
C39   H38   S    
N3    C31   S    
N4    H9    S    
Cu1   O5    S    
C23   C29   A    
C3    C28   A    
C19   C21   A    
C24   C26   A    
N14   H49   S    
C41   H47   S    
C11   C14   A    
C2    O3    A    
C42   H50   S    
C33   H15   S    
C8    H4    S    
C12   N1    A    
C3    C29   A    
C18   N4    S    
C30   N8    S    
Cu1   Cu2   S    
C31   H7    S    
C5    H1    S    
N13   H45   S    
Cu2   N2    S    
N10   C38   S    
C16   O6    A    
N8    H25   S    
C31   H8    S    
N4    C32   S    
N5    H13   S    
N12   C40   S    
C35   H23   S    
C7    H3    S    
C5    C10   A    
C39   H39   S    
N8    C36   S    
C15   C20   S    
N5    C33   S    
C37   H31   S    
C34   H18   S    
C17   C27   A    
N3    H5    S    
C18   C28   A    
C41   H48   S    
C38   H34   S    
C36   H27   S    
C6    C8    A    
N6    C34   S    
C25   C26   A    
C37   H30   S    
C6    H2    S    
N14   C42   S    
C34   H19   S    
C33   H16   S    
C22   N6    S    
C2    O2    A    
C38   H35   S    
N9    H29   S    
C42   H52   S    
Cu2   O6    S    
C40   H43   S    
C13   N2    A    
N9    C37   S    
C20   C22   A    
C31   H6    S    
C32   H11   S    
C3    N9    S    
C35   H24   S    
C22   C24   A    
C39   H40   S    
C5    C7    A    
C4    N10   S    
C37   H32   S    
C11   N11   S    
C7    C9    A    
Cu1   O3    S    
Cu2   O8    S    
C1    C10   S    
C17   N3    S    
C16   O7    A    
C36   H28   S    
N11   C39   S    
C21   N5    S    
C25   C27   A    
C14   N14   S    
C26   C28   A    
C34   H20   S    
C21   C23   A    
C15   O5    A    
C12   N12   S    
C41   H46   S    
C38   H36   S    
N13   C41   S    
C16   C19   S    
C17   C19   A    
Cu1   O1    S    
C40   H44   S    
C18   C20   A    
Cu2   O2    S    
C33   H14   S    
C24   C30   A    
C1    O1    A    
C36   H26   S    
Cu1   N1    S    
C1    O4    A    
N7    H21   S    
C23   C25   A    
C12   C13   A    
C8    C10   A    
N6    H17   S    
Cu1   O7    S    
C32   H12   S    
N7    C35   S    
C40   H42   S    
Cu2   O4    S    
C15   O8    A    
C29   N7    S    
N10   H33   S    
C2    C9    S    
C4    C30   A    
C14   N1    A    
