data_mof_unit_58654.cif
_audit_creation_date              2012-12-11T14:17:48-0500
_audit_creation_method            fapswitch 2.2
_symmetry_space_group_name_H-M    P1
_symmetry_Int_Tables_number       1
_space_group_crystal_system       triclinic
_cell_length_a                    6.938115
_cell_length_b                    13.774699
_cell_length_c                    20.352158
_cell_angle_alpha                 101.930165
_cell_angle_beta                  89.970706
_cell_angle_gamma                 90.330527
_cell_volume                      1903.01984424

loop_
_atom_site_label
_atom_site_type_symbol
_atom_type_description
_atom_site_fract_x
_atom_site_fract_y
_atom_site_fract_z
_atom_type_partial_charge
O1    O     O_R   0.506860 0.599390 0.449240 -0.533755
O2    O     O_R   0.180220 0.594600 0.586780 -0.513123
O3    O     O_R   0.004500 0.400610 0.550760 -0.532690
C1    C     C_R   0.347767 0.614625 0.613943 0.760674
O4    O     O_R   0.177490 0.611290 0.451970 -0.548398
O5    O     O_R   0.001750 0.417420 0.414990 -0.531116
C2    C     C_R   0.346433 0.636579 0.434300 0.735084
O6    O     O_R   0.509610 0.582580 0.585010 -0.539176
O7    O     O_3   0.337420 0.436370 0.488020 -0.374561
V1    V     V_3+5 0.064680 0.511800 0.502220 1.605339
O8    O     O_R   0.671710 0.405400 0.413220 -0.541881
C3    C     C_R   0.840561 0.383919 0.386967 0.678057
O9    O     O_R   0.674440 0.388710 0.548030 -0.555028
C4    C     C_R   0.843109 0.364335 0.566758 0.732678
V2    V     V_3+5 0.564010 0.488200 0.497780 1.571575
O10   O     O_3   0.841140 0.563630 0.511980 -0.362086
C5    C     C_R   0.997432 0.124721 0.611820 0.460494
C6    C     C_R   0.857741 0.283676 0.604137 -0.321150
C7    C     C_R   0.803234 0.309118 0.925649 0.168672
C8    C     C_R   0.820513 0.388281 0.891300 0.298136
C9    C     C_R   0.870905 0.368634 0.823133 0.445000
C10   C     C_R   0.889600 0.268761 0.786658 -0.059892
C11   C     C_R   0.911203 0.194046 0.824428 -0.127852
C12   C     C_R   0.897454 0.241467 0.714644 -0.039310
C13   C     C_R   0.979993 0.148318 0.683274 -0.180279
C14   C     C_R   0.037120 0.082531 0.725064 0.475705
C15   C     C_R   0.987549 0.102338 0.792828 -0.173178
C16   C     C_R   0.815303 0.302229 0.673508 0.309588
C17   C     C_R   0.945387 0.193733 0.573265 0.306009
C18   C     C_R   0.862641 0.213906 0.893629 -0.129168
H1    H     H_    0.020955 0.046860 0.821684 0.161766
C19   C     C_2   0.973138 0.318392 0.274138 0.289354
C20   C     C_2   0.850854 0.307648 0.323925 0.239392
C21   C     C_2   0.999618 0.235978 0.213891 0.243221
C22   C     C_2   0.852464 0.202983 0.171255 0.259005
C23   C     C_2   0.205883 0.785139 0.784014 0.360148
C24   C     C_2   0.360321 0.800262 0.825615 0.149269
C25   C     C_2   0.203319 0.703077 0.722786 0.350031
C26   C     C_2   0.353483 0.686999 0.678843 -0.259652
H2    H     H_    0.482711 0.732428 0.689124 0.171685
C27   C     C_R   0.491897 0.879307 0.391761 0.480568
C28   C     C_R   0.360760 0.717832 0.398123 -0.347764
C29   C     C_R   0.336664 0.690735 0.076998 0.156996
C30   C     C_R   0.374678 0.615195 0.112588 0.290706
C31   C     C_R   0.408499 0.640316 0.181760 0.458917
C32   C     C_R   0.389683 0.740083 0.217573 -0.070677
C33   C     C_R   0.388264 0.817320 0.180547 -0.206476
C34   C     C_R   0.388977 0.765085 0.289174 0.007530
C35   C     C_R   0.443150 0.861693 0.322486 -0.294068
C36   C     C_R   0.434347 0.938739 0.286906 0.401781
C37   C     C_R   0.410321 0.917413 0.216864 0.325798
C38   C     C_R   0.318476 0.699399 0.328638 0.376208
C39   C     C_R   0.450129 0.807991 0.429423 0.367792
C40   C     C_R   0.361014 0.790496 0.109256 -0.137632
O11   O     O_R   0.203230 0.917310 0.915020 -0.526462
O12   O     O_R   0.535500 0.888690 0.048040 -0.544507
O13   O     O_R   0.711080 0.082610 0.085000 -0.500307
C41   C     C_R   0.366852 0.863148 0.065728 0.892014
O14   O     O_R   0.532630 0.905370 0.913230 -0.563513
O15   O     O_R   0.708190 0.099410 0.949230 -0.536469
C42   C     C_R   0.364057 0.880378 0.887862 0.689133
O16   O     O_R   0.206120 0.900510 0.050790 -0.535650
O17   O     O_3   0.375360 0.063570 0.011990 -0.348183
V3    V     V_3+5 0.648170 0.988200 0.997780 1.613771
O18   O     O_R   0.038240 0.111390 0.951940 -0.558582
C43   C     C_R   0.869991 0.135745 0.933313 0.781051
O19   O     O_R   0.041120 0.094710 0.086750 -0.511805
C44   C     C_R   0.871225 0.120606 0.111445 0.772082
V4    V     V_3+5 0.148810 0.011930 0.002180 1.640543
O20   O     O_3   0.871750 0.936430 0.988010 -0.387764
O21   O     O_3   0.979151 0.169219 0.504718 -0.570764
H3    H     H_    0.903904 0.212786 0.481410 0.290406
O22   O     O_3   0.742481 0.221635 0.317221 -0.601872
H4    H     H_    0.673770 0.223001 0.360095 0.333331
O23   O     O_3   0.179804 0.195320 0.200921 -0.575291
H5    H     H_    0.265026 0.223764 0.239271 0.382687
Cl1   Cl    Cl    0.629072 0.265975 0.180641 -0.486392
O24   O     O_3   0.043517 0.842950 0.800454 -0.636512
H6    H     H_    0.949810 0.826590 0.763011 0.344998
O25   O     O_3   0.515325 0.736278 0.810877 -0.630142
H7    H     H_    0.608617 0.748880 0.848497 0.339573
Cl2   Cl    Cl    0.992405 0.628385 0.711218 -0.576896
O26   O     O_3   0.500413 0.829677 0.496717 -0.561166
H8    H     H_    0.435060 0.783211 0.520679 0.297907
Cl3   Cl    Cl    0.407921 0.063426 0.331028 -0.523750
O27   O     O_3   0.593223 0.962267 0.423515 -0.545252
H9    H     H_    0.683261 0.981050 0.390331 0.338228
Cl4   Cl    Cl    0.182924 0.976992 0.699559 -0.592923
O28   O     O_3   0.199254 0.622052 0.298503 -0.596127
H10   H     H_    0.125683 0.596701 0.333008 0.332407
O29   O     O_3   0.286826 0.669555 0.009758 -0.637455
H11   H     H_    0.212984 0.606415 0.000249 0.320538
Cl5   Cl    Cl    0.519012 0.548218 0.218283 -0.501448
O30   O     O_3   0.390807 0.516682 0.080903 -0.593281
H12   H     H_    0.421453 0.512548 0.032916 0.305017
Cl6   Cl    Cl    0.418274 0.021039 0.178710 -0.527509
Cl7   Cl    Cl    0.070394 0.007755 0.564869 -0.409505
O31   O     O_3   0.689061 0.376534 0.702141 -0.597321
H13   H     H_    0.617642 0.401128 0.666963 0.315858
O32   O     O_3   0.740120 0.323225 0.991313 -0.617136
H14   H     H_    0.650892 0.380197 0.999885 0.327248
O33   O     O_3   0.924712 0.449259 0.796626 -0.544422
H15   H     H_    0.020764 0.426950 0.760682 0.322901
O34   O     O_3   0.801963 0.486449 0.923463 -0.596477
H16   H     H_    0.828924 0.492756 0.971932 0.305493
O35   O     O_3   0.086005 0.402944 0.281417 -0.630996
H17   H     H_    0.163591 0.398547 0.239976 0.362425

loop_
_geom_bond_atom_site_label_1
_geom_bond_atom_site_label_2
_ccdc_geom_bond_type
C41   O16   A    
C5    C17   A    
O22   H4    S    
C4    C6    S    
C7    C8    A    
C1    O6    A    
C31   Cl5   S    
C31   C32   A    
C27   O27   S    
C14   C15   A    
C23   C24   D    
V4    O20   S    
C28   C39   A    
O5    C3    A    
C25   C26   D    
O35   H17   S    
V2    O10   S    
O31   H13   S    
C21   C22   D    
C2    C28   S    
C36   Cl3   S    
O1    C2    A    
O8    V2    S    
O17   V4    S    
O12   V3    S    
O1    V2    S    
V3    O20   S    
O7    V1    S    
C37   Cl6   S    
O15   C43   A    
C19   O35   S    
O9    C4    A    
C25   Cl2   S    
C38   O28   S    
O33   H15   S    
C27   C35   A    
O34   H16   S    
C24   O25   S    
C32   C34   A    
O14   C42   A    
C15   H1    S    
O19   C44   A    
C11   C18   A    
C6    C16   A    
C12   C13   A    
O29   H11   S    
O4    C2    A    
O27   H9    S    
C33   C37   A    
C13   C14   A    
C22   Cl1   S    
C29   O29   S    
O16   V4    S    
O19   V4    S    
C19   C21   S    
O2    C1    A    
O23   H5    S    
C29   C40   A    
O26   H8    S    
C1    C26   S    
O8    C3    A    
C36   C37   A    
O14   V3    S    
C6    C17   A    
C18   C43   S    
C27   C39   A    
O11   V4    S    
O3    C4    A    
C33   C40   A    
C9    O33   S    
C20   O22   S    
C34   C35   A    
C35   C36   A    
O6    V2    S    
C11   C15   A    
O9    V2    S    
C29   C30   A    
C10   C12   A    
O13   C44   A    
O2    V1    S    
C26   H2    S    
C30   C31   A    
O13   V3    S    
C40   C41   S    
C16   O31   S    
C32   C33   A    
O24   H6    S    
C12   C16   A    
O25   H7    S    
O5    V1    S    
C24   C42   S    
C7    O32   S    
C8    O34   S    
C21   O23   S    
C39   O26   S    
O15   V3    S    
C5    C13   A    
C19   C20   D    
C23   C25   S    
O7    V2    S    
O4    V1    S    
O3    V1    S    
C23   O24   S    
C22   C44   S    
C3    C20   S    
O18   V4    S    
O11   C42   A    
O32   H14   S    
O12   C41   A    
O30   H12   S    
C30   O30   S    
O17   V3    S    
C34   C38   A    
O21   H3    S    
C8    C9    A    
C14   Cl4   S    
O18   C43   A    
C10   C11   A    
V1    O10   S    
O28   H10   S    
C9    C10   A    
C7    C18   A    
C5    Cl7   S    
C28   C38   A    
C17   O21   S    
