data_mof_unit_53280.cif
_audit_creation_date              2012-12-11T15:52:39-0500
_audit_creation_method            fapswitch 2.2
_symmetry_space_group_name_H-M    P1
_symmetry_Int_Tables_number       1
_space_group_crystal_system       triclinic
_cell_length_a                    6.924486
_cell_length_b                    14.562893
_cell_length_c                    16.006636
_cell_angle_alpha                 90.24928
_cell_angle_beta                  89.94287
_cell_angle_gamma                 89.951005
_cell_volume                      1614.10128164

loop_
_atom_site_label
_atom_site_type_symbol
_atom_type_description
_atom_site_fract_x
_atom_site_fract_y
_atom_site_fract_z
_atom_type_partial_charge
O1    O     O_R   0.494400 0.415640 0.412830 -0.541112
O2    O     O_R   0.823920 0.405510 0.586560 -0.551325
O3    O     O_R   0.994250 0.584360 0.587170 -0.541748
C1    C     C_R   0.654808 0.382814 0.615064 0.670100
O4    O     O_R   0.824110 0.404610 0.413450 -0.512961
O5    O     O_R   0.994440 0.583460 0.412820 -0.539251
C2    C     C_R   0.655383 0.381071 0.385155 0.717490
O6    O     O_R   0.494210 0.416540 0.587180 -0.541439
O7    O     O_3   0.660810 0.558680 0.500000 -0.373154
V1    V     V_3+5 0.935650 0.489110 0.500000 1.413168
O8    O     O_R   0.324150 0.594490 0.413440 -0.543723
C3    C     C_R   0.155093 0.616681 0.384367 0.691242
O9    O     O_R   0.323970 0.595390 0.586550 -0.545012
C4    C     C_R   0.155050 0.617783 0.615528 0.649352
V2    V     V_3+5 0.435660 0.510890 0.500000 1.391444
O10   O     O_3   0.160630 0.441320 0.500000 -0.365084
C5    C     C_3   0.046336 0.645475 0.764470 -0.318879
H1    H     H_    0.898274 0.621558 0.748416 0.136989
H2    H     H_    0.129470 0.584373 0.785477 0.123363
C6    C     C_3   0.033838 0.716656 0.836949 -0.322132
H3    H     H_    0.110996 0.689639 0.892630 0.124469
H4    H     H_    0.879926 0.726468 0.855025 0.139005
H5    H     H_    0.876994 0.752348 0.641413 0.140429
H6    H     H_    0.858678 0.857044 0.748212 0.137323
C7    C     C_3   0.025524 0.773387 0.659814 -0.319390
C8    C     C_3   0.349071 0.721182 0.712432 -0.316278
C9    C     C_3   0.144488 0.687816 0.686250 0.117092
H7    H     H_    0.423502 0.753030 0.658126 0.135953
H8    H     H_    0.438404 0.661730 0.732719 0.134662
C10   C     C_3   0.123211 0.809874 0.810621 0.114278
C11   C     C_3   0.013047 0.844534 0.732349 -0.322998
C12   C     C_3   0.336788 0.791889 0.784469 -0.307091
H9    H     H_    0.420500 0.765893 0.838815 0.138298
H10   H     H_    0.405582 0.857205 0.764245 0.133353
H11   H     H_    0.093462 0.805910 0.604305 0.123003
H12   H     H_    0.074949 0.911125 0.711524 0.125746
C13   C     C_R   0.953140 0.773944 0.216066 -0.160818
H13   H     H_    0.812253 0.792265 0.192021 0.116033
C14   C     C_R   0.964190 0.710767 0.281642 -0.152913
H14   H     H_    0.831265 0.682216 0.305909 0.118055
C15   C     C_R   0.143951 0.684723 0.315223 -0.049567
C16   C     C_R   0.312338 0.723707 0.281357 -0.159462
H15   H     H_    0.453224 0.705396 0.305410 0.115644
C17   C     C_R   0.301288 0.786887 0.215783 -0.154653
H16   H     H_    0.434211 0.815451 0.191526 0.117877
C18   C     C_R   0.121537 0.812862 0.182146 -0.048933
C19   C     C_R   0.812210 0.273258 0.715288 -0.167802
H17   H     H_    0.953000 0.291684 0.691135 0.118178
C20   C     C_R   0.801305 0.208608 0.779538 -0.159088
H18   H     H_    0.934222 0.179161 0.802909 0.118945
C21   C     C_R   0.621614 0.182482 0.813106 -0.044753
C22   C     C_R   0.453055 0.222244 0.780219 -0.160442
H19   H     H_    0.312218 0.203656 0.804203 0.116747
C23   C     C_R   0.463956 0.286836 0.715927 -0.155051
H20   H     H_    0.331001 0.316095 0.692386 0.117734
C24   C     C_R   0.643722 0.313431 0.682778 -0.039851
C25   C     C_R   0.807889 0.256242 0.294899 0.435087
C26   C     C_R   0.795570 0.195254 0.226601 -0.242148
H21   H     H_    0.923751 0.157571 0.208113 0.128354
C27   C     C_R   0.620998 0.181911 0.183466 -0.104598
C28   C     C_R   0.458146 0.232386 0.208787 -0.160064
H22   H     H_    0.321073 0.223721 0.177201 0.142499
C29   C     C_R   0.470880 0.296315 0.274099 -0.219740
H23   H     H_    0.343334 0.335688 0.290118 0.182952
C30   C     C_R   0.645576 0.310379 0.317345 -0.143981
O11   O     O_R   0.771300 0.080930 0.910090 -0.540190
O12   O     O_R   0.441270 0.092800 0.083770 -0.543630
O13   O     O_R   0.271080 0.913920 0.084380 -0.540231
C31   C     C_R   0.610077 0.114773 0.113214 0.713361
O14   O     O_R   0.441580 0.091910 0.910670 -0.543701
O15   O     O_R   0.271390 0.913020 0.910040 -0.541248
C32   C     C_R   0.610625 0.114018 0.881652 0.684895
O16   O     O_R   0.770990 0.081830 0.084440 -0.539331
O17   O     O_3   0.604750 0.938760 0.997250 -0.370621
V3    V     V_3+5 0.329850 0.008280 0.997210 1.389619
O18   O     O_R   0.941680 0.901940 0.910610 -0.543597
C33   C     C_R   0.111029 0.879750 0.881490 0.654129
O19   O     O_R   0.941370 0.902830 0.083720 -0.543762
C34   C     C_R   0.110415 0.880758 0.112885 0.683415
V4    V     V_3+5 0.829860 0.986420 0.997150 1.386968
O20   O     O_3   0.104830 0.056030 0.997180 -0.366317
O21   O     O_3   0.983162 0.267961 0.335297 -0.573958
C35   C     C_3   0.029090 0.189294 0.383238 0.053290
H24   H     H_    0.189040 0.184018 0.385999 0.145561
H25   H     H_    0.977129 0.123565 0.355200 0.099920
C36   C     C_3   0.951797 0.199687 0.472568 -0.279621
H26   H     H_    0.010625 0.263510 0.500928 0.220461
H27   H     H_    0.791688 0.204855 0.471324 0.166061
C37   C     C_3   0.009590 0.118267 0.526813 -0.871378
H28   H     H_    0.950778 0.053436 0.500340 0.232971
H29   H     H_    0.950643 0.127749 0.590815 0.236863
H30   H     H_    0.169402 0.113130 0.530896 0.230650

loop_
_geom_bond_atom_site_label_1
_geom_bond_atom_site_label_2
_ccdc_geom_bond_type
C7    C11   S    
C10   C12   S    
C29   C30   A    
C8    C12   S    
C15   C16   A    
C1    O6    A    
C19   C20   A    
C6    C10   S    
C17   H16   S    
O13   V3    S    
C8    C9    S    
C3    C15   S    
O5    C3    A    
C10   C11   S    
O19   V4    S    
C26   C27   A    
V2    O10   S    
C25   O21   S    
C5    C6    S    
C28   C29   A    
O1    C2    A    
C10   C33   S    
O8    V2    S    
O11   C32   A    
C35   H24   S    
C17   C18   A    
C20   C21   A    
C31   O16   A    
O1    V2    S    
C4    C9    S    
C37   H29   S    
O7    V1    S    
O13   C34   A    
O17   V4    S    
O9    C4    A    
C1    C24   S    
C16   C17   A    
C22   C23   A    
C23   C24   A    
O17   V3    S    
C21   C22   A    
C5    C9    S    
O18   C33   A    
C14   C15   A    
C37   H28   S    
C14   H14   S    
O4    C2    A    
O19   C34   A    
V3    O20   S    
C26   H21   S    
C27   C28   A    
O12   C31   A    
C12   H10   S    
O2    C1    A    
C13   H13   S    
C2    C30   S    
C19   H17   S    
C5    H1    S    
C37   H30   S    
O3    C4    A    
C7    H11   S    
C35   H25   S    
C6    H4    S    
O21   C35   S    
O6    V2    S    
O9    V2    S    
O12   V3    S    
C21   C32   S    
O2    V1    S    
O15   C33   A    
C22   H19   S    
C23   H20   S    
C36   H26   S    
O18   V4    S    
C25   C30   A    
V4    O20   S    
C36   C37   S    
O5    V1    S    
O8    C3    A    
C7    C9    S    
O11   V4    S    
C8    H7    S    
C12   H9    S    
O7    V2    S    
H6    C11   S    
O4    V1    S    
C13   C14   A    
O3    V1    S    
V1    O10   S    
O15   V3    S    
C25   C26   A    
C18   C34   S    
C27   C31   S    
C5    H2    S    
O16   V4    S    
C36   H27   S    
H5    C7    S    
C28   H22   S    
C29   H23   S    
C35   C36   S    
C6    H3    S    
C8    H8    S    
C20   H18   S    
C16   H15   S    
O14   V3    S    
C11   H12   S    
O14   C32   A    
C13   C18   A    
C19   C24   A    
