data_mof_unit_19249.cif
_audit_creation_date              2012-12-10T20:46:50-0500
_audit_creation_method            fapswitch 2.2
_symmetry_space_group_name_H-M    P1
_symmetry_Int_Tables_number       1
_space_group_crystal_system       triclinic
_cell_length_a                    12.886778
_cell_length_b                    8.933597
_cell_length_c                    8.098964
_cell_angle_alpha                 89.98226
_cell_angle_beta                  98.461825
_cell_angle_gamma                 89.987792
_cell_volume                      922.24549301

loop_
_atom_site_label
_atom_site_type_symbol
_atom_type_description
_atom_site_fract_x
_atom_site_fract_y
_atom_site_fract_z
_atom_type_partial_charge
C1    C     C_R   0.499966 0.217956 0.500004 0.939435
C2    C     C_R   0.876188 0.577227 0.701573 0.133330
C3    C     C_R   0.136471 0.548536 0.570417 -0.285394
C4    C     C_R   0.863528 0.451533 0.429537 -0.285448
C5    C     C_R   0.030268 0.534747 0.568315 0.131826
C6    C     C_R   0.969733 0.465303 0.431651 0.131870
C7    C     C_1   0.499984 0.065182 0.500014 -0.199630
C8    C     C_1   0.500015 0.934818 0.499986 -0.199631
C9    C     C_3   0.824460 0.638774 0.845566 -0.362514
C10   C     C_3   0.896399 0.720568 0.983934 -0.908629
C11   C     C_3   0.175581 0.360851 0.154654 -0.362477
C12   C     C_R   0.500033 0.782044 0.499995 0.939469
C13   C     C_3   0.103675 0.278711 0.016535 -0.908771
C14   C     C_R   0.297124 0.496676 0.465187 0.871054
C15   C     C_R   0.702878 0.503315 0.534815 0.871084
C16   C     C_R   0.816033 0.509049 0.559979 -0.117483
C17   C     C_R   0.183971 0.490941 0.440022 -0.117404
C18   C     C_R   0.015427 0.411327 0.297494 -0.207020
C19   C     C_R   0.984581 0.588663 0.702506 -0.206892
C20   C     C_R   0.123827 0.422664 0.298486 0.133342
H1    H     H_    0.817053 0.397267 0.323561 0.166393
H2    H     H_    0.066338 0.180732 0.068427 0.262545
H3    H     H_    0.042706 0.355526 0.953187 0.265939
H4    H     H_    0.150809 0.237505 0.921589 0.263448
H5    H     H_    0.212029 0.455164 0.094570 0.226506
H6    H     H_    0.238179 0.280870 0.206139 0.217600
H7    H     H_    0.182944 0.602839 0.676368 0.166353
H8    H     H_    0.965380 0.360207 0.193904 0.157326
H9    H     H_    0.034633 0.639785 0.806091 0.157289
H10   H     H_    0.957440 0.643628 0.046865 0.265941
H11   H     H_    0.933648 0.818807 0.932363 0.262525
H12   H     H_    0.849311 0.761344 0.079181 0.263448
H13   H     H_    0.761889 0.718881 0.794300 0.217646
H14   H     H_    0.787985 0.544337 0.905410 0.226509
N1    N     N_1   0.500020 0.500000 0.073640 -0.041455
N2    N     N_1   0.499980 0.500000 0.926360 -0.041459
O1    O     O_R   0.499990 0.285340 0.636850 -0.611296
O2    O     O_R   0.500010 0.714660 0.363150 -0.611291
O3    O     O_R   0.500010 0.285340 0.363150 -0.618869
O4    O     O_R   0.499990 0.714660 0.636850 -0.618862
O5    O     O_R   0.346350 0.500000 0.614250 -0.614633
O6    O     O_R   0.653650 0.500000 0.385750 -0.614644
O7    O     O_R   0.346360 0.500000 0.340500 -0.640585
O8    O     O_R   0.653640 0.500000 0.659500 -0.640610
Zn1   Zn    Zn3+2 0.499990 0.500000 0.682780 0.972057
Zn2   Zn    Zn3+2 0.500010 0.500000 0.317220 0.972062

loop_
_geom_bond_atom_site_label_1
_geom_bond_atom_site_label_2
_ccdc_geom_bond_type
C4    C16   A    
C12   O4    A    
C5    C19   A    
C2    C16   A    
C9    C10   S    
C10   H10   S    
C15   O6    A    
N1    N2    T    
C1    O1    A    
C8    C12   S    
O4    Zn1   S    
C3    H7    S    
N2    Zn1   S    
C9    H13   S    
C4    H1    S    
C11   C13   S    
C14   C17   S    
C9    H14   S    
C14   O5    A    
C15   O8    A    
C13   H2    S    
C3    C17   A    
C18   C20   A    
O3    Zn2   S    
C12   O2    A    
C5    C6    A    
C6    C18   A    
O7    Zn2   S    
C11   C20   S    
O2    Zn2   S    
C1    O3    A    
O1    Zn1   S    
C15   C16   S    
C19   H9    S    
C10   H12   S    
C7    C8    T    
C17   C20   A    
C18   H8    S    
O8    Zn1   S    
C13   H3    S    
C4    C6    A    
O6    Zn2   S    
C11   H5    S    
O5    Zn1   S    
C11   H6    S    
C2    C19   A    
C1    C7    S    
C2    C9    S    
C10   H11   S    
C13   H4    S    
C14   O7    A    
C3    C5    A    
N1    Zn2   S    
