data_mof_unit_27088.cif
_audit_creation_date              2012-12-10T17:16:15-0500
_audit_creation_method            fapswitch 2.2
_symmetry_space_group_name_H-M    P1
_symmetry_Int_Tables_number       1
_space_group_crystal_system       triclinic
_cell_length_a                    19.297114
_cell_length_b                    13.003418
_cell_length_c                    11.739452
_cell_angle_alpha                 100.206361
_cell_angle_beta                  92.796669
_cell_angle_gamma                 92.356729
_cell_volume                      2891.98212821

loop_
_atom_site_label
_atom_site_type_symbol
_atom_type_description
_atom_site_fract_x
_atom_site_fract_y
_atom_site_fract_z
_atom_type_partial_charge
C1    C     C_R   0.499287 0.298925 0.478025 0.825349
C2    C     C_R   0.498054 0.700878 0.522343 0.828427
C3    C     C_R   0.492646 0.814721 0.537466 -0.135637
C4    C     C_R   0.497568 0.184703 0.464727 -0.151126
C5    C     C_R   0.486841 0.011153 0.346328 -0.277603
C6    C     C_R   0.498121 0.988049 0.656882 -0.286503
C7    C     C_R   0.494950 0.119393 0.354368 0.474811
C8    C     C_R   0.496426 0.879102 0.648595 0.507138
C9    C     C_R   0.498201 0.140061 0.565025 -0.289049
C10   C     C_R   0.483306 0.859713 0.438417 -0.337314
C11   C     C_R   0.494430 0.032118 0.556695 0.102057
C12   C     C_R   0.487254 0.967460 0.446758 0.110694
C13   C     C_R   0.436009 0.397433 0.023788 -0.428770
C14   C     C_R   0.571775 0.589328 0.974314 -0.437521
C15   C     C_R   0.440461 0.408246 0.146434 0.604103
C16   C     C_R   0.562527 0.587200 0.853032 0.607325
C17   C     C_R   0.531587 0.540177 0.156359 0.595145
C18   C     C_R   0.469898 0.457109 0.843020 0.609839
C19   C     C_R   0.526759 0.531746 0.032741 -0.140044
C20   C     C_R   0.476595 0.462211 0.966246 -0.139024
C21   C     C_R   0.367728 0.501513 0.501256 0.889319
C22   C     C_R   0.632389 0.498329 0.498370 0.882004
C23   C     C_R   0.260378 0.575328 0.586137 0.395372
C24   C     C_R   0.739597 0.438205 0.399694 0.406666
C25   C     C_R   0.187047 0.573034 0.587712 0.376221
C26   C     C_R   0.812592 0.442384 0.395758 0.373249
C27   C     C_R   0.146410 0.501191 0.502821 -0.212690
C28   C     C_R   0.853713 0.504205 0.488014 -0.208956
C29   C     C_R   0.179374 0.430610 0.419741 0.466649
C30   C     C_R   0.821814 0.562762 0.581827 0.470734
C31   C     C_R   0.251615 0.430585 0.422638 -0.350309
C32   C     C_R   0.749514 0.559910 0.583127 -0.361054
C33   C     C_R   0.291998 0.502821 0.503722 -0.270622
C34   C     C_R   0.708304 0.497723 0.493976 -0.251837
C35   C     C_R   0.929753 0.503495 0.490455 0.449345
C36   C     C_R   0.070050 0.502128 0.497431 0.436641
Cu1   Cu    Cu3+1 0.505120 0.507730 0.615930 1.038007
Cu2   Cu    Cu3+1 0.494880 0.492270 0.384070 1.031301
H1    H     H_    0.400847 0.338915 0.973303 0.189033
H2    H     H_    0.613657 0.635618 0.023741 0.188295
H3    H     H_    0.276344 0.374438 0.360084 0.205094
H4    H     H_    0.725490 0.606648 0.654254 0.191831
H5    H     H_    0.474718 0.810985 0.353819 0.167746
H6    H     H_    0.501868 0.189169 0.650227 0.197266
H7    H     H_    0.482261 0.961434 0.261498 0.140668
H8    H     H_    0.504610 0.038202 0.741237 0.143075
N1    N     N_R   0.030797 0.411085 0.473797 -0.180823
N2    N     N_R   0.968870 0.594588 0.513404 -0.190217
N3    N     N_R   0.961833 0.411728 0.470174 -0.192878
N4    N     N_R   0.037826 0.593922 0.516374 -0.192112
N5    N     N_R   0.512830 0.519350 0.790130 -0.251401
N6    N     N_R   0.487170 0.480650 0.209870 -0.248530
O1    O     O_R   0.503640 0.354460 0.582000 -0.567939
O2    O     O_R   0.496360 0.645540 0.418000 -0.595221
O3    O     O_R   0.494980 0.341410 0.386200 -0.514205
O4    O     O_R   0.505020 0.658590 0.613800 -0.490414
O5    O     O_R   0.404470 0.506520 0.597930 -0.551134
O6    O     O_R   0.595530 0.493480 0.402070 -0.521529
O7    O     O_R   0.395820 0.493460 0.402130 -0.553072
O8    O     O_R   0.604180 0.506540 0.597870 -0.571419
O9    O     O_3   0.301787 0.655900 0.652974 -0.562912
C37   C     C_3   0.296155 0.657093 0.772677 -0.233904
H9    H     H_    0.348974 0.669302 0.815936 0.155573
H10   H     H_    0.272984 0.583650 0.793940 0.111206
H11   H     H_    0.265342 0.723859 0.809863 0.197400
O10   O     O_3   0.698804 0.367311 0.319178 -0.573334
C38   C     C_3   0.694180 0.401600 0.211558 -0.210429
H12   H     H_    0.700023 0.488255 0.218887 0.164083
H13   H     H_    0.642143 0.376450 0.169030 0.168629
H14   H     H_    0.733126 0.363286 0.154067 0.177017
O11   O     O_3   0.156147 0.645980 0.667633 -0.531952
C39   C     C_3   0.127431 0.596380 0.753943 -0.303644
H15   H     H_    0.154934 0.526048 0.769948 0.112280
H16   H     H_    0.071667 0.574212 0.731738 0.194815
H17   H     H_    0.130615 0.653132 0.836788 0.179799
O12   O     O_3   0.842810 0.379870 0.305417 -0.529165
C40   C     C_3   0.868573 0.442860 0.228743 -0.307174
H18   H     H_    0.920086 0.480510 0.261314 0.176396
H19   H     H_    0.832223 0.503549 0.211749 0.122478
H20   H     H_    0.875864 0.391803 0.144350 0.185199
O13   O     O_3   0.141209 0.359558 0.336150 -0.542222
C41   C     C_3   0.132182 0.404326 0.235768 -0.295265
H21   H     H_    0.182894 0.423858 0.201382 0.145997
H22   H     H_    0.101146 0.475176 0.252622 0.157292
H23   H     H_    0.103071 0.346476 0.167569 0.193641
O14   O     O_3   0.861524 0.625648 0.670802 -0.543612
C42   C     C_3   0.863731 0.575949 0.768279 -0.308446
H24   H     H_    0.884502 0.496541 0.747295 0.156473
H25   H     H_    0.811691 0.571391 0.804442 0.147507
H26   H     H_    0.899335 0.623127 0.836699 0.189565
O15   O     O_3   0.504321 0.835434 0.747582 -0.559690
C43   C     C_3   0.448649 0.860710 0.819335 -0.323849
H27   H     H_    0.397415 0.848514 0.769564 0.187312
H28   H     H_    0.455680 0.942214 0.867927 0.151181
H29   H     H_    0.448333 0.808247 0.884263 0.174583
O16   O     O_3   0.496715 0.160850 0.253965 -0.592638
C44   C     C_3   0.563827 0.151482 0.212119 -0.297984
H30   H     H_    0.575167 0.068056 0.182771 0.147965
H31   H     H_    0.604273 0.190487 0.278412 0.204028
H32   H     H_    0.566366 0.191114 0.136048 0.179291
O17   O     O_3   0.425093 0.383031 0.773185 -0.556840
C45   C     C_3   0.354564 0.402513 0.793060 -0.321264
H33   H     H_    0.346340 0.469733 0.863517 0.121529
H34   H     H_    0.328428 0.331289 0.814396 0.166395
H35   H     H_    0.327431 0.415893 0.712255 0.194047
O18   O     O_3   0.585994 0.598026 0.222992 -0.572007
C46   C     C_3   0.579041 0.706892 0.230727 -0.314904
H36   H     H_    0.585119 0.744483 0.323090 0.199972
H37   H     H_    0.529110 0.728845 0.191845 0.128324
H38   H     H_    0.622886 0.741113 0.190011 0.159252
O19   O     O_3   0.599618 0.653429 0.793047 -0.552755
C47   C     C_3   0.657019 0.712745 0.855449 0.051932
H39   H     H_    0.691591 0.736865 0.791116 0.163483
H40   H     H_    0.689780 0.665154 0.904525 0.109660
C48   C     C_3   0.634594 0.814371 0.929470 -0.334120
H41   H     H_    0.618356 0.868970 0.871594 0.258922
H42   H     H_    0.589632 0.799257 0.980654 0.213069
C49   C     C_3   0.694189 0.867699 0.011824 -0.938000
H43   H     H_    0.711413 0.815471 0.071832 0.253812
H44   H     H_    0.676587 0.940833 0.063813 0.256716
H45   H     H_    0.738746 0.887716 0.961985 0.271678
O20   O     O_3   0.395913 0.353433 0.207459 -0.575808
C50   C     C_3   0.370661 0.253893 0.147017 0.093558
H46   H     H_    0.366995 0.201114 0.211451 0.193575
H47   H     H_    0.406840 0.216434 0.082822 0.151278
C51   C     C_3   0.297046 0.259761 0.093709 -0.430024
H48   H     H_    0.260190 0.272007 0.164027 0.238176
H49   H     H_    0.294008 0.326918 0.047310 0.213842
C52   C     C_3   0.274503 0.159265 0.009597 -0.887539
H50   H     H_    0.309192 0.147192 0.936087 0.251406
H51   H     H_    0.220542 0.164879 0.974671 0.263719
H52   H     H_    0.276138 0.091089 0.054691 0.260973

loop_
_geom_bond_atom_site_label_1
_geom_bond_atom_site_label_2
_ccdc_geom_bond_type
C42   H24   S    
O17   C45   S    
C15   O20   S    
C27   C29   A    
C19   C20   A    
C16   N5    A    
C47   H40   S    
C44   H30   S    
C50   H46   S    
N1    N3    A    
C40   H18   S    
C29   O13   S    
C7    O16   S    
C51   H48   S    
C45   H35   S    
Cu1   Cu2   S    
C24   C26   A    
C21   O7    A    
C39   H17   S    
C22   O8    A    
Cu1   N5    S    
C50   H47   S    
C21   C33   S    
O18   C46   S    
C48   H41   S    
C36   N1    A    
C1    O1    A    
C49   H43   S    
C37   H10   S    
Cu2   O6    S    
Cu1   O4    S    
Cu2   O3    S    
O19   C47   S    
C28   C35   S    
C48   H42   S    
C35   N3    A    
C26   O12   S    
C46   H36   S    
C31   C33   A    
C25   O11   S    
C30   O14   S    
C6    H8    S    
C37   H11   S    
C24   O10   S    
C52   H52   S    
Cu1   O1    S    
N2    N4    A    
O10   C38   S    
C46   H37   S    
C45   H33   S    
C4    C7    A    
C35   N2    A    
C17   N6    A    
C47   H39   S    
C44   H31   S    
C18   N5    A    
O13   C41   S    
C40   H19   S    
C22   C34   S    
C38   H12   S    
O12   C40   S    
C5    C12   A    
C39   H16   S    
C3    C8    A    
C2    O2    A    
C6    C11   A    
C5    C7    A    
O14   C42   S    
C50   C51   S    
C6    C8    A    
C51   C52   S    
C23   C33   A    
C5    H7    S    
C43   H29   S    
C24   C34   A    
C38   H13   S    
C49   H45   S    
C32   C34   A    
C21   O5    A    
C37   H9    S    
Cu2   O2    S    
C48   C49   S    
O16   C44   S    
C43   H28   S    
C8    O15   S    
C15   N6    A    
C45   H34   S    
C9    C11   A    
C10   C12   A    
C41   H22   S    
C13   C15   A    
C46   H38   S    
C14   C16   A    
O15   C43   S    
C44   H32   S    
C36   N4    A    
C52   H50   S    
C40   H20   S    
C9    H6    S    
C51   H49   S    
C31   H3    S    
C13   C20   A    
C10   H5    S    
C14   C19   A    
C39   H15   S    
C22   O6    A    
C11   C12   A    
C27   C36   S    
C25   C27   A    
C41   H23   S    
C26   C28   A    
C38   H14   S    
C1    C4    S    
C28   C30   A    
C2    C3    S    
C1    O3    A    
O11   C39   S    
C29   C31   A    
C3    C10   A    
C2    O4    A    
C17   O18   S    
C30   C32   A    
C43   H27   S    
C17   C19   A    
C18   C20   A    
C23   C25   A    
O9    C37   S    
C49   H44   S    
C13   H1    S    
Cu1   O8    S    
C14   H2    S    
Cu2   O7    S    
C23   O9    S    
Cu2   N6    S    
C41   H21   S    
C42   H26   S    
O20   C50   S    
C42   H25   S    
C32   H4    S    
C4    C9    A    
C18   O17   S    
C47   C48   S    
Cu1   O5    S    
C16   O19   S    
C52   H51   S    
