data_mof_unit_26300.cif
_audit_creation_date              2012-12-11T16:19:20-0500
_audit_creation_method            fapswitch 2.2
_symmetry_space_group_name_H-M    P1
_symmetry_Int_Tables_number       1
_space_group_crystal_system       triclinic
_cell_length_a                    6.957773
_cell_length_b                    31.251927
_cell_length_c                    35.053867
_cell_angle_alpha                 89.981138
_cell_angle_beta                  89.681617
_cell_angle_gamma                 89.913327
_cell_volume                      7622.11973741

loop_
_atom_site_label
_atom_site_type_symbol
_atom_type_description
_atom_site_fract_x
_atom_site_fract_y
_atom_site_fract_z
_atom_type_partial_charge
O1    O     O_R   0.417270 0.211480 0.210950 -0.518007
O2    O     O_R   0.582730 0.788520 0.789050 -0.516758
O3    O     O_R   0.582730 0.788520 0.710950 -0.513509
O4    O     O_R   0.417270 0.211480 0.289050 -0.513683
O5    O     O_R   0.917270 0.288520 0.289050 -0.511309
O6    O     O_R   0.082730 0.711480 0.710950 -0.511615
O7    O     O_R   0.082730 0.711480 0.789050 -0.518365
O8    O     O_R   0.917270 0.288520 0.210950 -0.517961
O9    O     O_R   0.746940 0.206370 0.288750 -0.541247
O10   O     O_R   0.253060 0.793630 0.711250 -0.541250
O11   O     O_R   0.253060 0.793630 0.788750 -0.545556
O12   O     O_R   0.746940 0.206370 0.211250 -0.545346
O13   O     O_R   0.246940 0.293630 0.211250 -0.545449
O14   O     O_R   0.753060 0.706370 0.788750 -0.545458
O15   O     O_R   0.753060 0.706370 0.711250 -0.545289
O16   O     O_R   0.246940 0.293630 0.288750 -0.545102
C1    C     C_R   0.577762 0.196252 0.302167 0.742281
C2    C     C_R   0.422237 0.803744 0.697830 0.743193
C3    C     C_R   0.421387 0.803293 0.802464 0.740324
C4    C     C_R   0.578624 0.196606 0.197612 0.740367
C5    C     C_R   0.078567 0.303424 0.197639 0.739765
C6    C     C_R   0.921460 0.696584 0.802382 0.741261
C7    C     C_R   0.922415 0.696449 0.697663 0.750895
C8    C     C_R   0.077579 0.303540 0.302345 0.751178
O17   O     O_3   0.583760 0.276950 0.250000 -0.367019
O18   O     O_3   0.416240 0.723050 0.750000 -0.367639
O19   O     O_3   0.083760 0.223050 0.250000 -0.365650
O20   O     O_3   0.916240 0.776950 0.750000 -0.364836
V1    V     V_3+5 0.858600 0.245000 0.250000 1.512227
V2    V     V_3+5 0.141400 0.755000 0.750000 1.513704
V3    V     V_3+5 0.358600 0.255000 0.250000 1.505414
V4    V     V_3+5 0.641400 0.745000 0.750000 1.506867
C9    C     C_R   0.909515 0.585494 0.539589 0.693368
C10   C     C_R   0.089987 0.414390 0.460540 0.680149
C11   C     C_R   0.108448 0.414807 0.038770 0.689588
C12   C     C_R   0.889684 0.584453 0.960736 0.689858
C13   C     C_R   0.360891 0.917837 0.959626 0.650582
C14   C     C_R   0.654937 0.077908 0.043354 0.689392
C15   C     C_R   0.587999 0.086191 0.461322 0.693512
C16   C     C_R   0.412114 0.913775 0.538653 0.693312
N1    N     N_R   0.957114 0.572794 0.575648 -0.549154
N2    N     N_R   0.042002 0.427019 0.424480 -0.546283
N3    N     N_R   0.037964 0.424959 0.074123 -0.549405
N4    N     N_R   0.960163 0.574297 0.925384 -0.549385
N5    N     N_R   0.471170 0.922677 0.927527 -0.553575
N6    N     N_R   0.537742 0.074373 0.074606 -0.551543
N7    N     N_R   0.543337 0.073710 0.425062 -0.548303
N8    N     N_R   0.456767 0.926256 0.574913 -0.548462
C17   C     C_R   0.016861 0.531947 0.582964 0.659555
C18   C     C_R   0.981648 0.467845 0.417276 0.648084
C19   C     C_R   0.955265 0.463901 0.081087 0.645889
C20   C     C_R   0.042527 0.535323 0.918402 0.646100
C21   C     C_R   0.598794 0.955702 0.924144 0.660937
C22   C     C_R   0.410211 0.041311 0.078024 0.662301
C23   C     C_R   0.486989 0.032750 0.417392 0.642534
C24   C     C_R   0.513130 0.967215 0.582583 0.643719
C25   C     C_R   0.027147 0.501232 0.553287 -0.159987
C26   C     C_R   0.976496 0.498737 0.446815 -0.163394
C27   C     C_R   0.949563 0.495672 0.052270 -0.161897
C28   C     C_R   0.048090 0.503544 0.947214 -0.161744
C29   C     C_R   0.622078 0.985546 0.954182 -0.146444
C30   C     C_R   0.404227 0.008347 0.050231 -0.157839
C31   C     C_R   0.481559 0.001580 0.446686 -0.163442
C32   C     C_R   0.518572 0.998385 0.553288 -0.164048
C33   C     C_R   0.989931 0.514590 0.515427 -0.132452
C34   C     C_R   0.009184 0.485182 0.484746 -0.126478
C35   C     C_R   0.008041 0.484568 0.014844 -0.127814
C36   C     C_R   0.989629 0.514650 0.984641 -0.127897
C37   C     C_R   0.506385 0.981531 0.987325 -0.135037
C38   C     C_R   0.520004 0.012280 0.017111 -0.123542
C39   C     C_R   0.510623 0.014847 0.484791 -0.129590
C40   C     C_R   0.489510 0.985118 0.515183 -0.129546
C41   C     C_R   0.933699 0.557381 0.508247 -0.160726
C42   C     C_R   0.061102 0.442173 0.491943 -0.162200
C43   C     C_R   0.086825 0.443518 0.007740 -0.161224
C44   C     C_R   0.910951 0.555709 0.991751 -0.161171
C45   C     C_R   0.374878 0.947169 0.990372 -0.182822
C46   C     C_R   0.647426 0.047341 0.013543 -0.147137
C47   C     C_R   0.562690 0.057758 0.492434 -0.162025
C48   C     C_R   0.437442 0.942207 0.507540 -0.162025
C49   C     C_R   0.072383 0.457704 0.560423 0.393384
C50   C     C_R   0.936797 0.542476 0.439582 0.400479
C51   C     C_R   0.885357 0.537950 0.059738 0.402960
C52   C     C_R   0.112229 0.461259 0.939747 0.403046
C53   C     C_R   0.757763 0.019166 0.951962 0.373761
C54   C     C_R   0.284060 0.971985 0.054379 0.407170
C55   C     C_R   0.445424 0.957793 0.439015 0.401591
C56   C     C_R   0.554713 0.042171 0.560959 0.400864
C57   C     C_R   0.082150 0.428175 0.530162 0.401549
C58   C     C_R   0.908318 0.571157 0.470046 0.394268
C59   C     C_R   0.859554 0.567164 0.029600 0.396112
C60   C     C_R   0.138093 0.432052 0.969887 0.395280
C61   C     C_R   0.763321 0.050957 0.980369 0.371402
C62   C     C_R   0.262915 0.942778 0.024071 0.384246
C63   C     C_R   0.416752 0.928710 0.469173 0.392312
C64   C     C_R   0.583390 0.071254 0.530802 0.391916
O21   O     O_2   0.841371 0.625457 0.534291 -0.481630
O22   O     O_2   0.165758 0.375088 0.465769 -0.479669
O23   O     O_2   0.196829 0.376786 0.033800 -0.479084
O24   O     O_2   0.801784 0.622525 0.965726 -0.479328
O25   O     O_2   0.239489 0.884410 0.961702 -0.480657
O26   O     O_2   0.776236 0.111359 0.041073 -0.469873
O27   O     O_2   0.653931 0.126211 0.467050 -0.480748
O28   O     O_2   0.346166 0.873756 0.532924 -0.481181
O29   O     O_2   0.067443 0.521456 0.618846 -0.494751
O30   O     O_2   0.922755 0.478056 0.381823 -0.491966
O31   O     O_2   0.875057 0.471328 0.115576 -0.493283
O32   O     O_2   0.122622 0.527879 0.883905 -0.493395
O33   O     O_2   0.701536 0.959633 0.891593 -0.487405
O34   O     O_2   0.286973 0.041027 0.107857 -0.494540
O35   O     O_2   0.431872 0.022677 0.381677 -0.493629
O36   O     O_2   0.568247 0.977288 0.618297 -0.491397
C65   C     C_R   0.205262 0.395115 0.368782 -0.090231
C66   C     C_R   0.794179 0.604832 0.631332 -0.089171
C67   C     C_R   0.801650 0.603942 0.868471 -0.099837
C68   C     C_R   0.197037 0.395768 0.131150 -0.100197
C69   C     C_R   0.693446 0.103109 0.132154 -0.107637
C70   C     C_R   0.307786 0.894924 0.870297 -0.102830
C71   C     C_R   0.291411 0.893970 0.630111 -0.092479
C72   C     C_R   0.708658 0.106015 0.369869 -0.094034
H1    H     H_    0.321019 0.417907 0.372079 0.163962
H2    H     H_    0.678236 0.582081 0.628063 0.165528
H3    H     H_    0.693484 0.579176 0.870692 0.160255
H4    H     H_    0.304435 0.420693 0.128875 0.160022
H5    H     H_    0.796964 0.077240 0.130757 0.171480
H6    H     H_    0.202984 0.920441 0.872756 0.156400
H7    H     H_    0.174371 0.916422 0.626357 0.163580
H8    H     H_    0.825726 0.083570 0.373620 0.162876
C73   C     C_R   0.214459 0.364891 0.339403 -0.240853
C74   C     C_R   0.785241 0.635092 0.660679 -0.242788
C75   C     C_R   0.791686 0.633747 0.838730 -0.245224
C76   C     C_R   0.207538 0.366157 0.161034 -0.244314
C77   C     C_R   0.704222 0.132925 0.161860 -0.248167
C78   C     C_R   0.295024 0.865805 0.840029 -0.238806
C79   C     C_R   0.282178 0.863947 0.659651 -0.232194
C80   C     C_R   0.717865 0.136046 0.340336 -0.234418
H9    H     H_    0.337536 0.365224 0.320353 0.175055
H10   H     H_    0.662185 0.634818 0.679735 0.174945
H11   H     H_    0.676328 0.631110 0.818250 0.167250
H12   H     H_    0.322491 0.369085 0.181573 0.166914
H13   H     H_    0.815822 0.129302 0.183042 0.165447
H14   H     H_    0.180666 0.869605 0.819462 0.167359
H15   H     H_    0.157449 0.863993 0.678275 0.178258
H16   H     H_    0.842608 0.136015 0.321716 0.177424
C81   C     C_R   0.065938 0.334976 0.334307 -0.199602
C82   C     C_R   0.933951 0.664969 0.665735 -0.199157
C83   C     C_R   0.930785 0.666084 0.834980 -0.194994
C84   C     C_R   0.069279 0.333666 0.164871 -0.192983
C85   C     C_R   0.569456 0.166317 0.164891 -0.189682
C86   C     C_R   0.431305 0.832868 0.835708 -0.193104
C87   C     C_R   0.433313 0.834802 0.665592 -0.202648
C88   C     C_R   0.566691 0.165182 0.334396 -0.202413
C89   C     C_R   0.908526 0.335268 0.360224 0.397474
C90   C     C_R   0.091292 0.664608 0.639800 0.395109
C91   C     C_R   0.077208 0.669101 0.862887 0.380803
C92   C     C_R   0.923403 0.330227 0.136898 0.379828
C93   C     C_R   0.427765 0.170610 0.136144 0.371161
C94   C     C_R   0.576326 0.828220 0.863742 0.375309
C95   C     C_R   0.593495 0.835604 0.640282 0.387683
C96   C     C_R   0.406482 0.164358 0.359699 0.386876
C97   C     C_R   0.897721 0.366601 0.389192 0.114707
C98   C     C_R   0.101800 0.633251 0.610844 0.118047
C99   C     C_R   0.089830 0.638194 0.892072 0.138636
C100  C     C_R   0.910125 0.360947 0.107571 0.138960
C101  C     C_R   0.417437 0.140346 0.106378 0.155552
C102  C     C_R   0.589618 0.857935 0.893836 0.147463
C103  C     C_R   0.602231 0.866130 0.610720 0.127302
C104  C     C_R   0.397787 0.133828 0.389259 0.126960
C105  C     C_R   0.047939 0.396152 0.393848 0.269638
C106  C     C_R   0.951468 0.603706 0.606262 0.267481
C107  C     C_R   0.950982 0.605641 0.895093 0.260867
C108  C     C_R   0.048011 0.393704 0.104476 0.260827
C109  C     C_R   0.549021 0.106149 0.104551 0.248201
C110  C     C_R   0.456324 0.891670 0.897027 0.258173
C111  C     C_R   0.450258 0.895229 0.605436 0.265690
C112  C     C_R   0.549804 0.104740 0.394541 0.266213
O37   O     O_3   0.119286 0.443906 0.596768 -0.514611
C113  C     C_3   0.951735 0.430567 0.616406 -0.076816
H17   H     H_    0.816649 0.446157 0.606385 0.098295
H18   H     H_    0.967835 0.438705 0.647021 0.174902
H19   H     H_    0.938078 0.395286 0.614634 0.129647
O38   O     O_3   0.922509 0.558080 0.402743 -0.514122
C114  C     C_3   0.109892 0.565011 0.388110 -0.115351
H20   H     H_    0.180572 0.534407 0.380132 0.159049
H21   H     H_    0.098844 0.584733 0.361901 0.161077
H22   H     H_    0.204059 0.582420 0.408432 0.087605
O39   O     O_3   0.844287 0.551546 0.096471 -0.514113
C115  C     C_3   0.018455 0.562443 0.114709 -0.120754
H23   H     H_    0.113163 0.582897 0.096671 0.086038
H24   H     H_    0.099893 0.533456 0.123270 0.159744
H25   H     H_    0.983945 0.580665 0.141021 0.159164
O40   O     O_3   0.153245 0.447658 0.903013 -0.514069
C116  C     C_3   0.979044 0.436767 0.884786 -0.119818
H26   H     H_    0.897597 0.465757 0.876237 0.159369
H27   H     H_    0.013502 0.418551 0.858468 0.159683
H28   H     H_    0.884372 0.416309 0.902828 0.086510
O41   O     O_3   0.881838 0.022593 0.921139 -0.522491
C117  C     C_3   0.056176 0.002246 0.930670 -0.097437
H29   H     H_    0.154786 0.003934 0.905745 0.151283
H30   H     H_    0.033245 0.967810 0.937386 0.148970
H31   H     H_    0.127988 0.018556 0.954933 0.137599
O42   O     O_3   0.180111 0.964901 0.087552 -0.515246
C118  C     C_3   0.302349 0.945462 0.114671 -0.143057
H32   H     H_    0.408045 0.968595 0.126214 0.158441
H33   H     H_    0.213200 0.933904 0.138883 0.157465
H34   H     H_    0.381705 0.917463 0.102861 0.078288
O43   O     O_3   0.435365 0.942505 0.402023 -0.514166
C119  C     C_3   0.624408 0.936194 0.387985 -0.117340
H35   H     H_    0.718069 0.918904 0.408530 0.088114
H36   H     H_    0.693582 0.967048 0.380397 0.158518
H37   H     H_    0.616956 0.916632 0.361641 0.159805
O44   O     O_3   0.564767 0.057460 0.597951 -0.513759
C120  C     C_3   0.375722 0.063772 0.611988 -0.109172
H38   H     H_    0.306545 0.032918 0.619576 0.158536
H39   H     H_    0.383169 0.083335 0.638330 0.163238
H40   H     H_    0.282064 0.081060 0.591441 0.086460
O45   O     O_3   0.114863 0.385566 0.538806 -0.514348
C121  C     C_3   0.937279 0.363534 0.538456 -0.102297
H41   H     H_    0.956603 0.332244 0.552884 0.158498
H42   H     H_    0.889659 0.357022 0.508873 0.178956
H43   H     H_    0.820692 0.381026 0.553783 0.086719
O46   O     O_3   0.845172 0.612234 0.462019 -0.514299
C122  C     C_3   0.004197 0.639955 0.457628 -0.070434
H44   H     H_    0.135231 0.629698 0.473458 0.113967
H45   H     H_    0.963131 0.671971 0.468667 0.177173
H46   H     H_    0.038452 0.643902 0.426905 0.126632
O47   O     O_3   0.772500 0.606126 0.037358 -0.512723
C123  C     C_3   0.913577 0.637291 0.045469 -0.073628
H47   H     H_    0.863254 0.668558 0.034311 0.178050
H48   H     H_    0.056877 0.630828 0.032172 0.110747
H49   H     H_    0.928525 0.640848 0.076776 0.123082
O48   O     O_3   0.225019 0.393078 0.962121 -0.512944
C124  C     C_3   0.083795 0.361910 0.954115 -0.069071
H50   H     H_    0.940690 0.368389 0.967491 0.110376
H51   H     H_    0.134266 0.330652 0.965267 0.179594
H52   H     H_    0.068372 0.358325 0.922819 0.124078
O49   O     O_3   0.892269 0.084327 0.976241 -0.517407
C125  C     C_3   0.807479 0.116112 0.953188 -0.070676
H53   H     H_    0.906579 0.143830 0.951573 0.162922
H54   H     H_    0.669276 0.127741 0.965611 0.128470
H55   H     H_    0.784668 0.104418 0.923598 0.138056
O50   O     O_3   0.117779 0.912534 0.026224 -0.515051
C126  C     C_3   0.185779 0.875036 0.044233 -0.056905
H56   H     H_    0.343940 0.869871 0.041249 0.096966
H57   H     H_    0.113993 0.847070 0.031057 0.180374
H58   H     H_    0.143706 0.875300 0.074784 0.120392
O51   O     O_3   0.357938 0.887491 0.460640 -0.514813
C127  C     C_3   0.519653 0.860323 0.456920 -0.070543
H59   H     H_    0.479888 0.828121 0.467666 0.177545
H60   H     H_    0.647932 0.870932 0.473386 0.114385
H61   H     H_    0.557881 0.856645 0.426351 0.126283
O52   O     O_3   0.642220 0.112471 0.539334 -0.514707
C128  C     C_3   0.480515 0.139642 0.543060 -0.065944
H62   H     H_    0.352222 0.129035 0.526596 0.113755
H63   H     H_    0.520280 0.171844 0.532315 0.178719
H64   H     H_    0.442309 0.143318 0.573630 0.127298
O53   O     O_3   0.763581 0.305246 0.357044 -0.546354
C129  C     C_3   0.790097 0.272456 0.384441 -0.206184
H65   H     H_    0.907890 0.278064 0.405351 0.137953
H66   H     H_    0.818075 0.241788 0.369439 0.159040
H67   H     H_    0.656137 0.268875 0.401358 0.170697
O54   O     O_3   0.236406 0.694594 0.642931 -0.546623
C130  C     C_3   0.209509 0.727445 0.615607 -0.205946
H68   H     H_    0.181153 0.758057 0.630673 0.158695
H69   H     H_    0.091849 0.721814 0.594673 0.137990
H70   H     H_    0.343437 0.731148 0.598702 0.170039
O55   O     O_3   0.210276 0.701935 0.861976 -0.557602
C131  C     C_3   0.125767 0.738785 0.878347 -0.190749
H71   H     H_    0.031420 0.754822 0.857390 0.175789
H72   H     H_    0.238165 0.762252 0.885481 0.147385
H73   H     H_    0.048458 0.731765 0.905569 0.159268
O56   O     O_3   0.791201 0.297219 0.137975 -0.557654
C132  C     C_3   0.877948 0.260241 0.122340 -0.187015
H74   H     H_    0.767896 0.235640 0.117018 0.145430
H75   H     H_    0.978586 0.245779 0.143036 0.172423
H76   H     H_    0.948863 0.266702 0.094348 0.160054
O57   O     O_3   0.294775 0.203569 0.137207 -0.557948
C133  C     C_3   0.380148 0.240756 0.121822 -0.189903
H77   H     H_    0.456338 0.234457 0.094345 0.158410
H78   H     H_    0.475432 0.255806 0.143134 0.176227
H79   H     H_    0.268122 0.264701 0.115459 0.150020
O58   O     O_3   0.709432 0.795336 0.861696 -0.557302
C134  C     C_3   0.625105 0.757845 0.876711 -0.186887
H80   H     H_    0.523635 0.743901 0.855949 0.174684
H81   H     H_    0.556202 0.763402 0.905045 0.158975
H82   H     H_    0.736575 0.733265 0.881174 0.147001
O59   O     O_3   0.746180 0.807765 0.644927 -0.541165
C135  C     C_3   0.700460 0.768738 0.627015 -0.165875
H83   H     H_    0.580570 0.752299 0.641952 0.138226
H84   H     H_    0.825850 0.747241 0.628953 0.140078
H85   H     H_    0.667201 0.773214 0.596234 0.148628
O60   O     O_3   0.253716 0.192173 0.355045 -0.541373
C136  C     C_3   0.299239 0.231202 0.372973 -0.164340
H86   H     H_    0.173772 0.252676 0.371022 0.140033
H87   H     H_    0.419127 0.247666 0.358058 0.138219
H88   H     H_    0.332406 0.226721 0.403758 0.149394
I1    I     I_    0.651371 0.369849 0.425424 -0.367654
I2    I     I_    0.347468 0.630075 0.574394 -0.357325
I3    I     I_    0.320607 0.641281 0.931491 -0.311269
I4    I     I_    0.679637 0.357325 0.068126 -0.309703
I5    I     I_    0.207287 0.148000 0.063248 -0.258940
I6    I     I_    0.808296 0.850243 0.935296 -0.296817
I7    I     I_    0.847072 0.867915 0.574098 -0.349390
I8    I     I_    0.152946 0.132017 0.425879 -0.347840

loop_
_geom_bond_atom_site_label_1
_geom_bond_atom_site_label_2
_ccdc_geom_bond_type
O17   V3    S    
C130  H70   S    
C92   C100  A    
C118  H32   S    
C56   C64   A    
O18   V4    S    
O12   V1    S    
O19   V1    S    
C28   C52   A    
C37   C45   A    
C122  H44   S    
C10   N2    A    
N8    C24   A    
C113  H19   S    
C59   O47   S    
C69   C77   A    
C11   N3    A    
C132  H76   S    
C123  H48   S    
C113  H17   S    
C122  H46   S    
C33   C41   A    
C130  H68   S    
C67   C75   A    
C120  H38   S    
O16   V3    S    
C118  H33   S    
C125  H55   S    
C22   O34   S    
O58   C134  S    
C65   C73   A    
C115  H25   S    
O8    V1    S    
C42   C57   A    
C115  H24   S    
O60   C136  S    
C27   C51   A    
C41   C58   A    
C58   O46   S    
C136  H88   S    
C8    C81   S    
C26   C50   A    
C71   H7    S    
C128  H62   S    
C80   H16   S    
C88   C96   A    
C102  I6    S    
C134  H81   S    
C60   O48   S    
C46   C61   A    
C69   C109  A    
C126  H56   S    
C34   C42   A    
C85   C93   A    
C45   C62   A    
O1    V3    S    
C3    C86   S    
C17   C25   A    
C4    C85   S    
C30   C38   A    
O3    C2    A    
C16   N8    A    
O53   C129  S    
C98   C106  A    
O13   V3    S    
O38   C114  S    
C54   C62   A    
C63   O51   S    
C21   C29   A    
C26   C34   A    
C86   C94   A    
O47   C123  S    
O11   V2    S    
C61   O49   S    
O56   C132  S    
C116  H27   S    
C133  H79   S    
C23   C31   A    
C69   H5    S    
C16   C48   A    
C75   C83   A    
C117  H29   S    
C18   O30   S    
O41   C117  S    
C20   C28   A    
C124  H50   S    
C54   O42   S    
C73   C81   A    
N7    C112  S    
C70   C78   A    
C127  H61   S    
O9    V1    S    
C136  H87   S    
N8    C111  S    
C97   C105  A    
N4    C20   A    
C79   H15   S    
O2    C3    A    
N7    C23   A    
C97   I1    S    
C49   C57   A    
O16   C8    A    
O7    V2    S    
O49   C125  S    
C134  H82   S    
C66   C74   A    
C51   O39   S    
C37   C38   A    
C53   C61   A    
C11   O23   S    
C96   O60   S    
N1    C17   A    
C123  H47   S    
C80   C88   A    
C40   C48   A    
C127  H60   S    
O50   C126  S    
C19   C27   A    
O5    V1    S    
C120  H39   S    
O17   V1    S    
C118  H34   S    
C125  H54   S    
C102  C110  A    
C67   H3    S    
O42   C118  S    
O19   V3    S    
C35   C36   A    
C76   C84   A    
C135  H85   S    
O20   V4    S    
C77   C85   A    
C129  H67   S    
C72   C112  A    
C114  H22   S    
C93   C101  A    
C128  H63   S    
C75   H11   S    
C119  H35   S    
C17   O29   S    
C99   C107  A    
C22   C30   A    
C91   C99   A    
O45   C121  S    
C15   N7    A    
C93   O57   S    
N5    C21   A    
C95   O59   S    
C39   C47   A    
O43   C119  S    
C71   C79   A    
C55   C63   A    
C115  H23   S    
C72   C80   A    
C135  H84   S    
C129  H66   S    
C114  H20   S    
C5    C84   S    
C136  H86   S    
C90   O54   S    
N2    C105  S    
C78   H14   S    
C68   C108  A    
C30   C54   A    
C84   C92   A    
O10   V2    S    
C27   C35   A    
C121  H42   S    
O59   C135  S    
C68   C76   A    
C131  H73   S    
C94   O58   S    
C73   H9    S    
N3    C108  S    
C126  H58   S    
O11   C3    A    
O12   C4    A    
C117  H31   S    
C24   C32   A    
C132  H74   S    
N6    C109  S    
O13   C5    A    
O3    V4    S    
C12   O24   S    
C36   C44   A    
O9    C1    A    
C48   C63   A    
C52   C60   A    
C52   O40   S    
C124  H51   S    
C55   O43   S    
O15   V4    S    
C15   C47   A    
C29   C53   A    
C43   C60   A    
C10   C42   A    
C103  I7    S    
C104  C112  A    
O4    C1    A    
C9    C41   A    
C18   C26   A    
O6    V2    S    
N6    C22   A    
N2    C18   A    
C33   C34   A    
C7    C82   S    
C82   C90   A    
C133  H78   S    
C12   N4    A    
C67   C107  A    
C35   C43   A    
C64   O52   S    
C13   N5    A    
C2    C87   S    
C74   H10   S    
C99   I3    S    
C134  H80   S    
C83   C91   A    
C127  H59   S    
C94   C102  A    
C121  H43   S    
C103  C111  A    
C23   O35   S    
C38   C46   A    
C21   O33   S    
C81   C89   A    
C66   C106  A    
C120  H40   S    
C125  H53   S    
O1    C4    A    
C71   C111  A    
C68   H4    S    
C31   C55   A    
C89   O53   S    
C131  H72   S    
C90   C98   A    
C11   C43   A    
C10   O22   S    
C31   C39   A    
C117  H30   S    
C98   I2    S    
C128  H64   S    
C65   C105  A    
O55   C131  S    
C72   H8    S    
C15   O27   S    
O54   C130  S    
C92   O56   S    
C70   H6    S    
C76   H12   S    
O7    C6    A    
C14   C46   A    
N1    C106  S    
C50   O38   S    
C77   H13   S    
C101  C109  A    
C50   C58   A    
C100  I4    S    
C53   O41   S    
C9    N1    A    
C135  H83   S    
O14   C6    A    
C131  H71   S    
O20   V2    S    
C16   O28   S    
C62   O50   S    
N4    C107  S    
C49   O37   S    
C47   C64   A    
C14   O26   S    
C119  H36   S    
C130  H69   S    
N5    C110  S    
O40   C116  S    
C74   C82   A    
C13   O25   S    
C122  H45   S    
N3    C19   A    
C121  H41   S    
O44   C120  S    
O5    C8    A    
C13   C45   A    
O10   C2    A    
C119  H37   S    
C79   C87   A    
O6    C7    A    
C51   C59   A    
C66   H2    S    
O15   C7    A    
O48   C124  S    
C132  H75   S    
C95   C103  A    
C129  H65   S    
C25   C49   A    
C29   C37   A    
C32   C40   A    
O46   C122  S    
C124  H52   S    
C96   C104  A    
C14   N6    A    
O4    V3    S    
C100  C108  A    
O37   C113  S    
C44   C59   A    
C57   O45   S    
C1    C88   S    
C116  H28   S    
O39   C115  S    
C65   H1    S    
C6    C83   S    
C28   C36   A    
C114  H21   S    
C19   O31   S    
C116  H26   S    
C56   O44   S    
C89   C97   A    
C101  I5    S    
C104  I8    S    
O8    C5    A    
C133  H77   S    
O52   C128  S    
C20   O32   S    
C70   C110  A    
C126  H57   S    
C9    O21   S    
C39   C40   A    
C32   C56   A    
O57   C133  S    
C113  H18   S    
O14   V4    S    
C12   C44   A    
C24   O36   S    
C123  H49   S    
C91   O55   S    
O51   C127  S    
C87   C95   A    
O2    V4    S    
C25   C33   A    
O18   V2    S    
C78   C86   A    
