data_mof_unit_20222.cif
_audit_creation_date              2012-12-10T19:45:38-0500
_audit_creation_method            fapswitch 2.2
_symmetry_space_group_name_H-M    P1
_symmetry_Int_Tables_number       1
_space_group_crystal_system       triclinic
_cell_length_a                    10.808224
_cell_length_b                    14.686666
_cell_length_c                    14.74594
_cell_angle_alpha                 64.739555
_cell_angle_beta                  103.377461
_cell_angle_gamma                 102.849778
_cell_volume                      2039.01501834

loop_
_atom_site_label
_atom_site_type_symbol
_atom_type_description
_atom_site_fract_x
_atom_site_fract_y
_atom_site_fract_z
_atom_type_partial_charge
C1    C     C_R   0.480277 0.119931 0.312231 0.790444
C2    C     C_R   0.523246 0.880110 0.687807 0.795529
C3    C     C_R   0.870650 0.000385 0.496612 -0.079422
C4    C     C_R   0.129117 0.998000 0.503892 -0.080194
C5    C     C_R   0.906644 0.958984 0.437421 -0.004116
C6    C     C_R   0.093048 0.035802 0.565698 -0.002234
C7    C     C_R   0.478432 0.187559 0.204585 -0.048875
C8    C     C_R   0.549065 0.812352 0.795353 -0.048503
C9    C     C_R   0.445403 0.214642 0.027575 -0.186950
C10   C     C_R   0.638955 0.783662 0.970006 -0.185555
C11   C     C_R   0.443580 0.149120 0.128876 -0.227726
C12   C     C_R   0.606464 0.850351 0.869890 -0.238328
C13   C     C_R   0.516389 0.291867 0.178066 -0.244377
C14   C     C_R   0.523512 0.707562 0.822085 -0.255733
C15   C     C_R   0.523592 0.359243 0.076839 0.055421
C16   C     C_R   0.562336 0.638828 0.920944 0.054244
C17   C     C_R   0.483446 0.319918 0.000223 0.149212
C18   C     C_R   0.617944 0.677844 0.996606 0.172981
C19   C     C_R   0.563834 0.465189 0.049880 0.040387
C20   C     C_R   0.543469 0.532333 0.946597 0.030317
C21   C     C_R   0.507738 0.491107 0.871965 -0.263499
C22   C     C_R   0.625158 0.505910 0.122784 -0.292037
C23   C     C_R   0.262842 0.999138 0.501954 0.798434
C24   C     C_R   0.737137 0.000639 0.497990 0.792425
C25   C     C_R   0.480210 0.386425 0.897808 0.137387
C26   C     C_R   0.651995 0.610587 0.097016 0.119592
C27   C     C_R   0.709406 0.276057 0.677328 0.025397
C28   C     C_R   0.289237 0.719681 0.326794 0.028415
C29   C     C_R   0.675301 0.197862 0.642419 0.037048
C30   C     C_R   0.318686 0.797416 0.362270 0.028453
C31   C     C_R   0.524236 0.288145 0.508744 0.005683
C32   C     C_R   0.482641 0.715492 0.488491 0.019836
C33   C     C_R   0.557661 0.374085 0.535447 -0.080931
C34   C     C_R   0.456397 0.631293 0.459521 -0.077484
C35   C     C_R   0.651554 0.367323 0.623583 0.099486
C36   C     C_R   0.363953 0.637768 0.371039 0.107834
C37   C     C_R   0.497969 0.464603 0.478136 0.042918
C38   C     C_R   0.521998 0.543464 0.513811 0.039719
C39   C     C_R   0.610639 0.532536 0.603066 -0.265782
C40   C     C_R   0.418322 0.479607 0.384059 -0.261546
C41   C     C_R   0.681760 0.450704 0.654784 0.085788
C42   C     C_R   0.353303 0.564736 0.328642 0.095083
C43   C     C_R   0.349612 0.025475 0.791170 -0.131476
C44   C     C_R   0.648960 0.932874 0.223220 -0.131272
C45   C     C_R   0.251475 0.994701 0.725503 -0.122459
C46   C     C_R   0.738344 0.976288 0.284079 -0.101109
C47   C     C_R   0.187576 0.067394 0.640475 0.122256
C48   C     C_R   0.813019 0.914692 0.371232 0.124880
C49   C     C_R   0.221599 0.170780 0.622598 -0.143938
C50   C     C_R   0.797847 0.809703 0.396181 -0.156660
C51   C     C_R   0.320671 0.201248 0.687852 -0.107776
C52   C     C_R   0.708120 0.766704 0.335428 -0.119532
C53   C     C_R   0.385005 0.128724 0.771873 -0.101693
C54   C     C_R   0.633487 0.828114 0.249081 -0.104315
C55   C     C_R   0.964040 0.038726 0.559765 -0.236691
C56   C     C_R   0.036008 0.958863 0.441521 -0.240157
Cu1   Cu    Cu3+1 0.466270 0.918260 0.475690 0.937181
Cu2   Cu    Cu3+1 0.533730 0.081740 0.524310 0.938887
H1    H     H_    0.462930 0.152197 0.821681 0.116808
H2    H     H_    0.563591 0.794505 0.202379 0.128778
H3    H     H_    0.415287 0.182427 0.970881 0.159843
H4    H     H_    0.682045 0.815471 0.026061 0.169730
H5    H     H_    0.505852 0.538592 0.792393 0.134554
H6    H     H_    0.655634 0.458111 0.200838 0.147892
H7    H     H_    0.559333 0.722357 0.547229 0.130058
H8    H     H_    0.447146 0.283539 0.449258 0.129732
H9    H     H_    0.264889 0.861168 0.326786 0.125339
H10   H     H_    0.719418 0.129115 0.683148 0.126059
H11   H     H_    0.624870 0.587740 0.634837 0.131195
H12   H     H_    0.409167 0.426068 0.350740 0.132326
H13   H     H_    0.399389 0.969422 0.856182 0.121797
H14   H     H_    0.591655 0.980361 0.156037 0.116951
H15   H     H_    0.226967 0.914669 0.739587 0.107936
H16   H     H_    0.748992 0.057429 0.263759 0.108695
H17   H     H_    0.174514 0.227731 0.556446 0.123988
H18   H     H_    0.854186 0.761086 0.463434 0.124479
H19   H     H_    0.348840 0.281268 0.671738 0.144011
H20   H     H_    0.695686 0.685543 0.356184 0.136390
H21   H     H_    0.936283 0.067388 0.607775 0.152223
H22   H     H_    0.064077 0.929299 0.394379 0.152696
H23   H     H_    0.470847 0.681186 0.764318 0.154298
H24   H     H_    0.535907 0.319618 0.237522 0.148858
H25   H     H_    0.627223 0.931478 0.850795 0.149845
H26   H     H_    0.413423 0.068576 0.147732 0.150619
N1    N     N_R   0.584450 0.204570 0.560790 -0.183942
N2    N     N_R   0.415550 0.795430 0.439210 -0.185703
O1    O     O_R   0.455540 0.022090 0.338120 -0.584071
O2    O     O_R   0.544460 0.977910 0.661880 -0.584096
O3    O     O_R   0.512510 0.160150 0.379180 -0.591870
O4    O     O_R   0.487490 0.839850 0.620820 -0.591988
O5    O     O_R   0.291160 0.930970 0.479480 -0.590083
O6    O     O_R   0.708840 0.069030 0.520520 -0.587727
O7    O     O_R   0.348130 0.069020 0.520540 -0.566538
O8    O     O_R   0.651870 0.930980 0.479460 -0.571642
C57   C     C_3   0.788851 0.453244 0.742984 -0.350867
C58   C     C_3   0.825559 0.552877 0.760332 -0.398746
C59   C     C_3   0.941822 0.546979 0.843429 -0.831549
H27   H     H_    0.920721 0.483583 0.916101 0.257187
H28   H     H_    0.026758 0.535096 0.821527 0.255399
H29   H     H_    0.965078 0.619224 0.854952 0.244505
H30   H     H_    0.849323 0.617574 0.689081 0.223469
H31   H     H_    0.744645 0.567401 0.784693 0.227308
H32   H     H_    0.760486 0.391998 0.814584 0.222560
H33   H     H_    0.877517 0.439179 0.727981 0.230686
C60   C     C_3   0.279965 0.580762 0.221763 -0.362744
C61   C     C_3   0.305918 0.515116 0.171813 -0.402452
C62   C     C_3   0.247521 0.551662 0.059630 -0.819581
H34   H     H_    0.142102 0.549434 0.050592 0.254398
H35   H     H_    0.291785 0.630492 0.017207 0.253545
H36   H     H_    0.265935 0.501391 0.026812 0.251931
H37   H     H_    0.410849 0.519220 0.177580 0.237430
H38   H     H_    0.263602 0.434697 0.210693 0.220085
H39   H     H_    0.175203 0.566496 0.224203 0.228005
H40   H     H_    0.307589 0.661223 0.171081 0.219243
N3    N     N_3   0.799282 0.258504 0.769203 -0.646414
H41   H     H_    0.761236 0.193690 0.826804 0.212059
H42   H     H_    0.884103 0.243881 0.758573 0.222154
N4    N     N_3   0.180036 0.723612 0.249318 -0.639511
H43   H     H_    0.194422 0.791937 0.186444 0.211820
H44   H     H_    0.099152 0.724261 0.276486 0.224433
N5    N     N_3   0.446217 0.347594 0.819651 -0.619556
H45   H     H_    0.427009 0.406003 0.748338 0.224642
H46   H     H_    0.526720 0.319699 0.818979 0.209901
N6    N     N_3   0.710598 0.647965 0.174464 -0.621859
H47   H     H_    0.798883 0.620844 0.206910 0.226166
H48   H     H_    0.651721 0.616865 0.230700 0.214052

loop_
_geom_bond_atom_site_label_1
_geom_bond_atom_site_label_2
_ccdc_geom_bond_type
C1    O1    A    
C31   H8    S    
C31   N1    A    
C58   H31   S    
C27   C29   A    
N3    H42   S    
C5    C56   A    
C36   C42   A    
C57   C58   S    
C18   C26   A    
C6    C55   A    
C59   H27   S    
C53   H1    S    
C39   C41   A    
C54   H2    S    
C15   C19   A    
C40   H12   S    
C9    H3    S    
C60   H39   S    
Cu2   O7    S    
C37   C40   A    
C50   H18   S    
C38   C39   A    
C61   C62   S    
N3    H41   S    
Cu1   N2    S    
C45   H15   S    
C42   C60   S    
C2    O4    A    
N4    H43   S    
C3    C55   A    
C43   C53   A    
C19   C20   A    
C57   H32   S    
C49   C51   A    
C50   C52   A    
C62   H34   S    
C49   H17   S    
Cu1   O1    S    
C2    O2    A    
C14   C16   A    
C30   N2    A    
C29   N1    A    
C30   H9    S    
C8    C12   A    
C48   C50   A    
C1    C7    S    
C58   H30   S    
C4    C56   A    
C62   H35   S    
C3    C24   S    
C10   H4    S    
C26   N6    S    
C52   H20   S    
C24   O6    A    
C59   H28   S    
C1    O3    A    
C52   C54   A    
C61   H37   S    
C45   C47   A    
C5    C48   S    
C46   C48   A    
N5    H46   S    
Cu1   O4    S    
C60   H40   S    
C19   C22   A    
C43   H13   S    
C4    C6    A    
C6    C47   S    
C4    C23   S    
C61   H38   S    
C44   C46   A    
C27   C35   A    
C13   H24   S    
C33   C37   A    
C23   O7    A    
C12   H25   S    
C51   C53   A    
C32   C34   A    
C7    C11   A    
C51   H19   S    
C37   C38   A    
C24   O8    A    
C29   H10   S    
C55   H21   S    
C16   C20   A    
C32   N2    A    
C58   C59   S    
C31   C33   A    
C39   H11   S    
C9    C11   A    
N5    H45   S    
C10   C12   A    
C9    C17   A    
Cu1   O8    S    
C13   C15   A    
C62   H36   S    
C23   O5    A    
Cu2   N1    S    
C46   H16   S    
C59   H29   S    
C57   H33   S    
N6    H48   S    
C15   C17   A    
C21   C25   A    
C8    C14   A    
Cu1   O5    S    
C34   C38   A    
C2    C8    S    
C3    C5    A    
Cu2   O2    S    
C11   H26   S    
C47   C49   A    
C60   C61   S    
C56   H22   S    
C17   C25   A    
C28   C30   A    
C43   C45   A    
C28   N4    S    
Cu1   Cu2   S    
C41   C57   S    
Cu2   O6    S    
C10   C18   A    
C40   C42   A    
C33   C35   A    
C44   H14   S    
C34   C36   A    
C35   C41   A    
Cu2   O3    S    
N4    H44   S    
C21   H5    S    
C22   H6    S    
C44   C54   A    
C7    C13   A    
C20   C21   A    
C28   C36   A    
C16   C18   A    
C22   C26   A    
N6    H47   S    
C14   H23   S    
C25   N5    S    
C32   H7    S    
C27   N3    S    
