data_mof_unit_7630.cif
_audit_creation_date              2012-10-26T19:21:31-0400
_audit_creation_method            fapswitch 2.2
_symmetry_space_group_name_H-M    P1
_symmetry_Int_Tables_number       1
_space_group_crystal_system       triclinic
_cell_length_a                    9.873137
_cell_length_b                    11.097382
_cell_length_c                    15.828834
_cell_angle_alpha                 96.056606
_cell_angle_beta                  78.680991
_cell_angle_gamma                 110.065212
_cell_volume                      1595.97639249

loop_
_atom_site_label
_atom_site_type_symbol
_atom_type_description
_atom_site_fract_x
_atom_site_fract_y
_atom_site_fract_z
_atom_type_partial_charge
C1    C     C_R   0.554899 0.745244 0.503462 0.571882
C2    C     C_2   0.461266 0.053811 0.516259 0.217517
C3    C     C_2   0.950492 0.532810 0.480712 0.435168
C4    C     C_2   0.083308 0.519736 0.506014 0.461594
C5    C     C_R   0.411438 0.486929 0.662712 0.569696
C6    C     C_R   0.589014 0.517718 0.337568 0.503622
C7    C     C_R   0.358801 0.481442 0.756453 0.014403
C8    C     C_R   0.642080 0.539670 0.244883 0.000954
C9    C     C_R   0.164688 0.446614 0.880486 -0.045508
C10   C     C_R   0.834128 0.631481 0.126141 -0.046265
C11   C     C_R   0.210490 0.453741 0.791481 -0.084103
C12   C     C_R   0.449674 0.257465 0.487783 0.593443
C13   C     C_R   0.788540 0.606185 0.213219 -0.089119
C14   C     C_R   0.460590 0.505036 0.811542 -0.099321
C15   C     C_R   0.540366 0.503753 0.188650 -0.115213
C16   C     C_R   0.418683 0.505397 0.901661 0.002012
C17   C     C_R   0.581055 0.538615 0.101982 0.001210
C18   C     C_R   0.267019 0.470338 0.936332 0.068960
C19   C     C_R   0.732236 0.597507 0.069536 0.066658
C20   C     C_R   0.523869 0.536955 0.957634 -0.012491
C21   C     C_R   0.475575 0.516384 0.047083 -0.016329
C22   C     C_3   0.442021 0.087962 0.363943 -0.296941
C23   C     C_R   0.323713 0.480351 0.079559 -0.071230
C24   C     C_3   0.501796 0.199549 0.303225 -0.419842
C25   C     C_3   0.718583 0.977722 0.529264 -0.297009
C26   C     C_3   0.845386 0.985647 0.454676 -0.399721
C27   C     C_R   0.675589 0.592825 0.927218 -0.068121
C28   C     C_R   0.221240 0.459518 0.025767 0.248672
C29   C     C_R   0.777961 0.623680 0.981834 0.242328
C30   C     C_2   0.575342 0.884047 0.506626 0.007851
C31   C     C_2   0.442415 0.127271 0.459697 0.029390
C32   C     C_2   0.465721 0.924227 0.491316 0.241954
Cl1   Cl    Cl    0.035136 0.417316 0.074266 -0.564613
Cl2   Cl    Cl    0.963926 0.694636 0.936202 -0.538501
Cl3   Cl    Cl    0.456261 0.100965 0.627309 -0.520519
Cl4   Cl    Cl    0.313397 0.826342 0.442796 -0.535949
Cl5   Cl    Cl    0.152048 0.624297 0.591787 -0.427935
Cl6   Cl    Cl    0.973876 0.567503 0.372472 -0.518276
Cl7   Cl    Cl    0.085001 0.333058 0.385959 -0.491664
Cl8   Cl    Cl    0.826456 0.500984 0.640662 -0.444551
Cu1   Cu    Cu3+1 0.362980 0.479380 0.485080 1.163396
Cu2   Cu    Cu3+1 0.637020 0.520620 0.514920 1.144315
H1    H     H_    0.429501 0.447399 0.213933 0.150890
H2    H     H_    0.611877 0.262631 0.314759 0.183446
H3    H     H_    0.511710 0.161639 0.235327 0.173933
H4    H     H_    0.511081 0.025979 0.342442 0.177158
H5    H     H_    0.328102 0.033049 0.354672 0.217998
H6    H     H_    0.862084 0.891237 0.439682 0.194887
H7    H     H_    0.823588 0.018138 0.396191 0.176648
H8    H     H_    0.947793 0.055942 0.472413 0.206314
H9    H     H_    0.715367 0.076614 0.543959 0.206023
H10   H     H_    0.741755 0.946371 0.587719 0.199385
H11   H     H_    0.572481 0.519076 0.782422 0.176496
H12   H     H_    0.867735 0.642039 0.255611 0.202569
H13   H     H_    0.129574 0.435386 0.750151 0.188870
H14   H     H_    0.048654 0.422135 0.904869 0.205558
H15   H     H_    0.949243 0.680956 0.104325 0.204961
H16   H     H_    0.280863 0.473225 0.147604 0.179495
H17   H     H_    0.718716 0.620203 0.861496 0.175583
H18   H     H_    0.425276 0.254988 0.312047 0.184198
N1    N     N_2   0.842890 0.551600 0.537350 -0.058446
N2    N     N_2   0.157110 0.448400 0.462650 -0.057958
O1    O     O_R   0.426810 0.668300 0.492040 -0.414479
O2    O     O_R   0.573190 0.331700 0.507960 -0.467262
O3    O     O_R   0.658240 0.703130 0.517240 -0.507499
O4    O     O_R   0.341760 0.296870 0.482760 -0.478524
O5    O     O_R   0.319390 0.472820 0.610170 -0.478350
O6    O     O_R   0.680610 0.527180 0.389830 -0.480483
O7    O     O_R   0.550820 0.507640 0.635370 -0.452573
O8    O     O_R   0.449180 0.492360 0.364630 -0.490639

loop_
_geom_bond_atom_site_label_1
_geom_bond_atom_site_label_2
_ccdc_geom_bond_type
C2    Cl3   S    
Cu2   O3    S    
C1    O3    A    
C25   H9    S    
C6    O8    A    
C8    C13   A    
C20   C27   A    
C4    N2    D    
C27   C29   A    
C5    C7    S    
Cu1   Cu2   S    
C12   C31   S    
C26   H6    S    
C10   C19   A    
C16   C20   A    
C11   H13   S    
C14   H11   S    
C6    O6    A    
C22   H5    S    
C25   H10   S    
C15   H1    S    
Cu1   O5    S    
C9    H14   S    
C27   H17   S    
C23   C28   A    
C4    Cl5   S    
C30   C32   D    
C9    C11   A    
Cu2   N1    S    
Cu1   O4    S    
C5    O5    A    
C12   O2    A    
C24   H3    S    
C1    O1    A    
C2    C32   S    
C1    C30   S    
C22   H4    S    
C28   Cl1   S    
C7    C11   A    
C23   H16   S    
C22   C24   S    
C26   H8    S    
C21   C23   A    
Cu2   O6    S    
C24   H2    S    
C14   C16   A    
C22   C31   S    
Cu1   O1    S    
C3    N1    D    
C3    C4    S    
C19   C29   A    
C32   Cl4   S    
C9    C18   A    
Cu2   O2    S    
C10   H15   S    
C18   C28   A    
C20   C21   A    
C16   C18   A    
C13   H12   S    
C26   H7    S    
C25   C30   S    
C15   C17   A    
Cl7   N2    S    
Cu1   N2    S    
C2    C31   D    
C24   H18   S    
C6    C8    S    
C8    C15   A    
C17   C19   A    
C25   C26   S    
C12   O4    A    
C29   Cl2   S    
C5    O7    A    
Cu2   O7    S    
C7    C14   A    
Cl8   N1    S    
C3    Cl6   S    
Cu1   O8    S    
C10   C13   A    
C17   C21   A    
