data_mof_unit_64019.cif
_audit_creation_date              2012-12-10T21:24:20-0500
_audit_creation_method            fapswitch 2.2
_symmetry_space_group_name_H-M    P1
_symmetry_Int_Tables_number       1
_space_group_crystal_system       triclinic
_cell_length_a                    16.866605
_cell_length_b                    16.804163
_cell_length_c                    17.281765
_cell_angle_alpha                 85.967179
_cell_angle_beta                  87.85679
_cell_angle_gamma                 96.005226
_cell_volume                      4854.26815124

loop_
_atom_site_label
_atom_site_type_symbol
_atom_type_description
_atom_site_fract_x
_atom_site_fract_y
_atom_site_fract_z
_atom_type_partial_charge
C1    C     C_R   0.498426 0.500659 0.648293 0.952275
C2    C     C_R   0.501146 0.496348 0.352297 0.929471
C3    C     C_R   0.432973 0.428242 0.245272 0.488333
C4    C     C_R   0.565525 0.486735 0.774191 0.501450
C5    C     C_R   0.501954 0.472696 0.271055 -0.152741
C6    C     C_R   0.493930 0.490249 0.734637 -0.171529
C7    C     C_R   0.572343 0.485938 0.221431 -0.154173
C8    C     C_R   0.419122 0.474175 0.777555 -0.183250
C9    C     C_R   0.572341 0.456298 0.146978 -0.076598
C10   C     C_R   0.417338 0.441105 0.855132 -0.074971
C11   C     C_R   0.501630 0.416631 0.121810 0.018981
C12   C     C_R   0.489426 0.431585 0.890732 -0.006073
C13   C     C_1   0.493769 0.407789 0.041119 0.083278
C14   C     C_1   0.490527 0.412643 0.972206 0.058000
C15   C     C_R   0.157431 0.449557 0.546067 -0.269551
C16   C     C_R   0.842500 0.559512 0.462563 -0.258359
C17   C     C_R   0.240614 0.445217 0.546008 0.043325
C18   C     C_R   0.758957 0.560654 0.460741 0.096148
C19   C     C_R   0.260580 0.554949 0.449890 0.035853
C20   C     C_R   0.740258 0.438866 0.541696 0.033163
C21   C     C_R   0.176244 0.560170 0.449479 -0.162022
C22   C     C_R   0.825056 0.437441 0.544476 -0.153533
C23   C     C_R   0.489027 0.346613 0.495114 0.970462
C24   C     C_R   0.510954 0.653959 0.503833 0.959387
C25   C     C_R   0.124332 0.506058 0.498619 0.039989
C26   C     C_R   0.876394 0.499194 0.504058 0.038469
C27   C     C_1   0.036824 0.504720 0.500594 0.096690
C28   C     C_1   0.964036 0.501968 0.502477 0.099594
C29   C     C_R   0.481290 0.262466 0.474504 -0.249980
C30   C     C_R   0.518379 0.741979 0.509411 -0.246831
C31   C     C_R   0.543105 0.232313 0.430625 -0.141423
C32   C     C_R   0.449449 0.782385 0.519741 -0.129503
C33   C     C_R   0.537362 0.151109 0.418776 -0.239415
C34   C     C_R   0.455408 0.864698 0.504246 -0.237781
C35   C     C_R   0.469636 0.100180 0.445122 0.142570
C36   C     C_R   0.528897 0.909314 0.482913 0.145023
C37   C     C_R   0.403613 0.130909 0.479500 0.347482
C38   C     C_R   0.599552 0.871448 0.484885 0.345409
C39   C     C_R   0.410450 0.211946 0.496529 0.413287
C40   C     C_R   0.594180 0.787405 0.500451 0.405204
C41   C     C_R   0.433404 0.402194 0.170232 -0.253669
C42   C     C_R   0.562268 0.456196 0.851597 -0.238245
H1    H     H_    0.402342 0.895072 0.511894 0.213583
H2    H     H_    0.585830 0.126651 0.388668 0.211225
H3    H     H_    0.379441 0.372302 0.148609 0.159829
H4    H     H_    0.616990 0.453511 0.882294 0.164400
H5    H     H_    0.117290 0.407278 0.583206 0.204202
H6    H     H_    0.882256 0.606582 0.430764 0.200819
N1    N     N_2   0.469836 0.016598 0.445779 -0.156691
N2    N     N_2   0.533050 0.993586 0.469543 -0.149456
N3    N     N_R   0.292770 0.500020 0.499970 -0.147643
N4    N     N_R   0.707230 0.499980 0.500030 -0.145521
O1    O     O_R   0.433430 0.500000 0.610870 -0.572261
O2    O     O_R   0.566570 0.500000 0.389130 -0.552524
O3    O     O_R   0.566520 0.499990 0.610900 -0.549707
O4    O     O_R   0.433480 0.500010 0.389100 -0.570575
O5    O     O_R   0.426030 0.383870 0.500690 -0.542235
O6    O     O_R   0.573970 0.616130 0.499310 -0.549767
O7    O     O_R   0.559120 0.383870 0.500710 -0.633244
O8    O     O_R   0.440880 0.616130 0.499290 -0.610958
Zn1   Zn    Zn3+2 0.411140 0.500000 0.499980 1.065436
Zn2   Zn    Zn3+2 0.588860 0.500000 0.500020 1.072716
C43   C     C_2   0.371342 0.743116 0.552594 1.048033
O9    O     O_2   0.368884 0.690918 0.605673 -0.562821
O10   O     O_R   0.300438 0.769059 0.525776 -0.741798
H7    H     H_    0.251239 0.737931 0.552941 0.356929
C44   C     C_2   0.613202 0.282871 0.393029 1.033176
O11   O     O_2   0.604658 0.346521 0.357459 -0.619526
O12   O     O_R   0.688595 0.255344 0.394552 -0.739825
H8    H     H_    0.731520 0.294768 0.366374 0.364133
C45   C     C_2   0.265556 0.375269 0.593266 1.035089
O13   O     O_2   0.219058 0.314169 0.604611 -0.598029
O14   O     O_R   0.338469 0.378193 0.628224 -0.746354
H9    H     H_    0.345324 0.327585 0.661751 0.365482
C46   C     C_2   0.732585 0.631594 0.416371 1.008274
O15   O     O_2   0.776568 0.694685 0.409577 -0.610934
O16   O     O_R   0.661105 0.627460 0.378924 -0.759668
H10   H     H_    0.650029 0.681156 0.353393 0.349297
C47   C     C_2   0.311103 0.600865 0.386963 1.007735
O17   O     O_2   0.315776 0.573643 0.323391 -0.582638
O18   O     O_R   0.346261 0.678104 0.397093 -0.762579
H11   H     H_    0.377595 0.703807 0.348919 0.346262
C48   C     C_2   0.688634 0.374933 0.587597 0.995593
O19   O     O_2   0.662446 0.386723 0.652054 -0.597429
O20   O     O_R   0.674900 0.298961 0.559520 -0.743007
H12   H     H_    0.639816 0.259656 0.596629 0.348297
C49   C     C_2   0.142526 0.620853 0.396769 0.930519
O21   O     O_2   0.175158 0.689555 0.387784 -0.558669
O22   O     O_R   0.073198 0.599550 0.357739 -0.784439
H13   H     H_    0.056018 0.646074 0.324170 0.363898
C50   C     C_2   0.860451 0.373101 0.590986 0.927167
O23   O     O_2   0.835805 0.302617 0.586492 -0.549585
O24   O     O_R   0.923115 0.393402 0.639126 -0.790411
H14   H     H_    0.942768 0.344652 0.667106 0.364254
O25   O     O_3   0.333938 0.082364 0.501884 -0.744902
H15   H     H_    0.333659 0.030319 0.478337 0.365136
O26   O     O_3   0.674215 0.913853 0.470792 -0.735281
H16   H     H_    0.669344 0.971578 0.459200 0.370860
O27   O     O_3   0.349610 0.242990 0.536153 -0.729507
H17   H     H_    0.304148 0.201345 0.548632 0.411625
O28   O     O_3   0.661756 0.748429 0.509170 -0.716052
H18   H     H_    0.709532 0.787845 0.510136 0.409133
O29   O     O_3   0.365890 0.409869 0.294370 -0.708062
H19   H     H_    0.323831 0.378142 0.267492 0.344023
O30   O     O_3   0.637883 0.515902 0.737124 -0.696042
H20   H     H_    0.681603 0.509065 0.773022 0.348907
C51   C     C_2   0.646169 0.531238 0.244895 1.040320
O31   O     O_2   0.694336 0.496725 0.282092 -0.575789
O32   O     O_R   0.663312 0.612026 0.218649 -0.753027
H21   H     H_    0.718461 0.635218 0.232464 0.361743
C52   C     C_2   0.344857 0.502199 0.746707 1.003605
O33   O     O_2   0.346306 0.570643 0.717535 -0.550681
O34   O     O_R   0.272858 0.452318 0.753802 -0.758279
H22   H     H_    0.226898 0.479239 0.731286 0.342411
C53   C     C_2   0.645526 0.466518 0.094180 0.926816
O35   O     O_2   0.686826 0.531017 0.085163 -0.571918
O36   O     O_R   0.665831 0.402016 0.053392 -0.784467
H23   H     H_    0.715816 0.416196 0.018655 0.355984
C54   C     C_2   0.341159 0.421705 0.901575 0.962485
O37   O     O_2   0.295716 0.363106 0.888518 -0.544784
O38   O     O_R   0.322927 0.469239 0.961606 -0.785309
H24   H     H_    0.269994 0.449463 0.989813 0.358802

loop_
_geom_bond_atom_site_label_1
_geom_bond_atom_site_label_2
_ccdc_geom_bond_type
O6    Zn2   S    
C38   C40   A    
C49   O21   D    
C21   C49   S    
C18   C46   S    
O14   H9    S    
O25   H15   S    
N3    Zn1   S    
C15   H5    S    
C16   H6    S    
C43   O10   S    
O26   H16   S    
C18   N4    A    
O16   H10   S    
C23   O7    A    
O24   H14   S    
C48   O19   D    
C23   C29   S    
C35   C37   A    
C15   C25   A    
C53   O35   D    
O3    Zn2   S    
C37   O25   S    
C7    C9    A    
C42   H4    S    
C1    O1    A    
C12   C42   A    
C10   C54   S    
C40   O28   S    
O1    Zn1   S    
C52   O33   D    
C53   O36   S    
C35   N1    S    
C22   C50   S    
C31   C33   A    
C24   O8    A    
C13   C14   T    
C29   C31   A    
C51   O32   S    
C17   N3    A    
C38   O26   S    
O18   H11   S    
C54   O38   S    
C16   C26   A    
C44   O11   D    
C9    C53   S    
O28   H18   S    
C4    C6    A    
C2    O2    A    
C8    C52   S    
C50   O23   D    
C47   O18   S    
C6    C8    A    
O2    Zn2   S    
O20   H12   S    
C1    C6    S    
O8    Zn1   S    
C44   O12   S    
C32   C34   A    
C31   C44   S    
C46   O15   D    
C50   O24   S    
C9    C11   A    
C39   O27   S    
O27   H17   S    
C51   O31   D    
C29   C39   A    
C30   C40   A    
C52   O34   S    
C16   C18   A    
C19   C47   S    
C46   O16   S    
O38   H24   S    
C10   C12   A    
C23   O5    A    
C8    C10   A    
C48   O20   S    
C20   C22   A    
C17   C45   S    
C49   O22   S    
C7    C51   S    
C2    C5    S    
O29   H19   S    
C36   N2    S    
C5    C7    A    
O34   H22   S    
C4    O30   S    
C3    O29   S    
C15   C17   A    
C21   C25   A    
C3    C41   A    
O7    Zn2   S    
C19   C21   A    
C33   H2    S    
C34   H1    S    
C32   C43   S    
C12   C14   S    
C43   O9    D    
C3    C5    A    
C54   O37   D    
O5    Zn1   S    
C25   C27   S    
O30   H20   S    
C26   C28   S    
C20   N4    A    
C36   C38   A    
C1    O3    A    
C45   O13   D    
C37   C39   A    
C2    O4    A    
O32   H21   S    
C30   C32   A    
C11   C13   S    
C4    C42   A    
C33   C35   A    
C11   C41   A    
C34   C36   A    
O10   H7    S    
O12   H8    S    
C24   C30   S    
C47   O17   D    
C19   N3    A    
C24   O6    A    
N1    N2    D    
C22   C26   A    
C20   C48   S    
C45   O14   S    
C27   C28   T    
C41   H3    S    
O4    Zn1   S    
N4    Zn2   S    
O22   H13   S    
O36   H23   S    
