data_mof_unit_23192.cif
_audit_creation_date              2012-12-11T16:05:14-0500
_audit_creation_method            fapswitch 2.2
_symmetry_space_group_name_H-M    P1
_symmetry_Int_Tables_number       1
_space_group_crystal_system       triclinic
_cell_length_a                    10.6197
_cell_length_b                    10.703363
_cell_length_c                    16.852988
_cell_angle_alpha                 98.378316
_cell_angle_beta                  98.54581
_cell_angle_gamma                 60.739272
_cell_volume                      1646.70180024

loop_
_atom_site_label
_atom_site_type_symbol
_atom_type_description
_atom_site_fract_x
_atom_site_fract_y
_atom_site_fract_z
_atom_type_partial_charge
C1    C     C_R   0.381003 0.712151 0.386315 0.544298
C2    C     C_3   0.307587 0.714376 0.231730 -0.131813
C3    C     C_3   0.362640 0.769838 0.310890 0.013149
C4    C     C_R   0.366629 0.344109 0.359893 0.537687
C5    C     C_3   0.474345 0.782636 0.269152 -0.134715
C6    C     C_3   0.360419 0.940511 0.255462 -0.176103
C7    C     C_3   0.249693 0.927030 0.299026 -0.100360
C8    C     C_3   0.196167 0.871176 0.219885 0.298758
C9    C     C_3   0.303874 0.886721 0.176460 0.065523
C10   C     C_3   0.429704 0.249662 0.769473 0.280745
C11   C     C_3   0.356174 0.396312 0.735783 -0.136296
C12   C     C_3   0.688927 0.398473 0.233563 -0.157051
C13   C     C_3   0.321770 0.323406 0.655698 0.034141
C14   C     C_3   0.394721 0.178277 0.691126 0.268988
C15   C     C_3   0.248976 0.208849 0.717044 -0.181215
C16   C     C_R   0.718482 0.409553 0.390223 0.539692
C17   C     C_3   0.174335 0.357402 0.680898 -0.172385
C18   C     C_3   0.208837 0.428840 0.762447 -0.145638
C19   C     C_3   0.285045 0.280974 0.796871 0.018033
C20   C     C_1   0.852457 0.326756 0.705095 -0.066660
C21   C     C_1   0.900636 0.293655 0.772651 -0.087718
C22   C     C_1   0.358792 0.758702 0.714906 -0.085477
C23   C     C_3   0.780018 0.371374 0.314387 0.047154
C24   C     C_1   0.328329 0.806977 0.782714 -0.064769
C25   C     C_R   0.949296 0.287944 0.102747 0.533630
C26   C     C_R   0.291948 0.262688 0.123235 0.532148
C27   C     C_R   0.262154 0.948523 0.100015 0.535653
C28   C     C_R   0.380926 0.712449 0.631484 0.561438
C29   C     C_R   0.945713 0.274882 0.856462 0.538893
C30   C     C_R   0.276432 0.252104 0.877122 0.559600
C31   C     C_R   0.283349 0.879222 0.859982 0.548472
C32   C     C_R   0.364206 0.344331 0.583287 0.565888
C33   C     C_R   0.780101 0.376601 0.628414 0.546962
C34   C     C_3   0.889070 0.220520 0.282989 -0.081934
C35   C     C_1   0.326136 0.319976 0.277912 -0.073861
C36   C     C_1   0.306561 0.295613 0.207176 -0.081869
C37   C     C_3   0.799151 0.247185 0.200300 -0.067300
C38   C     C_3   0.984616 0.857473 0.224504 -0.032068
C39   C     C_3   0.966296 0.746777 0.163027 -0.345077
C40   C     C_3   0.680331 0.153414 0.782406 -0.011019
C41   C     C_3   0.807668 0.017059 0.815392 -0.313902
C42   C     C_3   0.555888 0.938065 0.695510 0.000212
C43   C     C_3   0.696315 0.821979 0.661764 -0.323564
C44   C     C_3   0.978561 0.285032 0.258536 -0.137862
C45   C     C_3   0.868797 0.436314 0.291249 -0.116797
C46   C     C_3   0.777885 0.463619 0.209559 -0.123070
C47   C     C_3   0.887528 0.312840 0.177583 0.070642
C48   C     C_3   0.417073 0.730046 0.188329 -0.145611
Cr1   Cr    Cr6+3 0.608340 0.611040 0.520430 0.991067
Cr2   Cr    Cr6+3 0.287650 0.601120 0.489350 1.001702
Cr3   Cr    Cr6+3 0.604040 0.287870 0.490280 1.022683
Cr4   Cr    Cr6+3 0.054020 0.052700 0.970850 1.008351
Cr5   Cr    Cr6+3 0.059230 0.375120 0.993390 1.003129
Cr6   Cr    Cr6+3 0.374950 0.061200 0.992340 1.017800
H1    H     H_    0.569746 0.442027 0.226102 0.108465
H2    H     H_    0.589492 0.744404 0.292388 0.129793
H3    H     H_    0.874995 0.941431 0.240104 0.138364
H4    H     H_    0.043745 0.807536 0.281442 0.138607
H5    H     H_    0.072700 0.662873 0.143088 0.176282
H6    H     H_    0.916474 0.694789 0.190236 0.099615
H7    H     H_    0.894827 0.800181 0.109688 0.158562
H8    H     H_    0.401520 0.471562 0.741753 0.107539
H9    H     H_    0.702917 0.244339 0.796011 0.171940
H10   H     H_    0.667225 0.135433 0.715748 0.163773
H11   H     H_    0.908059 0.993264 0.789565 0.140134
H12   H     H_    0.383645 0.031933 0.263595 0.120499
H13   H     H_    0.793423 0.920983 0.800490 0.098324
H14   H     H_    0.820412 0.030077 0.882161 0.203727
H15   H     H_    0.478306 0.900429 0.696951 0.166814
H16   H     H_    0.577736 0.965402 0.759778 0.154420
H17   H     H_    0.773456 0.864260 0.663057 0.120014
H18   H     H_    0.746620 0.728215 0.698372 0.122043
H19   H     H_    0.675621 0.788064 0.598016 0.206182
H20   H     H_    0.930069 0.124890 0.317017 0.134688
H21   H     H_    0.098176 0.237275 0.266789 0.089118
H22   H     H_    0.896926 0.514727 0.329119 0.132938
H23   H     H_    0.183933 0.004397 0.346833 0.126373
H24   H     H_    0.289767 0.619369 0.225213 0.103656
H25   H     H_    0.206822 0.131052 0.711701 0.108011
H26   H     H_    0.070803 0.403202 0.642004 0.146930
H27   H     H_    0.131258 0.531250 0.793516 0.146049
H28   H     H_    0.771761 0.169630 0.160921 0.162013
H29   H     H_    0.735278 0.563009 0.178536 0.131745
H30   H     H_    0.481736 0.653912 0.139795 0.138088
O1    O     O_R   0.751220 0.499230 0.435170 -0.529521
O2    O     O_R   0.412990 0.180750 0.091610 -0.494103
O3    O     O_R   0.366620 0.943130 0.065760 -0.517981
O4    O     O_R   0.477220 0.727600 0.436870 -0.489339
O5    O     O_R   0.160510 0.906330 0.879210 -0.524728
O6    O     O_R   0.930190 0.179050 0.889450 -0.509867
O7    O     O_R   0.909140 0.398170 0.896710 -0.491511
O8    O     O_R   0.186190 0.363460 0.918830 -0.501058
O9    O     O_R   0.401670 0.173200 0.913310 -0.439384
O10   O     O_R   0.356120 0.936130 0.900470 -0.514352
O11   O     O_3   0.162740 0.163010 0.985530 -0.347395
O12   O     O_R   0.297880 0.469080 0.560050 -0.524451
O13   O     O_R   0.258650 0.745120 0.411470 -0.518145
O14   O     O_R   0.297070 0.467240 0.395960 -0.519542
O15   O     O_R   0.488830 0.252610 0.387790 -0.511159
O16   O     O_R   0.724400 0.302390 0.420980 -0.500254
O17   O     O_R   0.752100 0.501210 0.612190 -0.536331
O18   O     O_R   0.478040 0.729440 0.600970 -0.499291
O19   O     O_R   0.259530 0.747110 0.588490 -0.490087
O20   O     O_3   0.048942 0.923467 0.190331 -0.555003
O21   O     O_3   0.557593 0.191092 0.821817 -0.542142
O22   O     O_3   0.492501 0.054259 0.647509 -0.548483
O23   O     O_R   0.489720 0.254590 0.564810 -0.473257
O24   O     O_R   0.725220 0.304230 0.585080 -0.494320
O25   O     O_3   0.500010 0.500010 0.500020 -0.303515
O26   O     O_R   0.171830 0.913880 0.057510 -0.460413
O27   O     O_R   0.940690 0.186050 0.054730 -0.480708
O28   O     O_R   0.920470 0.405720 0.075010 -0.519917
O29   O     O_R   0.196690 0.370460 0.084120 -0.500752

loop_
_geom_bond_atom_site_label_1
_geom_bond_atom_site_label_2
_ccdc_geom_bond_type
C43   H19   S    
C11   C18   S    
C43   H18   S    
C23   C45   S    
C4    O14   A    
Cr5   O11   S    
C34   C37   S    
C13   C32   S    
Cr4   O6    S    
C35   C36   T    
C11   H8    S    
C6    C9    S    
C7    C8    S    
C41   H13   S    
C45   C46   S    
C15   C19   S    
C12   C23   S    
C6    H12   S    
C40   H9    S    
C45   H22   S    
C33   O17   A    
C30   O9    A    
C3    C7    S    
Cr1   O17   S    
Cr6   O3    S    
C42   H16   S    
C18   H27   S    
Cr4   O11   S    
C18   C19   S    
C12   C37   S    
Cr6   O9    S    
C38   O20   S    
C5    H2    S    
C25   O28   A    
C38   H4    S    
C15   H25   S    
C27   O26   A    
Cr3   O24   S    
C31   O5    A    
C32   O23   A    
Cr5   O7    S    
C37   C47   S    
C25   C47   S    
C44   C47   S    
C7    H23   S    
C1    O4    A    
C4    C35   S    
Cr2   O19   S    
Cr3   O25   S    
C22   C28   S    
C13   C14   S    
Cr1   O4    S    
Cr4   O5    S    
C17   H26   S    
C33   O24   A    
C29   O6    A    
Cr5   O29   S    
C41   H14   S    
Cr3   O15   S    
C38   C39   S    
C39   H7    S    
C5    C48   S    
Cr2   O14   S    
Cr6   O10   S    
Cr1   O1    S    
C34   C44   S    
C12   C46   S    
C10   C14   S    
C1    O13   A    
Cr1   O18   S    
Cr6   O2    S    
C8    C9    S    
C41   H11   S    
Cr4   O27   S    
C2    C48   S    
C21   C29   S    
Cr2   O25   S    
C48   H30   S    
C1    C3    S    
C44   H21   S    
C2    H24   S    
C38   H3    S    
C8    O20   S    
Cr4   O26   S    
C10   C19   S    
C26   O2    A    
C23   C34   S    
C39   H5    S    
Cr5   O8    S    
C17   C18   S    
C27   O3    A    
C42   O22   S    
Cr6   O11   S    
C34   H20   S    
C20   C33   S    
Cr5   O28   S    
C30   O8    A    
C40   C41   S    
C32   O12   A    
C16   C23   S    
C16   O1    A    
C22   C24   T    
C37   H28   S    
C42   C43   S    
C29   O7    A    
C44   C45   S    
C9    C27   S    
Cr1   O25   S    
C26   C36   S    
Cr3   O16   S    
C15   C17   S    
C46   C47   S    
Cr2   O13   S    
C43   H17   S    
C2    C8    S    
C3    C5    S    
C6    C7    S    
C31   O10   A    
C40   H10   S    
C13   C17   S    
C2    C3    S    
C24   C31   S    
C11   C13   S    
C28   O19   A    
Cr2   O12   S    
C5    C6    S    
C39   H6    S    
C42   H15   S    
C26   O29   A    
C12   H1    S    
C10   C11   S    
C25   O27   A    
C46   H29   S    
C16   O16   A    
C28   O18   A    
C14   O22   S    
C20   C21   T    
C9    C48   S    
Cr3   O23   S    
C4    O15   A    
C14   C15   S    
C10   O21   S    
C19   C30   S    
C40   O21   S    
