data_mof_unit_8660.cif
_audit_creation_date              2012-10-26T21:13:15-0400
_audit_creation_method            fapswitch 2.2
_symmetry_space_group_name_H-M    P1
_symmetry_Int_Tables_number       1
_space_group_crystal_system       triclinic
_cell_length_a                    13.397897
_cell_length_b                    15.848187
_cell_length_c                    17.108705
_cell_angle_alpha                 85.207283
_cell_angle_beta                  88.75694
_cell_angle_gamma                 108.860875
_cell_volume                      3421.08543767

loop_
_atom_site_label
_atom_site_type_symbol
_atom_type_description
_atom_site_fract_x
_atom_site_fract_y
_atom_site_fract_z
_atom_type_partial_charge
C1    C     C_R   0.502437 0.510041 0.348719 0.544849
C2    C     C_R   0.818032 0.576703 0.492688 -0.013833
C3    C     C_R   0.510385 0.515470 0.262900 0.000391
C4    C     C_R   0.702573 0.547470 0.498901 0.530346
C5    C     C_R   0.492433 0.437286 0.224892 -0.166003
C6    C     C_R   0.501687 0.442445 0.143471 -0.089884
C7    C     C_R   0.529084 0.526278 0.098782 0.219960
C8    C     C_R   0.549390 0.604246 0.136817 -0.115810
C9    C     C_R   0.539348 0.599083 0.218373 -0.153677
C10   C     C_R   0.467918 0.546431 0.859200 0.024805
C11   C     C_R   0.476289 0.549503 0.777514 -0.162478
C12   C     C_R   0.982210 0.542567 0.501638 0.015752
C13   C     C_R   0.487842 0.475294 0.904282 0.217605
C14   C     C_R   0.499846 0.482879 0.739231 -0.010941
C15   C     C_R   0.517420 0.409738 0.785281 -0.031946
C16   C     C_R   0.500933 0.489954 0.651872 0.534691
C17   C     C_R   0.510304 0.408001 0.867476 -0.094927
C18   C     C_R   0.547432 0.255685 0.457715 0.093184
C19   C     C_R   0.516196 0.164074 0.443229 0.029198
C20   C     C_R   0.452330 0.098572 0.500808 0.158973
C21   C     C_R   0.398658 0.129358 0.559430 -0.005576
C22   C     C_R   0.412626 0.222406 0.558378 -0.012426
C23   C     C_R   0.874956 0.523141 0.526016 0.014970
C24   C     C_R   0.418775 0.821447 0.504236 0.041016
C25   C     C_R   0.436322 0.740041 0.529335 0.099004
C26   C     C_R   0.502052 0.891308 0.463748 0.173441
C27   C     C_R   0.583948 0.777124 0.438882 0.020134
C28   C     C_R   0.297602 0.452656 0.503883 0.543318
C29   C     C_R   0.585078 0.867775 0.428349 -0.051208
C30   C     C_R   0.028015 0.338209 0.598017 -0.132670
C31   C     C_R   0.184105 0.426662 0.519277 -0.007389
C32   C     C_R   0.870921 0.656123 0.445624 -0.122929
C33   C     C_R   0.979539 0.682278 0.429510 -0.008358
C34   C     C_R   0.032461 0.478448 0.523417 0.027100
C35   C     C_R   0.034659 0.625101 0.456478 -0.111257
C36   C     C_3   0.433392 0.617540 0.895418 -0.232052
C37   C     C_3   0.322569 0.577690 0.935750 -0.289408
C38   C     C_3   0.285778 0.650409 0.967554 -0.454447
C39   C     C_3   0.542404 0.334370 0.747256 -0.233255
C40   C     C_3   0.571880 0.265132 0.802099 -0.321338
C41   C     C_3   0.598437 0.196473 0.755348 -0.441539
C42   C     C_3   0.402609 0.705471 0.614452 -0.196014
C43   C     C_3   0.299236 0.625640 0.627447 -0.242058
C44   C     C_3   0.239574 0.625071 0.704773 -0.455384
C45   C     C_R   0.979185 0.402045 0.576174 0.051612
C46   C     C_2   0.310852 0.828640 0.511745 0.608923
C47   C     C_2   0.325512 0.066800 0.621403 0.557975
C48   C     C_2   0.541271 0.138936 0.364976 0.578268
C49   C     C_3   0.670385 0.940396 0.378020 -0.243340
C50   C     C_3   0.753474 0.909455 0.336536 -0.327020
C51   C     C_3   0.834552 0.987695 0.287835 -0.442063
C52   C     C_3   0.663184 0.308162 0.436763 -0.191879
C53   C     C_3   0.684608 0.366495 0.357823 -0.254368
C54   C     C_3   0.800229 0.392150 0.329159 -0.453730
C55   C     C_3   0.034818 0.768716 0.379329 -0.251016
C56   C     C_R   0.878502 0.390892 0.607468 -0.150817
C57   C     C_3   0.031646 0.850321 0.420486 -0.273509
C58   C     C_3   0.088023 0.937595 0.369882 -0.410640
C59   C     C_R   0.827278 0.450957 0.583177 -0.139534
C60   C     C_R   0.133572 0.487081 0.493316 -0.147662
C61   C     C_R   0.130591 0.350816 0.570091 -0.134928
Cu1   Cu    Cu3+1 0.505120 0.585970 0.496130 0.921173
Cu2   Cu    Cu3+1 0.494880 0.414030 0.503870 0.915747
H1    H     H_    0.169735 0.303884 0.591153 0.134501
H2    H     H_    0.987997 0.279997 0.638457 0.110648
H3    H     H_    0.176627 0.541483 0.450773 0.114284
H4    H     H_    0.827085 0.697188 0.419676 0.115017
H5    H     H_    0.118517 0.647652 0.442643 0.111635
H6    H     H_    0.749788 0.440137 0.609733 0.131923
H7    H     H_    0.460588 0.603312 0.743718 0.113331
H8    H     H_    0.340740 0.685008 0.011295 0.157779
H9    H     H_    0.282004 0.700150 0.918922 0.155365
H10   H     H_    0.205779 0.619660 0.996665 0.147616
H11   H     H_    0.265660 0.543316 0.892972 0.156277
H12   H     H_    0.571302 0.669015 0.102988 0.109878
H13   H     H_    0.322120 0.527708 0.985345 0.198797
H14   H     H_    0.491429 0.652073 0.937189 0.171343
H15   H     H_    0.431996 0.670971 0.849380 0.118427
H16   H     H_    0.529354 0.159910 0.722680 0.180082
H17   H     H_    0.666514 0.230077 0.713019 0.140726
H18   H     H_    0.619489 0.147301 0.796097 0.148794
H19   H     H_    0.641724 0.299427 0.835145 0.161606
H20   H     H_    0.504292 0.228546 0.844121 0.169491
H21   H     H_    0.471870 0.296900 0.716504 0.186930
H22   H     H_    0.609964 0.365236 0.703929 0.159055
H23   H     H_    0.555021 0.660502 0.246492 0.126499
H24   H     H_    0.289720 0.622698 0.755002 0.135865
H25   H     H_    0.215124 0.685536 0.705320 0.205987
H26   H     H_    0.167580 0.565002 0.712264 0.146551
H27   H     H_    0.246429 0.627144 0.578635 0.197131
H28   H     H_    0.316828 0.561995 0.630516 0.186596
H29   H     H_    0.469330 0.692049 0.642688 0.142474
H30   H     H_    0.394764 0.761334 0.646730 0.158574
H31   H     H_    0.172892 0.799481 0.574874 0.341491
H32   H     H_    0.237271 0.052176 0.721970 0.340747
H33   H     H_    0.650529 0.141172 0.281042 0.329112
H34   H     H_    0.487676 0.381073 0.115564 0.137779
H35   H     H_    0.794895 0.019453 0.243637 0.157627
H36   H     H_    0.878789 0.038496 0.326484 0.162093
H37   H     H_    0.891373 0.962977 0.256442 0.140491
H38   H     H_    0.795543 0.880253 0.380791 0.151853
H39   H     H_    0.714272 0.858018 0.296702 0.154579
H40   H     H_    0.631091 0.970712 0.332357 0.187810
H41   H     H_    0.711351 0.993434 0.415938 0.175231
H42   H     H_    0.852578 0.428533 0.373494 0.160280
H43   H     H_    0.820567 0.331421 0.318164 0.184559
H44   H     H_    0.814028 0.436522 0.273461 0.141051
H45   H     H_    0.522558 0.354343 0.905049 0.117225
H46   H     H_    0.633849 0.330433 0.312582 0.179901
H47   H     H_    0.668232 0.429529 0.363789 0.196020
H48   H     H_    0.700745 0.344984 0.485620 0.163501
H49   H     H_    0.708082 0.260329 0.435496 0.160314
H50   H     H_    0.172553 0.945097 0.358735 0.220317
H51   H     H_    0.050343 0.938612 0.312815 0.135508
H52   H     H_    0.083088 0.995199 0.400680 0.152558
H53   H     H_    0.948554 0.846652 0.432732 0.143487
H54   H     H_    0.070002 0.851089 0.477416 0.200906
H55   H     H_    0.118489 0.774917 0.365407 0.176998
H56   H     H_    0.470892 0.372100 0.257974 0.136992
H57   H     H_    0.995460 0.767683 0.322688 0.132235
H58   H     H_    0.838540 0.334788 0.649998 0.100475
H59   H     H_    0.365528 0.245422 0.598326 0.168152
H60   H     H_    0.641399 0.755823 0.408058 0.125699
N1    N     N_2   0.536555 0.534573 0.015767 -0.255535
N2    N     N_2   0.481264 0.466220 0.987093 -0.269519
N3    N     N_R   0.487180 0.284900 0.509690 -0.251215
N4    N     N_2   0.445322 0.004761 0.504519 -0.141313
N5    N     N_2   0.507060 0.984557 0.458686 -0.203621
N6    N     N_R   0.512820 0.715120 0.490310 -0.241237
O1    O     O_R   0.504790 0.580580 0.382450 -0.500533
O2    O     O_R   0.244364 0.790727 0.578308 -0.716514
O3    O     O_2   0.299136 0.985762 0.618730 -0.470193
O4    O     O_R   0.286050 0.100971 0.683491 -0.743432
O5    O     O_2   0.469151 0.094827 0.327601 -0.496024
O6    O     O_R   0.645349 0.163168 0.334461 -0.748883
O7    O     O_R   0.496140 0.435390 0.388990 -0.503564
O8    O     O_R   0.657420 0.608020 0.495150 -0.503764
O9    O     O_R   0.648770 0.462830 0.501690 -0.523074
O10   O     O_R   0.503860 0.564610 0.611010 -0.511219
O11   O     O_R   0.495210 0.419420 0.617550 -0.520670
O12   O     O_R   0.351230 0.537170 0.498310 -0.509422
O13   O     O_R   0.342580 0.391980 0.504850 -0.492423
O14   O     O_2   0.279255 0.867043 0.457695 -0.511138

loop_
_geom_bond_atom_site_label_1
_geom_bond_atom_site_label_2
_ccdc_geom_bond_type
C53   H47   S    
C33   C55   S    
C37   H11   S    
C27   C29   A    
C42   H30   S    
Cu2   O11   S    
Cu1   O1    S    
C30   C45   A    
C19   C20   A    
C40   H20   S    
C7    N1    S    
C25   N6    A    
C49   H41   S    
C11   H7    S    
C18   C52   S    
C7    C8    A    
C29   C49   S    
C53   C54   S    
C23   C59   A    
C12   C23   A    
C37   C38   S    
C54   H44   S    
C5    H56   S    
C48   O5    D    
C36   C37   S    
C24   C26   A    
C39   H21   S    
C36   H14   S    
C5    C6    A    
C11   C14   A    
C22   N3    A    
C52   H49   S    
H32   O4    S    
C2    C32   A    
C18   C19   A    
C31   C61   A    
C48   O6    S    
C4    O8    A    
C45   C56   A    
C8    C9    A    
C58   H50   S    
Cu1   O10   S    
C57   H53   S    
C44   H24   S    
C13   N2    S    
C51   H35   S    
C60   H3    S    
C21   C22   A    
C47   O4    S    
C34   C60   A    
Cu1   N6    S    
C16   O11   A    
C41   H17   S    
C22   H59   S    
H33   O6    S    
C55   H57   S    
C51   H36   S    
C38   H9    S    
C43   H27   S    
C54   H43   S    
C30   H2    S    
C6    H34   S    
C40   H19   S    
C24   C25   A    
C20   N4    S    
C1    O1    A    
C17   H45   S    
C46   O2    S    
C27   H60   S    
C19   C48   S    
C52   H48   S    
C8    H12   S    
C43   H28   S    
C1    C3    S    
C31   C60   A    
C61   H1    S    
C2    C4    S    
C43   C44   S    
C41   H16   S    
Cu1   Cu2   S    
C3    C9    A    
C9    H23   S    
C41   H18   S    
C50   C51   S    
C34   C45   A    
C26   N5    S    
C12   C35   A    
C15   C39   S    
C6    C7    A    
C59   H6    S    
C32   H4    S    
C40   C41   S    
C37   H13   S    
C50   H39   S    
C55   C57   S    
C58   H52   S    
C27   N6    A    
Cu2   O9    S    
C14   C16   S    
C16   O10   A    
C28   O13   A    
C42   C43   S    
C39   H22   S    
Cu1   O12   S    
C12   C34   A    
N4    N5    D    
C1    O7    A    
C39   C40   S    
C52   C53   S    
C57   H54   S    
C53   H46   S    
C51   H37   S    
C15   C17   A    
C38   H8    S    
C54   H42   S    
C28   C31   S    
C3    C5    A    
C10   C13   A    
C25   C42   S    
C49   H40   S    
C46   O14   D    
H31   O2    S    
C50   H38   S    
C56   C59   A    
C13   C17   A    
C47   O3    D    
C24   C46   S    
C32   C33   A    
C36   H15   S    
C56   H58   S    
C57   C58   S    
C35   H5    S    
C33   C35   A    
Cu2   O13   S    
C42   H29   S    
Cu1   O8    S    
Cu2   N3    S    
C10   C11   A    
C4    O9    A    
C20   C21   A    
C26   C29   A    
C49   C50   S    
C30   C61   A    
C2    C23   A    
C58   H51   S    
C14   C15   A    
Cu2   O7    S    
C10   C36   S    
C28   O12   A    
C44   H25   S    
C55   H55   S    
C18   N3    A    
C44   H26   S    
N1    N2    D    
C21   C47   S    
C38   H10   S    
