data_mof_unit_39746.cif
_audit_creation_date              2012-12-11T17:25:04-0500
_audit_creation_method            fapswitch 2.2
_symmetry_space_group_name_H-M    P1
_symmetry_Int_Tables_number       1
_space_group_crystal_system       triclinic
_cell_length_a                    6.9492
_cell_length_b                    20.533939
_cell_length_c                    24.431178
_cell_angle_alpha                 90.288013
_cell_angle_beta                  90.540823
_cell_angle_gamma                 89.549804
_cell_volume                      3485.88780671

loop_
_atom_site_label
_atom_site_type_symbol
_atom_type_description
_atom_site_fract_x
_atom_site_fract_y
_atom_site_fract_z
_atom_type_partial_charge
O1    O     O_R   0.507280 0.423750 0.460310 -0.536859
O2    O     O_R   0.171030 0.555650 0.437630 -0.536378
O3    O     O_R   0.004080 0.576250 0.539690 -0.537374
C1    C     C_R   0.339071 0.575584 0.421702 0.724630
O4    O     O_R   0.177330 0.422980 0.453960 -0.537081
O5    O     O_R   0.010420 0.442640 0.556140 -0.533488
C2    C     C_R   0.345338 0.398863 0.443106 0.692887
O6    O     O_R   0.500930 0.557360 0.443860 -0.535348
O7    O     O_3   0.340310 0.506600 0.533500 -0.364924
V1    V     V_3+5 0.064140 0.498780 0.493780 1.418020
O8    O     O_R   0.680890 0.444350 0.562370 -0.537852
C3    C     C_R   0.850611 0.424359 0.578095 0.724436
O9    O     O_R   0.674590 0.577020 0.546040 -0.536966
C4    C     C_R   0.842372 0.601349 0.556327 0.716155
V2    V     V_3+5 0.564550 0.501220 0.506220 1.417202
O10   O     O_3   0.838250 0.493400 0.466500 -0.367485
C5    C     C_R   0.977958 0.838504 0.910507 -0.046460
C6    C     C_R   0.843129 0.663091 0.587462 -0.089921
C7    C     C_R   0.063661 0.724652 0.902085 -0.161161
C8    C     C_R   0.046361 0.780799 0.933796 -0.167153
C9    C     C_R   0.928388 0.839924 0.854620 -0.215385
C10   C     C_R   0.950824 0.783663 0.820693 0.096810
C11   C     C_R   0.017761 0.725616 0.846029 0.139869
C12   C     C_R   0.909739 0.782792 0.762854 0.018404
C13   C     C_R   0.931888 0.723846 0.731965 0.070691
C14   C     C_R   0.996489 0.667504 0.759852 -0.171657
C15   C     C_R   0.039499 0.668705 0.815408 -0.205096
C16   C     C_R   0.851171 0.839325 0.734892 -0.208381
C17   C     C_R   0.797202 0.838551 0.679654 0.141358
C18   C     C_R   0.797901 0.778840 0.649930 0.075654
C19   C     C_R   0.882837 0.722432 0.674698 0.002229
C20   C     C_R   0.718251 0.773395 0.596046 0.300440
C21   C     C_R   0.744434 0.716231 0.565711 -0.236495
C22   C     C_R   0.911565 0.665976 0.641436 -0.216641
H1    H     H_    0.089105 0.624149 0.834771 0.124473
H2    H     H_    0.982446 0.622695 0.656383 0.111288
H3    H     H_    0.680026 0.712379 0.525219 0.115568
H4    H     H_    0.116176 0.680421 0.921328 0.115501
H5    H     H_    0.088073 0.779414 0.976627 0.108799
H6    H     H_    0.876929 0.885928 0.839124 0.097910
H7    H     H_    0.012471 0.620771 0.740258 0.124142
H8    H     H_    0.846639 0.885824 0.755305 0.131225
C23   C     C_R   0.777769 0.240057 0.707739 -0.319073
H9    H     H_    0.672171 0.232545 0.675427 0.135495
C24   C     C_R   0.897870 0.294614 0.706011 0.066601
C25   C     C_R   0.034957 0.304032 0.748269 0.312646
C26   C     C_R   0.046857 0.259436 0.791908 -0.319093
H10   H     H_    0.152481 0.266940 0.824215 0.135311
C27   C     C_R   0.926665 0.204909 0.793659 0.066573
C28   C     C_R   0.789748 0.195436 0.751364 0.312302
C29   C     C_1   0.877790 0.340765 0.661066 0.005042
C30   C     C_1   0.946523 0.158864 0.838680 0.004644
C31   C     C_1   0.960748 0.120673 0.876387 -0.198817
C32   C     C_1   0.863474 0.379076 0.623443 -0.198522
H11   H     H_    0.699112 0.698813 0.293808 0.112158
C33   C     C_R   0.596889 0.765283 0.231835 -0.154887
H12   H     H_    0.740791 0.776843 0.218484 0.110965
C34   C     C_R   0.436267 0.794607 0.206403 0.135956
C35   C     C_R   0.251446 0.778462 0.224665 -0.155377
H13   H     H_    0.125366 0.800365 0.205670 0.112393
C36   C     C_R   0.227600 0.733892 0.267630 -0.153933
H14   H     H_    0.083703 0.722357 0.281002 0.110741
C37   C     C_R   0.388223 0.704617 0.293095 0.136973
C38   C     C_R   0.573040 0.720704 0.274798 -0.156545
C39   C     C_1   0.460015 0.840748 0.161592 -0.059036
C40   C     C_1   0.364455 0.658722 0.338072 -0.061095
C41   C     C_1   0.349028 0.620671 0.375919 -0.196788
C42   C     C_1   0.475350 0.879054 0.123915 -0.191847
C43   C     C_R   0.475726 0.163033 0.088358 -0.115180
C44   C     C_R   0.342080 0.338420 0.409723 -0.060165
C45   C     C_R   0.580043 0.275371 0.095696 0.310423
C46   C     C_R   0.564082 0.217303 0.065954 -0.231767
C47   C     C_R   0.403236 0.166831 0.141784 -0.187907
C48   C     C_R   0.406004 0.226289 0.172313 0.030843
C49   C     C_R   0.499379 0.280347 0.148643 0.019585
C50   C     C_R   0.328006 0.232937 0.226509 -0.006920
C51   C     C_R   0.371702 0.289957 0.258866 -0.076901
C52   C     C_R   0.439930 0.345870 0.230792 0.282514
C53   C     C_R   0.505153 0.339564 0.177081 -0.190710
C54   C     C_R   0.200606 0.186325 0.248982 0.289225
C55   C     C_R   0.160027 0.187695 0.304751 -0.267419
C56   C     C_R   0.229689 0.236804 0.338852 0.104829
C57   C     C_R   0.335536 0.289245 0.316993 0.083991
C58   C     C_R   0.184063 0.235220 0.394628 -0.148256
C59   C     C_R   0.235340 0.286218 0.429225 -0.154919
C60   C     C_R   0.402015 0.337751 0.354753 -0.229996
H15   H     H_    0.554451 0.382704 0.156395 0.179142
H16   H     H_    0.495704 0.376273 0.342520 0.142224
H17   H     H_    0.185459 0.286125 0.471124 0.104817
H18   H     H_    0.066251 0.150861 0.321350 0.123729
H19   H     H_    0.626402 0.213916 0.025508 0.113471
H20   H     H_    0.356799 0.121761 0.159573 0.158437
H21   H     H_    0.100313 0.195680 0.411112 0.112024
O11   O     O_R   0.323320 0.942780 0.056240 -0.534720
O12   O     O_R   0.647300 0.077050 0.046060 -0.541036
O13   O     O_R   0.813840 0.057330 0.943840 -0.533443
C61   C     C_R   0.478952 0.101073 0.057105 0.709760
O14   O     O_R   0.653250 0.944380 0.062400 -0.537119
O15   O     O_R   0.819830 0.923720 0.960300 -0.535645
C62   C     C_R   0.485217 0.924407 0.078302 0.724315
O16   O     O_R   0.317330 0.076390 0.039790 -0.533169
O17   O     O_3   0.483830 0.993470 0.966560 -0.365255
V3    V     V_3+5 0.760140 0.001210 0.006210 1.419588
O18   O     O_R   0.149290 0.922840 0.953850 -0.537505
C63   C     C_R   0.981236 0.898788 0.943415 0.698258
O19   O     O_R   0.143340 0.055500 0.937510 -0.538362
C64   C     C_R   0.973623 0.075522 0.921819 0.723642
V4    V     V_3+5 0.259690 0.998600 0.993650 1.426071
O20   O     O_3   0.986130 0.006520 0.033440 -0.366310
N1    N     N_2   0.593811 0.821989 0.573734 -0.531178
H22   H     H_    0.609599 0.828469 0.532165 0.253316
C65   C     C_3   0.394053 0.814279 0.588604 -0.550041
H23   H     H_    0.308357 0.856144 0.572852 0.196062
H24   H     H_    0.379145 0.812893 0.633845 0.212274
H25   H     H_    0.335638 0.768618 0.570578 0.197659
N2    N     N_2   0.665106 0.140784 0.752064 -0.517663
H26   H     H_    0.629204 0.123630 0.713564 0.252923
C66   C     C_3   0.497244 0.149644 0.785960 -0.539406
H27   H     H_    0.404403 0.189238 0.769252 0.193751
H28   H     H_    0.539847 0.161760 0.828720 0.205401
H29   H     H_    0.413190 0.103888 0.786487 0.201595
N3    N     N_2   0.159959 0.358586 0.747499 -0.517070
H30   H     H_    0.196313 0.375686 0.785981 0.252763
C67   C     C_3   0.327493 0.349588 0.713497 -0.539488
H31   H     H_    0.420135 0.309903 0.730137 0.193724
H32   H     H_    0.411914 0.395264 0.712930 0.201698
H33   H     H_    0.284476 0.337528 0.670758 0.205426
N4    N     N_2   0.680935 0.328388 0.072287 -0.534581
H34   H     H_    0.666558 0.331221 0.030288 0.255471
C68   C     C_3   0.880001 0.332787 0.089795 -0.568232
H35   H     H_    0.944749 0.377340 0.072469 0.206843
H36   H     H_    0.962636 0.289636 0.075120 0.195405
H37   H     H_    0.890980 0.335835 0.135138 0.207704
N5    N     N_2   0.408220 0.410465 0.250836 -0.526186
H38   H     H_    0.298120 0.418100 0.278162 0.256620
C69   C     C_3   0.573816 0.452676 0.255751 -0.557608
H39   H     H_    0.532215 0.498326 0.277338 0.196029
H40   H     H_    0.627409 0.466036 0.214730 0.207453
H41   H     H_    0.691327 0.428370 0.279279 0.192035
N6    N     N_2   0.092752 0.142725 0.215295 -0.541498
H42   H     H_    0.049531 0.100863 0.234711 0.251109
C70   C     C_3   0.937600 0.173246 0.184614 -0.516779
H43   H     H_    0.867351 0.136500 0.157754 0.200905
H44   H     H_    0.828465 0.193817 0.212979 0.195343
H45   H     H_    0.993360 0.212620 0.158310 0.209553
C71   C     C_3   0.753520 0.903717 0.653391 -0.719579
H46   H     H_    0.829725 0.907703 0.613817 0.215443
H47   H     H_    0.596248 0.910226 0.647430 0.234289
H48   H     H_    0.803508 0.945102 0.679165 0.185954

loop_
_geom_bond_atom_site_label_1
_geom_bond_atom_site_label_2
_ccdc_geom_bond_type
C13   C19   A    
O15   V3    S    
C47   C48   A    
C4    C6    S    
C68   H36   S    
C7    C8    A    
C1    O6    A    
N4    H34   S    
C2    C44   S    
C53   H15   S    
C55   C56   A    
C26   C27   A    
C51   C52   A    
V4    O20   S    
O11   V4    S    
C14   C15   A    
C48   C50   A    
C16   C17   A    
N6    C70   S    
O5    C3    A    
C18   C19   A    
C60   H16   S    
O19   C64   A    
C24   C29   S    
V2    O10   S    
C5    C8    A    
N2    H26   S    
C36   C37   A    
N1    H22   S    
O18   C63   A    
C66   H27   S    
O8    V2    S    
C58   C59   A    
N2    C66   S    
C33   C38   A    
C43   C47   A    
O1    V2    S    
C11   C15   A    
C18   C20   A    
O7    V1    S    
C22   H2    S    
C39   C42   T    
O16   V4    S    
C40   C41   T    
C37   C40   S    
C35   H13   S    
C3    C32   S    
O9    C4    A    
C70   H45   S    
O17   V3    S    
C69   H41   S    
C65   H24   S    
C65   H23   S    
O12   V3    S    
C71   H47   S    
C10   C11   A    
N6    H42   S    
O15   C63   A    
C35   C36   A    
C48   C49   A    
C50   C54   A    
C12   C13   A    
C69   H40   S    
C17   C71   S    
O4    C2    A    
C8    H5    S    
C59   H17   S    
C52   C53   A    
C69   H39   S    
N5    C69   S    
C15   H1    S    
C34   C35   A    
C54   N6    S    
C5    C9    A    
C66   H29   S    
C43   C46   A    
O2    C1    A    
C23   H9    S    
C42   C62   S    
C17   C18   A    
C7    H4    S    
C5    C63   S    
C71   H48   S    
C23   C24   A    
C31   C64   S    
C34   C39   S    
C26   H10   S    
O11   C62   A    
C27   C30   S    
H11   C38   S    
C19   C22   A    
C50   C51   A    
O17   V4    S    
C6    C22   A    
O3    C4    A    
C20   N1    S    
C67   H33   S    
C55   H18   S    
C66   H28   S    
O13   C64   A    
C56   C57   A    
O6    V2    S    
O14   C62   A    
O9    V2    S    
C10   C12   A    
C45   N4    S    
C68   H37   S    
C33   H12   S    
N3    C67   S    
C44   C60   A    
O18   V4    S    
C70   H44   S    
C30   C31   T    
C7    C11   A    
C67   H32   S    
C71   H46   S    
C46   H19   S    
C25   C26   A    
O1    C2    A    
C12   C16   A    
C47   H20   S    
C54   C55   A    
N4    C68   S    
O5    V1    S    
C1    C41   S    
O8    C3    A    
O12   C61   A    
C23   C28   A    
N5    H38   S    
C56   C58   A    
V3    O20   S    
C29   C32   T    
C20   C21   A    
C68   H35   S    
C13   C14   A    
O4    V1    S    
O3    V1    S    
V1    O10   S    
C45   C49   A    
C9    H6    S    
O19   V4    S    
C16   H8    S    
C33   C34   A    
C21   H3    S    
C28   N2    S    
C58   H21   S    
O7    V2    S    
C36   H14   S    
C6    C21   A    
N1    C65   S    
C37   C38   A    
C52   N5    S    
C24   C25   A    
C45   C46   A    
C57   C60   A    
C27   C28   A    
O13   V3    S    
C51   C57   A    
C70   H43   S    
C25   N3    S    
N3    H30   S    
C9    C10   A    
C44   C59   A    
C49   C53   A    
C65   H25   S    
C61   O16   A    
O14   V3    S    
C14   H7    S    
C43   C61   S    
C67   H31   S    
O2    V1    S    
