data_mof_unit_29205.cif
_audit_creation_date              2012-12-11T14:30:44-0500
_audit_creation_method            fapswitch 2.2
_symmetry_space_group_name_H-M    P1
_symmetry_Int_Tables_number       1
_space_group_crystal_system       triclinic
_cell_length_a                    17.510998
_cell_length_b                    24.351574
_cell_length_c                    15.033179
_cell_angle_alpha                 89.870485
_cell_angle_beta                  125.553367
_cell_angle_gamma                 89.34374
_cell_volume                      5214.72460279

loop_
_atom_site_label
_atom_site_type_symbol
_atom_type_description
_atom_site_fract_x
_atom_site_fract_y
_atom_site_fract_z
_atom_type_partial_charge
C1    C     C_R   0.807874 0.623827 0.907143 -0.151516
C2    C     C_R   0.975561 0.502190 0.658573 0.095762
C3    C     C_3   0.010888 0.788997 0.514640 -0.942467
C4    C     C_3   0.109621 0.399129 0.346177 -0.458161
C5    C     C_3   0.212865 0.400298 0.445696 -0.243201
C6    C     C_3   0.255674 0.342330 0.472612 -0.987140
C7    C     C_3   0.920607 0.403197 0.647999 -0.461428
C8    C     C_3   0.832153 0.413257 0.531588 -0.221648
C9    C     C_3   0.778010 0.360327 0.481704 -0.965877
C10   C     C_3   0.609620 0.899127 0.346175 -0.458164
C11   C     C_3   0.712865 0.900294 0.445692 -0.243223
C12   C     C_3   0.755670 0.842326 0.472600 -0.987147
C13   C     C_R   0.572780 0.000131 0.368874 0.112195
C14   C     C_3   0.420612 0.903198 0.647998 -0.461433
C15   C     C_3   0.332150 0.913261 0.531595 -0.221643
C16   C     C_3   0.278015 0.860329 0.481705 -0.965838
C17   C     C_R   0.475570 0.002191 0.658580 0.095760
C18   C     C_R   0.694443 0.501593 0.641645 0.046373
C19   C     C_R   0.325053 0.497690 0.298183 0.052858
C20   C     C_R   0.194446 0.001595 0.641644 0.046367
C21   C     C_R   0.825053 0.997690 0.298200 0.052856
C22   C     C_3   0.522735 0.483744 0.555147 0.156527
C23   C     C_3   0.485129 0.446535 0.456097 0.149629
C24   C     C_3   0.022744 0.983728 0.555154 0.156510
C25   C     C_R   0.175337 0.640040 0.091942 -0.146536
C26   C     C_3   0.985139 0.946532 0.456085 0.149607
C27   C     C_3   0.462954 0.532598 0.481697 -0.223442
C28   C     C_3   0.563897 0.464557 0.445564 -0.226721
C29   C     C_3   0.962952 0.032586 0.481728 -0.223429
C30   C     C_3   0.063899 0.964573 0.445549 -0.226698
C31   C     C_3   0.424843 0.495347 0.382012 0.098149
C32   C     C_3   0.600643 0.501490 0.544606 0.106104
C33   C     C_3   0.924843 0.995348 0.382026 0.098139
C34   C     C_3   0.100644 0.001493 0.544610 0.106111
C35   C     C_3   0.502254 0.513622 0.370546 -0.137313
C36   C     C_R   0.307866 0.123814 0.907151 -0.151504
C37   C     C_3   0.541819 0.550550 0.471818 -0.163639
C38   C     C_3   0.002244 0.013642 0.370557 -0.137317
C39   C     C_3   0.041809 0.050557 0.471847 -0.163636
C40   C     C_2   0.239570 0.695309 0.917961 -0.115792
C41   C     C_2   0.749050 0.683364 0.087266 -0.113425
C42   C     C_2   0.739570 0.195309 0.917962 -0.115797
C43   C     C_2   0.249089 0.183356 0.087311 -0.113367
C44   C     C_2   0.227361 0.696717 0.998089 -0.198771
C45   C     C_2   0.734295 0.661288 0.997077 -0.196052
C46   C     C_2   0.727360 0.196718 0.998089 -0.198766
C47   C     C_R   0.675337 0.140040 0.091942 -0.146537
C48   C     C_2   0.234288 0.161250 0.997115 -0.196010
C49   C     C_2   0.793729 0.237774 0.911018 -0.115920
C50   C     C_2   0.198777 0.233384 0.081050 -0.115231
C51   C     C_2   0.293729 0.737773 0.911018 -0.115912
C52   C     C_2   0.698696 0.733375 0.080985 -0.115134
C53   C     C_R   0.942614 0.350419 0.091376 -0.165076
C54   C     C_R   0.066539 0.353631 0.908513 -0.160076
C55   C     C_R   0.442614 0.850419 0.091376 -0.165088
C56   C     C_R   0.566560 0.853641 0.908512 -0.160078
C57   C     C_2   0.862409 0.262524 0.001847 -0.197225
C58   C     C_R   0.881351 0.319982 0.000049 0.145870
C59   C     C_2   0.165952 0.269309 0.998040 -0.197011
C60   C     C_2   0.362409 0.762524 0.001847 -0.197253
C61   C     C_2   0.666022 0.769338 0.998053 -0.197060
C62   C     C_2   0.085098 0.457743 0.521659 -0.152244
C63   C     C_2   0.066088 0.464058 0.601962 -0.107618
C64   C     C_2   0.585106 0.957742 0.521664 -0.152240
C65   C     C_2   0.566098 0.964058 0.601969 -0.107622
C66   C     C_2   0.098908 0.501576 0.479712 -0.211893
C67   C     C_2   0.003034 0.501756 0.585492 -0.216001
C68   C     C_2   0.598916 0.001575 0.479715 -0.211898
C69   C     C_R   0.134378 0.324218 0.000095 0.142007
C70   C     C_2   0.503044 0.001756 0.585500 -0.215993
C71   C     C_R   0.051856 0.545983 0.304034 -0.214949
C72   C     C_R   0.975364 0.547678 0.712069 -0.184444
C73   C     C_R   0.551861 0.045982 0.304037 -0.214958
C74   C     C_R   0.475369 0.047678 0.712073 -0.184442
C75   C     C_R   0.742916 0.455619 0.701653 -0.162060
C76   C     C_R   0.267397 0.453281 0.260195 -0.162001
C77   C     C_R   0.242919 0.955620 0.701651 -0.162058
C78   C     C_R   0.767398 0.953280 0.260209 -0.161999
C79   C     C_R   0.060717 0.454783 0.306706 0.160951
C80   C     C_R   0.381351 0.819982 0.000049 0.145873
C81   C     C_R   0.965862 0.456216 0.705330 0.154355
C82   C     C_R   0.560719 0.954782 0.306706 0.160958
C83   C     C_R   0.465866 0.956216 0.705332 0.154352
C84   C     C_R   0.741988 0.547219 0.698669 -0.145091
C85   C     C_R   0.270789 0.545131 0.266359 -0.127231
C86   C     C_R   0.241991 0.047220 0.698668 -0.145102
C87   C     C_R   0.770790 0.045132 0.266367 -0.127233
C88   C     C_R   0.851352 0.351777 0.909419 -0.117008
C89   C     C_R   0.155929 0.353009 0.090594 -0.126189
C90   C     C_R   0.351352 0.851777 0.909418 -0.117004
C91   C     C_R   0.634407 0.824234 0.000096 0.142012
C92   C     C_R   0.655944 0.853016 0.090594 -0.126209
C93   C     C_R   0.900958 0.623873 0.090336 -0.111268
C94   C     C_R   0.085017 0.637724 0.908560 -0.119952
C95   C     C_R   0.400958 0.123862 0.090343 -0.111266
C96   C     C_R   0.585016 0.137725 0.908561 -0.119951
C97   C     C_R   0.810926 0.635818 0.999165 0.131162
C98   C     C_R   0.165179 0.659370 0.999244 0.134046
C99   C     C_R   0.310920 0.135797 0.999178 0.131152
C100  C     C_R   0.665178 0.159370 0.999244 0.134046
C101  C     C_3   0.536906 0.472937 0.664589 -0.431525
C102  C     C_R   0.072774 0.500131 0.368872 0.112188
C103  C     C_3   0.444443 0.460019 0.648693 -0.272907
C104  C     C_3   0.458467 0.452878 0.758127 -0.899148
C105  C     C_3   0.457783 0.386063 0.444854 -0.470838
C106  C     C_3   0.539976 0.348977 0.530152 -0.229754
C107  C     C_3   0.510840 0.289008 0.514760 -0.942573
C108  C     C_3   0.036927 0.972899 0.664599 -0.431516
C109  C     C_3   0.944466 0.959990 0.648713 -0.272820
C110  C     C_3   0.958512 0.952817 0.758158 -0.899105
C111  C     C_3   0.957806 0.886056 0.444823 -0.470733
C112  C     C_3   0.040024 0.848964 0.530068 -0.229757
H1    H     H_    0.747970 0.628712 0.823200 0.097364
H2    H     H_    0.670246 0.670573 0.917094 0.129662
H3    H     H_    0.851886 0.429653 0.478639 0.206171
H4    H     H_    0.971669 0.376973 0.645637 0.176847
H5    H     H_    0.898651 0.381406 0.694469 0.191273
H6    H     H_    0.714433 0.814321 0.487426 0.270496
H7    H     H_    0.756557 0.826302 0.404057 0.259868
H8    H     H_    0.828682 0.842580 0.547543 0.255231
H9    H     H_    0.753094 0.927350 0.427944 0.194001
H10   H     H_    0.720508 0.916303 0.519152 0.214916
H11   H     H_    0.568243 0.871019 0.360436 0.171629
H12   H     H_    0.611417 0.881284 0.279694 0.196799
H13   H     H_    0.762890 0.225849 0.064494 0.133194
H14   H     H_    0.322943 0.829031 0.478417 0.267812
H15   H     H_    0.254367 0.843935 0.530830 0.255077
H16   H     H_    0.215223 0.868782 0.397279 0.252060
H17   H     H_    0.285420 0.943885 0.533247 0.195775
H18   H     H_    0.351872 0.929667 0.478642 0.206165
H19   H     H_    0.471669 0.876978 0.645621 0.176851
H20   H     H_    0.398666 0.881401 0.694473 0.191271
H21   H     H_    0.170203 0.170501 0.917137 0.129634
H22   H     H_    0.765229 0.254399 0.830262 0.117557
H23   H     H_    0.201077 0.244231 0.152548 0.118926
H24   H     H_    0.265229 0.754399 0.830261 0.117559
H25   H     H_    0.700816 0.744174 0.152415 0.118898
H26   H     H_    0.894215 0.243367 0.081643 0.130921
H27   H     H_    0.165559 0.259859 0.927302 0.130892
H28   H     H_    0.394216 0.743367 0.081642 0.130920
H29   H     H_    0.225405 0.653469 0.174701 0.090171
H30   H     H_    0.665781 0.759924 0.927398 0.130904
H31   H     H_    0.111077 0.541443 0.517952 0.143160
H32   H     H_    0.974262 0.532787 0.521165 0.140732
H33   H     H_    0.611086 0.041442 0.517956 0.143158
H34   H     H_    0.474272 0.032787 0.521173 0.140732
H35   H     H_    0.985162 0.334170 0.173587 0.091410
H36   H     H_    0.026861 0.338235 0.826417 0.093163
H37   H     H_    0.485161 0.834169 0.173587 0.091407
H38   H     H_    0.526897 0.838249 0.826415 0.093180
H39   H     H_    0.066608 0.587995 0.331819 0.107203
H40   H     H_    0.247955 0.128693 0.823210 0.097368
H41   H     H_    0.972979 0.590054 0.689383 0.104169
H42   H     H_    0.566617 0.087994 0.331824 0.107200
H43   H     H_    0.472987 0.090054 0.689388 0.104171
H44   H     H_    0.727845 0.413269 0.676358 0.092870
H45   H     H_    0.285988 0.410451 0.274622 0.103161
H46   H     H_    0.227845 0.913270 0.676356 0.092869
H47   H     H_    0.785989 0.910451 0.274649 0.103154
H48   H     H_    0.726648 0.589372 0.669934 0.089982
H49   H     H_    0.295331 0.586363 0.292221 0.093687
H50   H     H_    0.226652 0.089373 0.669936 0.089988
H51   H     H_    0.725406 0.153468 0.174702 0.090172
H52   H     H_    0.795330 0.086363 0.292230 0.093691
H53   H     H_    0.813024 0.338695 0.825405 0.079514
H54   H     H_    0.197020 0.338343 0.174276 0.081419
H55   H     H_    0.313023 0.838696 0.825405 0.079510
H56   H     H_    0.697047 0.838349 0.174276 0.081451
H57   H     H_    0.927647 0.628085 0.175142 0.092874
H58   H     H_    0.052893 0.648656 0.824161 0.090312
H59   H     H_    0.427651 0.128066 0.175150 0.092873
H60   H     H_    0.552891 0.148658 0.824162 0.090314
H61   H     H_    0.420429 0.560531 0.495737 0.118293
H62   H     H_    0.491109 0.525530 0.292431 0.122195
H63   H     H_    0.608172 0.437476 0.432976 0.130916
H64   H     H_    0.920423 0.060508 0.495782 0.118287
H65   H     H_    0.108175 0.937506 0.432940 0.130897
H66   H     H_    0.509182 0.418765 0.806049 0.262331
H67   H     H_    0.485030 0.491366 0.805806 0.261585
H68   H     H_    0.390350 0.442988 0.743677 0.248787
H69   H     H_    0.392085 0.493560 0.601484 0.196835
H70   H     H_    0.416517 0.421461 0.602697 0.206824
H71   H     H_    0.587827 0.438594 0.709033 0.185743
H72   H     H_    0.567382 0.510305 0.715356 0.198693
H73   H     H_    0.567338 0.593052 0.480401 0.112307
H74   H     H_    0.452627 0.283967 0.523694 0.265934
H75   H     H_    0.487769 0.274797 0.432575 0.261850
H76   H     H_    0.571455 0.263119 0.577694 0.244171
H77   H     H_    0.599226 0.352613 0.522707 0.190239
H78   H     H_    0.564593 0.361267 0.613657 0.194337
H79   H     H_    0.399187 0.382245 0.452927 0.194585
H80   H     H_    0.433835 0.372233 0.362129 0.194808
H81   H     H_    0.009195 0.918680 0.806024 0.262308
H82   H     H_    0.985126 0.991288 0.805894 0.261569
H83   H     H_    0.890394 0.942945 0.743715 0.248780
H84   H     H_    0.991091 0.025566 0.292443 0.122196
H85   H     H_    0.892126 0.993548 0.601550 0.196803
H86   H     H_    0.916509 0.921445 0.602670 0.206789
H87   H     H_    0.087832 0.938545 0.709005 0.185747
H88   H     H_    0.067428 0.010256 0.715397 0.198687
H89   H     H_    0.952745 0.783939 0.523700 0.265898
H90   H     H_    0.987708 0.774819 0.432392 0.261851
H91   H     H_    0.071542 0.763096 0.577487 0.244150
H92   H     H_    0.099250 0.852613 0.522573 0.190238
H93   H     H_    0.064689 0.861232 0.613603 0.194292
H94   H     H_    0.899235 0.882222 0.452941 0.194564
H95   H     H_    0.067320 0.093063 0.480446 0.112304
H96   H     H_    0.933824 0.872244 0.362075 0.194782
H97   H     H_    0.200977 0.666923 0.850498 0.124035
H98   H     H_    0.809441 0.671353 0.168003 0.116996
H99   H     H_    0.700976 0.166924 0.850499 0.124034
H100  H     H_    0.309511 0.171363 0.168042 0.116961
H101  H     H_    0.070432 0.417682 0.485460 0.142787
H102  H     H_    0.093764 0.432971 0.665995 0.127115
H103  H     H_    0.570440 0.917681 0.485465 0.142786
H104  H     H_    0.593774 0.932971 0.666002 0.127109
H105  H     H_    0.214436 0.314325 0.487437 0.270495
H106  H     H_    0.262891 0.725849 0.064494 0.133195
H107  H     H_    0.256567 0.326304 0.404074 0.259864
H108  H     H_    0.328683 0.342588 0.547560 0.255240
H109  H     H_    0.253093 0.427354 0.427944 0.193990
H110  H     H_    0.220505 0.416310 0.519153 0.214915
H111  H     H_    0.068245 0.371019 0.360438 0.171629
H112  H     H_    0.111419 0.381285 0.279698 0.196797
H113  H     H_    0.822938 0.329020 0.478442 0.267819
H114  H     H_    0.754343 0.343947 0.530818 0.255086
H115  H     H_    0.715230 0.368776 0.397270 0.252068
H116  H     H_    0.785423 0.443887 0.533224 0.195783
N1    N     N_R   0.892320 0.603520 0.941090 -0.042330
N2    N     N_R   0.973240 0.529450 0.794410 -0.047387
N3    N     N_R   0.526760 0.029450 0.205590 -0.047376
N4    N     N_R   0.473240 0.029450 0.794410 -0.047386
N5    N     N_R   0.819350 0.473090 0.793940 -0.035031
N6    N     N_R   0.180650 0.473090 0.206060 -0.038254
N7    N     N_R   0.319350 0.973090 0.793940 -0.035029
N8    N     N_R   0.680650 0.973090 0.206060 -0.038250
N9    N     N_R   0.027860 0.473090 0.206590 -0.063085
N10   N     N_R   0.972140 0.473090 0.793410 -0.060568
N11   N     N_R   0.527860 0.973090 0.206590 -0.063084
N12   N     N_R   0.107680 0.603520 0.058910 -0.039894
N13   N     N_R   0.472140 0.973090 0.793410 -0.060567
N14   N     N_R   0.818250 0.529450 0.792940 -0.034565
N15   N     N_R   0.181750 0.529450 0.207060 -0.036835
N16   N     N_R   0.318250 0.029450 0.792940 -0.034567
N17   N     N_R   0.681750 0.029450 0.207060 -0.036833
N18   N     N_R   0.896320 0.399020 0.944720 -0.042290
N19   N     N_R   0.103680 0.399020 0.055280 -0.040923
N20   N     N_R   0.396320 0.899020 0.944720 -0.042290
N21   N     N_R   0.603680 0.899020 0.055280 -0.040924
N22   N     N_R   0.949790 0.603520 0.054810 -0.044924
N23   N     N_R   0.392320 0.103520 0.941090 -0.042332
N24   N     N_R   0.050210 0.603520 0.945190 -0.042891
N25   N     N_R   0.449790 0.103520 0.054810 -0.044926
N26   N     N_R   0.550210 0.103520 0.945190 -0.042891
N27   N     N_R   0.607680 0.103520 0.058910 -0.039895
N28   N     N_R   0.953790 0.399020 0.058440 -0.043534
N29   N     N_R   0.046210 0.399020 0.941560 -0.041332
N30   N     N_R   0.453790 0.899020 0.058440 -0.043533
N31   N     N_R   0.546210 0.899020 0.941560 -0.041335
N32   N     N_R   0.026760 0.529450 0.205590 -0.047375
Ni1   Ni    Ni4+2 0.934100 0.565890 0.869590 0.210119
Ni2   Ni    Ni4+2 0.065900 0.565890 0.130410 0.208343
Ni3   Ni    Ni4+2 0.434100 0.065890 0.869590 0.210123
Ni4   Ni    Ni4+2 0.565900 0.065890 0.130410 0.208342
Ni5   Ni    Ni4+2 0.068420 0.436630 0.132700 0.200904
Ni6   Ni    Ni4+2 0.931580 0.436630 0.867300 0.200036
Ni7   Ni    Ni4+2 0.568420 0.936630 0.132700 0.200902
Ni8   Ni    Ni4+2 0.431580 0.936630 0.867300 0.200036

loop_
_geom_bond_atom_site_label_1
_geom_bond_atom_site_label_2
_ccdc_geom_bond_type
C26   C111  S    
C5    H109  S    
N3    Ni4   S    
C21   C87   A    
C18   C75   A    
N4    Ni3   S    
C29   C33   S    
C90   H55   S    
C103  H70   S    
C3    H91   S    
C105  H79   S    
C64   H103  S    
C109  H85   S    
C111  C112  S    
C85   N15   A    
N28   Ni5   S    
C19   C31   S    
C27   H61   S    
C84   H48   S    
C7    C8    S    
C14   H20   S    
C92   N21   A    
C81   N10   A    
C78   N8    A    
C54   C69   A    
C107  H74   S    
C93   H57   S    
C20   C86   A    
C22   C101  S    
C72   N2    A    
C20   C77   A    
C5    C6    S    
C50   C59   D    
C64   C68   D    
N9    Ni5   S    
C19   C76   A    
C35   C37   S    
C24   C26   S    
C112  H93   S    
C10   H12   S    
C52   C61   D    
C38   C39   S    
C95   C99   A    
N23   N25   A    
C104  H67   S    
C21   C33   S    
C106  C107  S    
C94   C98   A    
C15   C16   S    
C12   H7    S    
C107  H75   S    
C53   H35   S    
C36   N23   A    
C49   C57   D    
C108  C109  S    
C30   C38   S    
N3    N11   A    
C42   C46   D    
C20   C34   S    
C7    H5    S    
C85   H49   S    
N22   Ni2   S    
N31   Ni8   S    
C46   H13   S    
C8    H3    S    
N5    Ni6   S    
C24   C29   S    
C44   C98   S    
C75   H44   S    
C30   H65   S    
C56   C91   A    
C71   H39   S    
C28   C35   S    
C61   C91   S    
C8    C9    S    
C90   N20   A    
C73   H42   S    
C110  H82   S    
N8    Ni7   S    
C18   C84   A    
C79   C102  A    
C55   H37   S    
C9    H114  S    
C86   H50   S    
N15   Ni2   S    
N32   Ni2   S    
C43   C48   D    
C95   N25   A    
C41   C52   S    
N1    N22   A    
C101  H71   S    
C77   H46   S    
N12   N24   A    
C47   H51   S    
C78   H47   S    
C5    H110  S    
N2    Ni1   S    
C17   C70   S    
C101  C103  S    
C12   H8    S    
C80   C90   A    
C65   C70   D    
C105  H80   S    
C16   H14   S    
C109  H86   S    
C11   H9    S    
C1    H1    S    
C14   C83   S    
N21   N31   A    
C2    C72   A    
N30   Ni7   S    
C45   H2    S    
N12   Ni2   S    
N19   N29   A    
C87   N17   A    
C63   C67   D    
C14   H19   S    
C22   C23   S    
C8    H116  S    
N7    N16   A    
C104  H66   S    
C76   H45   S    
C62   C66   D    
C27   C31   S    
C34   C39   S    
C6    H108  S    
C48   H21   S    
C28   C32   S    
C44   H106  S    
C65   H104  S    
C74   N4    A    
C10   H11   S    
C1    C97   A    
C91   C92   A    
C66   C102  S    
C30   C34   S    
C36   H40   S    
N6    Ni5   S    
C66   H31   S    
C25   N12   A    
C71   N32   A    
C4    H112  S    
C88   N18   A    
C107  H76   S    
C10   C82   S    
C24   C34   S    
C47   C100  A    
C89   N19   A    
C39   H95   S    
C17   C83   A    
C23   C31   S    
C7    H4    S    
C108  H88   S    
C47   N27   A    
C62   C63   S    
C6    H105  S    
C51   H24   S    
C92   H56   S    
C26   C33   S    
C61   H30   S    
C15   H17   S    
C59   H27   S    
C3    C112  S    
C53   C58   A    
C87   H52   S    
C82   N11   A    
C29   C39   S    
N9    N32   A    
C52   H25   S    
N13   Ni8   S    
N11   Ni7   S    
C9    H115  S    
N16   Ni3   S    
N19   Ni5   S    
C32   C37   S    
C21   C78   A    
C43   H100  S    
C16   H16   S    
C111  H94   S    
C101  H72   S    
C22   C32   S    
N24   Ni1   S    
C4    C79   S    
C77   N7    A    
C70   H34   S    
C41   H98   S    
N25   Ni4   S    
C67   H32   S    
C53   N28   A    
C71   C102  A    
C59   C69   S    
N26   Ni3   S    
C2    C67   S    
C22   C27   S    
C17   C74   A    
C3    H89   S    
C62   H101  S    
C31   C35   S    
N2    N10   A    
C11   H10   S    
C18   C32   S    
C23   C28   S    
C106  H78   S    
C29   H64   S    
C56   H38   S    
C40   C51   S    
C49   H22   S    
C93   C97   A    
C73   N3    A    
C93   N22   A    
C54   H36   S    
C12   H6    S    
C110  H81   S    
N18   Ni6   S    
N7    Ni8   S    
C3    H90   S    
C48   C99   S    
C46   C100  S    
C60   C80   S    
C41   C45   D    
C72   H41   S    
N20   N30   A    
C7    C81   S    
C103  H69   S    
C35   H62   S    
N8    N17   A    
C25   H29   S    
N29   Ni6   S    
C13   C73   A    
C4    C5    S    
C19   C85   A    
C94   N24   A    
C60   H28   S    
C76   N6    A    
C11   C12   S    
C43   C50   S    
C26   C30   S    
N20   Ni8   S    
N1    Ni1   S    
C69   C89   A    
C4    H111  S    
C105  C106  S    
N6    N15   A    
C33   C38   S    
C63   H102  S    
C50   H23   S    
C55   N30   A    
C64   C65   S    
N21   Ni7   S    
N26   N27   A    
C37   H73   S    
N4    N13   A    
C13   C82   A    
C45   C97   S    
N10   Ni6   S    
C94   H58   S    
C57   H26   S    
C112  H92   S    
C55   C80   A    
C57   C58   S    
C104  H68   S    
C15   H18   S    
N18   N28   A    
C108  H87   S    
N5    N14   A    
C40   H97   S    
N14   Ni1   S    
C38   H84   S    
C74   H43   S    
C75   N5    A    
C36   C99   A    
C68   H33   S    
C28   H63   S    
C96   C100  A    
C16   H15   S    
C89   H54   S    
C110  H83   S    
C10   C11   S    
C42   H99   S    
C42   C49   S    
C96   N26   A    
C6    H107  S    
C56   N31   A    
C1    N1    A    
C25   C98   A    
C40   C44   D    
N27   Ni4   S    
C86   N16   A    
C88   H53   S    
C96   H60   S    
N23   Ni3   S    
C103  C104  S    
C54   N29   A    
C79   N9    A    
C14   C15   S    
C2    C81   A    
C84   N14   A    
C51   C60   D    
C106  H77   S    
C95   H59   S    
C83   N13   A    
C109  C110  S    
N17   Ni4   S    
C58   C88   A    
C111  H96   S    
C24   C108  S    
C27   C37   S    
C9    H113  S    
C13   C68   S    
C23   C105  S    
