data_mof_unit_43233.cif
_audit_creation_date              2012-12-10T20:44:42-0500
_audit_creation_method            fapswitch 2.2
_symmetry_space_group_name_H-M    P1
_symmetry_Int_Tables_number       1
_space_group_crystal_system       triclinic
_cell_length_a                    9.915598
_cell_length_b                    10.688136
_cell_length_c                    16.808474
_cell_angle_alpha                 88.286983
_cell_angle_beta                  93.347969
_cell_angle_gamma                 89.627576
_cell_volume                      1777.45393106

loop_
_atom_site_label
_atom_site_type_symbol
_atom_type_description
_atom_site_fract_x
_atom_site_fract_y
_atom_site_fract_z
_atom_type_partial_charge
C1    C     C_R   0.499936 0.260048 0.497269 0.868747
C2    C     C_R   0.649361 0.465305 0.782304 -0.226417
C3    C     C_R   0.549000 0.385306 0.146233 -0.150657
C4    C     C_R   0.561825 0.403561 0.227444 -0.146485
C5    C     C_R   0.444858 0.447053 0.099561 0.308436
C6    C     C_R   0.471897 0.483735 0.262217 -0.032199
C7    C     C_R   0.364252 0.540060 0.216631 -0.210764
C8    C     C_R   0.350771 0.521183 0.135386 -0.169300
C9    C     C_R   0.617812 0.063456 0.475360 0.128971
C10   C     C_R   0.497827 0.129122 0.483402 -0.111290
C11   C     C_R   0.373876 0.066598 0.474554 -0.214652
C12   C     C_R   0.516502 0.495133 0.653264 0.857144
C13   C     C_R   0.373222 0.937177 0.474199 -0.223340
C14   C     C_R   0.496521 0.871762 0.482706 -0.122615
C15   C     C_R   0.616992 0.935705 0.475121 0.209457
C16   C     C_3   0.748043 0.923544 0.523193 -0.441092
C17   C     C_3   0.748948 0.065046 0.523792 -0.526394
C18   C     C_R   0.077675 0.462745 0.566577 0.200753
C19   C     C_R   0.068383 0.551173 0.438497 -0.202465
C20   C     C_R   0.925492 0.555184 0.437981 0.445881
C21   C     C_R   0.935703 0.463268 0.566763 0.125555
C22   C     C_3   0.935263 0.339309 0.609284 -0.493471
C23   C     C_R   0.499127 0.739971 0.496993 0.902927
C24   C     C_3   0.088376 0.338071 0.608506 -0.479287
C25   C     C_R   0.483123 0.499336 0.347156 0.881758
C26   C     C_R   0.523964 0.474415 0.739210 -0.025322
C27   C     C_R   0.404463 0.454205 0.777918 -0.231064
C28   C     C_R   0.409619 0.427288 0.858777 -0.165584
C29   C     C_R   0.534939 0.423272 0.902826 0.329709
C30   C     C_R   0.654449 0.439358 0.863926 -0.186710
H1    H     H_    0.640674 0.354022 0.263203 0.177943
H2    H     H_    0.277184 0.889350 0.473561 0.184725
H3    H     H_    0.737325 0.879071 0.583149 0.193106
H4    H     H_    0.829337 0.883516 0.488589 0.238980
H5    H     H_    0.738226 0.102103 0.584249 0.205988
H6    H     H_    0.831152 0.105958 0.489353 0.212980
H7    H     H_    0.121240 0.588313 0.388666 0.207001
H8    H     H_    0.897722 0.345360 0.670069 0.198500
H9    H     H_    0.887211 0.267244 0.571912 0.212943
H10   H     H_    0.138943 0.343086 0.669003 0.192579
H11   H     H_    0.620724 0.324348 0.119990 0.156690
H12   H     H_    0.128438 0.264338 0.570756 0.210946
H13   H     H_    0.751166 0.436056 0.897427 0.145142
H14   H     H_    0.743003 0.478955 0.753240 0.157899
H15   H     H_    0.292095 0.599698 0.243694 0.174887
H16   H     H_    0.315344 0.412698 0.887037 0.150147
H17   H     H_    0.269790 0.567794 0.099691 0.154202
H18   H     H_    0.306562 0.459000 0.745932 0.159126
H19   H     H_    0.278091 0.116035 0.474021 0.175140
N1    N     N_2   0.543552 0.414462 0.986720 -0.196239
N2    N     N_2   0.435696 0.443600 0.016008 -0.202700
N3    N     N_R   0.142860 0.499130 0.500540 -0.140946
N4    N     N_R   0.857210 0.499170 0.500530 -0.169603
O1    O     O_R   0.614690 0.316790 0.499990 -0.622065
O2    O     O_R   0.385350 0.316760 0.500000 -0.622062
O3    O     O_R   0.627460 0.498860 0.616130 -0.625856
O4    O     O_R   0.398120 0.498820 0.616130 -0.617465
O5    O     O_R   0.614650 0.683240 0.500000 -0.565883
O6    O     O_R   0.385310 0.683210 0.500010 -0.627649
O7    O     O_R   0.601880 0.501180 0.383870 -0.530835
O8    O     O_R   0.372540 0.501140 0.383870 -0.633380
Zn1   Zn    Zn3+2 0.653130 0.500020 0.499990 1.007100
Zn2   Zn    Zn3+2 0.346870 0.499980 0.500010 0.950780
S1    S     S_3+6 0.849654 0.630826 0.350417 0.021322
O9    O     O_2   0.951099 0.715676 0.313844 -0.336077
O10   O     O_2   0.812191 0.532588 0.291311 -0.318575
O11   O     O_3   0.714496 0.719677 0.365997 -0.547072
H20   H     H_    0.677747 0.746892 0.312137 0.368056

loop_
_geom_bond_atom_site_label_1
_geom_bond_atom_site_label_2
_ccdc_geom_bond_type
C27   H18   S    
C20   S1    S    
C23   O5    A    
C21   N4    A    
C1    O1    A    
O5    Zn1   S    
C29   C30   A    
C11   H19   S    
C17   H6    S    
C16   H3    S    
C5    C8    A    
C18   C21   A    
C19   H7    S    
C9    C10   A    
C13   H2    S    
O6    Zn2   S    
C19   C20   A    
C2    C30   A    
C16   H4    S    
S1    O9    D    
N1    N2    D    
C9    C15   A    
C8    H17   S    
C18   N3    A    
C7    C8    A    
C2    C26   A    
S1    O10   D    
C25   O8    A    
C21   C22   S    
C12   C26   S    
C23   O6    A    
C11   C13   A    
C28   H16   S    
C26   C27   A    
C12   O3    A    
C18   C24   S    
C12   O4    A    
C7    H15   S    
C4    C6    A    
C28   C29   A    
C25   O7    A    
C14   C23   S    
O4    Zn2   S    
C6    C7    A    
C22   C24   S    
C29   N1    S    
C1    O2    A    
O3    Zn1   S    
C30   H13   S    
C6    C25   S    
C16   C17   S    
C10   C11   A    
C22   H9    S    
O11   H20   S    
C4    H1    S    
S1    O11   S    
C24   H12   S    
C3    C4    A    
O7    Zn1   S    
N4    Zn1   S    
C9    C17   S    
C27   C28   A    
O8    Zn2   S    
C14   C15   A    
C3    H11   S    
C17   H5    S    
O1    Zn1   S    
C24   H10   S    
C13   C14   A    
C19   N3    A    
N3    Zn2   S    
C5    N2    S    
C1    C10   S    
C15   C16   S    
C2    H14   S    
C20   N4    A    
C3    C5    A    
C22   H8    S    
O2    Zn2   S    
