data_mof_unit_44563.cif
_audit_creation_date              2012-12-10T19:45:42-0500
_audit_creation_method            fapswitch 2.2
_symmetry_space_group_name_H-M    P1
_symmetry_Int_Tables_number       1
_space_group_crystal_system       triclinic
_cell_length_a                    10.906587
_cell_length_b                    14.80207
_cell_length_c                    14.82958
_cell_angle_alpha                 64.146358
_cell_angle_beta                  104.973716
_cell_angle_gamma                 102.294198
_cell_volume                      2067.42261769

loop_
_atom_site_label
_atom_site_type_symbol
_atom_type_description
_atom_site_fract_x
_atom_site_fract_y
_atom_site_fract_z
_atom_type_partial_charge
C1    C     C_R   0.474101 0.120627 0.312069 0.796603
C2    C     C_R   0.527612 0.879818 0.687787 0.795390
C3    C     C_R   0.869811 0.995564 0.499636 -0.125115
C4    C     C_R   0.129865 0.996185 0.508050 -0.127639
C5    C     C_R   0.906554 0.941401 0.453942 0.113241
C6    C     C_R   0.092701 0.046837 0.556535 0.066688
C7    C     C_R   0.440639 0.191910 0.204504 -0.041716
C8    C     C_R   0.578799 0.810850 0.792232 -0.024768
C9    C     C_R   0.280881 0.246597 0.049980 -0.176707
C10   C     C_R   0.767138 0.738914 0.910443 -0.164223
C11   C     C_R   0.327244 0.171956 0.143002 -0.155683
C12   C     C_R   0.710750 0.818581 0.827614 -0.169934
C13   C     C_R   0.510886 0.287567 0.167997 -0.155815
C14   C     C_R   0.504704 0.721162 0.841316 -0.180228
C15   C     C_R   0.473525 0.360472 0.068395 0.066428
C16   C     C_R   0.562492 0.633242 0.910718 0.059622
C17   C     C_R   0.350826 0.342391 0.013379 -0.023733
C18   C     C_R   0.694791 0.644762 0.951371 -0.002053
C19   C     C_R   0.550733 0.453270 0.025542 -0.088795
C20   C     C_R   0.493085 0.534934 0.939957 -0.085473
C21   C     C_R   0.373429 0.512552 0.881900 0.092550
C22   C     C_R   0.685537 0.464979 0.059169 0.081822
C23   C     C_R   0.263262 0.998741 0.503156 0.796913
C24   C     C_R   0.736740 0.999492 0.498776 0.794626
C25   C     C_R   0.300702 0.418672 0.921438 0.402070
C26   C     C_R   0.755297 0.561046 0.026006 0.435777
C27   C     C_R   0.714426 0.283742 0.670513 -0.233854
C28   C     C_R   0.293991 0.719081 0.324967 -0.270177
C29   C     C_R   0.683865 0.204318 0.640010 0.391756
C30   C     C_R   0.317645 0.795499 0.359300 0.353131
C31   C     C_R   0.518988 0.287218 0.507515 -0.033196
C32   C     C_R   0.485908 0.715558 0.489997 0.010601
C33   C     C_R   0.551956 0.373348 0.532847 -0.001564
C34   C     C_R   0.460004 0.631997 0.461149 -0.006716
C35   C     C_R   0.648617 0.367486 0.618684 0.150549
C36   C     C_R   0.365208 0.638274 0.374053 0.156152
C37   C     C_R   0.492388 0.464044 0.477636 0.119100
C38   C     C_R   0.523676 0.543103 0.514488 0.112982
C39   C     C_R   0.616854 0.530294 0.603383 -0.138348
C40   C     C_R   0.405722 0.479573 0.385221 -0.203498
C41   C     C_R   0.679761 0.444855 0.653139 -0.091840
C42   C     C_R   0.341268 0.564150 0.335711 -0.114676
C43   C     C_R   0.365564 0.110899 0.743597 0.131945
C44   C     C_R   0.647818 0.901054 0.244807 0.134850
C45   C     C_R   0.278286 0.056814 0.692961 -0.258976
C46   C     C_R   0.729678 0.945499 0.307148 -0.275426
C47   C     C_R   0.183515 0.104721 0.610879 -0.056650
C48   C     C_R   0.816312 0.889794 0.391786 -0.032137
C49   C     C_R   0.171896 0.207133 0.583039 0.396423
C50   C     C_R   0.824904 0.788496 0.411009 0.394454
C51   C     C_R   0.254421 0.259528 0.638472 0.055421
C52   C     C_R   0.747542 0.745876 0.343188 0.009979
C53   C     C_R   0.353256 0.212350 0.717790 0.363451
C54   C     C_R   0.659905 0.802822 0.259482 0.399311
C55   C     C_R   0.963491 0.045513 0.551240 -0.148205
C56   C     C_R   0.036052 0.943578 0.458961 -0.178786
Cu1   Cu    Cu3+1 0.466270 0.918260 0.475690 0.989816
Cu2   Cu    Cu3+1 0.533730 0.081740 0.524310 0.983198
H1    H     H_    0.189062 0.229057 0.007491 0.194693
H2    H     H_    0.869568 0.748792 0.935967 0.192490
H3    H     H_    0.752853 0.438755 0.720246 0.138194
H4    H     H_    0.271737 0.571597 0.266471 0.135761
H5    H     H_    0.562186 0.719678 0.551250 0.145502
H6    H     H_    0.440398 0.283415 0.447463 0.125173
H7    H     H_    0.790959 0.280201 0.735029 0.167676
H8    H     H_    0.218520 0.722502 0.259846 0.160606
H9    H     H_    0.644311 0.585361 0.636275 0.144859
H10   H     H_    0.385847 0.427402 0.349037 0.124705
H11   H     H_    0.286598 0.977867 0.715556 0.177481
H12   H     H_    0.723254 0.023258 0.291195 0.190389
H13   H     H_    0.936385 0.085104 0.587772 0.212709
H14   H     H_    0.063138 0.906933 0.419781 0.181490
H15   H     H_    0.402292 0.719998 0.820746 0.157786
H16   H     H_    0.591784 0.306194 0.219424 0.173462
H17   H     H_    0.772288 0.882467 0.786577 0.169700
H18   H     H_    0.268637 0.101608 0.169535 0.193558
N1    N     N_R   0.584450 0.204570 0.560790 -0.196671
N2    N     N_R   0.415550 0.795430 0.439210 -0.192366
O1    O     O_R   0.455540 0.022090 0.338120 -0.538824
O2    O     O_R   0.544460 0.977910 0.661880 -0.547148
O3    O     O_R   0.512510 0.160150 0.379180 -0.587039
O4    O     O_R   0.487490 0.839850 0.620820 -0.562900
O5    O     O_R   0.291160 0.930970 0.479480 -0.564661
O6    O     O_R   0.708840 0.069030 0.520520 -0.558029
O7    O     O_R   0.348130 0.069020 0.520540 -0.586873
O8    O     O_R   0.651870 0.930980 0.479460 -0.580073
O9    O     O_3   0.442918 0.267513 0.764455 -0.557940
C57   C     C_3   0.405235 0.254597 0.853639 -0.166460
H19   H     H_    0.405731 0.175054 0.910710 0.191658
H20   H     H_    0.309100 0.278832 0.836335 0.197023
H21   H     H_    0.474804 0.302335 0.888482 0.196568
O10   O     O_3   0.578710 0.759341 0.197003 -0.540960
C58   C     C_3   0.634338 0.783106 0.112188 -0.190339
H22   H     H_    0.726813 0.751447 0.135949 0.147247
H23   H     H_    0.648629 0.866061 0.066998 0.195320
H24   H     H_    0.568924 0.748872 0.061542 0.195319
I1    I     I_    0.312452 0.597580 0.721020 -0.350048
I2    I     I_    0.799431 0.340979 0.127455 -0.401900
I3    I     I_    0.189685 0.904497 0.277452 -0.434820
I4    I     I_    0.805178 0.090775 0.727054 -0.349845
I5    I     I_    0.514762 0.035830 0.857609 -0.323430
I6    I     I_    0.503249 0.983637 0.131966 -0.300401
O11   O     O_3   0.072385 0.253530 0.507859 -0.547637
C59   C     C_3   0.107978 0.291062 0.411979 -0.242291
H25   H     H_    0.136617 0.231252 0.397867 0.149475
H26   H     H_    0.185863 0.354055 0.404533 0.158788
H27   H     H_    0.024648 0.321545 0.351811 0.214133
O12   O     O_3   0.895811 0.728956 0.502802 -0.569260
C60   C     C_3   0.004163 0.702911 0.487625 -0.201968
H28   H     H_    0.012138 0.729643 0.406308 0.154705
H29   H     H_    0.002439 0.619467 0.523765 0.230088
H30   H     H_    0.091743 0.734247 0.527158 0.198769
I7    I     I_    0.223217 0.408568 0.602693 -0.262672
I8    I     I_    0.760084 0.595972 0.364074 -0.401568
O13   O     O_3   0.183443 0.398657 0.865427 -0.566949
C61   C     C_3   0.088704 0.430478 0.890658 -0.219227
H31   H     H_    0.104809 0.513374 0.870087 0.179767
H32   H     H_    0.083758 0.388740 0.973069 0.165129
H33   H     H_    0.994564 0.413963 0.846313 0.192797
O14   O     O_3   0.886641 0.570828 0.057723 -0.570439
C62   C     C_3   0.914330 0.584456 0.149592 -0.272156
H34   H     H_    0.883366 0.656418 0.137472 0.156648
H35   H     H_    0.019299 0.589007 0.176908 0.187064
H36   H     H_    0.870035 0.519660 0.210386 0.199246

loop_
_geom_bond_atom_site_label_1
_geom_bond_atom_site_label_2
_ccdc_geom_bond_type
O9    C57   S    
C58   H22   S    
C22   I2    S    
C27   C29   A    
Cu1   O1    S    
C5    C56   A    
C36   C42   A    
C19   C20   A    
C18   C26   A    
C41   H3    S    
C6    C55   A    
C59   H26   S    
C39   C41   A    
O12   C60   S    
C15   C19   A    
C51   I7    S    
C23   O5    A    
C16   C20   A    
C26   O14   S    
C37   C40   A    
C11   H18   S    
C60   H29   S    
C38   C39   A    
C1    O3    A    
O13   C61   S    
Cu1   O8    S    
C62   H36   S    
Cu2   N1    S    
C3    C55   A    
C43   C53   A    
C52   C54   A    
C49   C51   A    
C50   C52   A    
Cu1   O5    S    
C42   H4    S    
Cu2   O2    S    
C9    C11   A    
C48   C50   A    
C40   H10   S    
C58   H23   S    
C1    C7    S    
C4    C56   A    
C50   O12   S    
C3    C24   S    
C31   H6    S    
C59   H25   S    
C44   C46   A    
C31   N1    A    
C45   C47   A    
C5    C48   S    
C46   C48   A    
C46   H12   S    
C6    C47   S    
C45   H11   S    
C14   H15   S    
C19   C22   A    
C2    O2    A    
C4    C6    A    
Cu2   O3    S    
C4    C23   S    
C44   I6    S    
C27   C35   A    
C30   I3    S    
C33   C37   A    
C51   C53   A    
C32   C34   A    
C28   H8    S    
C43   I5    S    
C54   O10   S    
C37   C38   A    
C27   H7    S    
Cu2   O6    S    
C21   I1    S    
C7    C11   A    
C57   H21   S    
C8    C12   A    
C31   C33   A    
C53   O9    S    
C20   C21   A    
C43   C45   A    
C62   H34   S    
C10   C12   A    
C9    C17   A    
C57   H20   S    
C58   H24   S    
C13   C15   A    
C23   O7    A    
C1    O1    A    
C14   C16   A    
C60   H30   S    
Cu2   O7    S    
O14   C62   S    
C15   C17   A    
C21   C25   A    
C10   H2    S    
C8    C14   A    
C29   I4    S    
C56   H14   S    
C34   C38   A    
C39   H9    S    
Cu1   N2    S    
C2    C8    S    
C32   H5    S    
C40   C42   A    
C3    C5    A    
C49   O11   S    
C52   I8    S    
C47   C49   A    
C61   H33   S    
C17   C25   A    
C25   O13   S    
C24   O6    A    
C60   H28   S    
Cu1   Cu2   S    
C10   C18   A    
C28   C30   A    
O10   C58   S    
C33   C35   A    
C61   H32   S    
C61   H31   S    
C34   C36   A    
C35   C41   A    
C62   H35   S    
C2    O4    A    
C32   N2    A    
C30   N2    A    
C44   C54   A    
C7    C13   A    
C29   N1    A    
C57   H19   S    
C28   C36   A    
C16   C18   A    
C22   C26   A    
C12   H17   S    
O11   C59   S    
Cu1   O4    S    
C9    H1    S    
C24   O8    A    
C59   H27   S    
C55   H13   S    
C13   H16   S    
