data_mof_unit_35743.cif
_audit_creation_date              2012-12-10T17:40:32-0500
_audit_creation_method            fapswitch 2.2
_symmetry_space_group_name_H-M    P1
_symmetry_Int_Tables_number       1
_space_group_crystal_system       triclinic
_cell_length_a                    13.829172
_cell_length_b                    15.03637
_cell_length_c                    15.766707
_cell_angle_alpha                 88.039053
_cell_angle_beta                  68.791612
_cell_angle_gamma                 90.894292
_cell_volume                      3053.31682698

loop_
_atom_site_label
_atom_site_type_symbol
_atom_type_description
_atom_site_fract_x
_atom_site_fract_y
_atom_site_fract_z
_atom_type_partial_charge
C1    C     C_R   0.500449 0.671209 0.500152 0.831728
C2    C     C_R   0.499080 0.328772 0.500782 0.833149
C3    C     C_R   0.400304 0.576048 0.084898 -0.217250
C4    C     C_R   0.624313 0.486393 0.900581 -0.222520
C5    C     C_R   0.332084 0.593523 0.040451 -0.100278
C6    C     C_R   0.695144 0.474351 0.943502 -0.125328
C7    C     C_R   0.557759 0.185341 0.542658 -0.167047
C8    C     C_R   0.441275 0.814712 0.459395 -0.182287
C9    C     C_R   0.497173 0.231972 0.502598 -0.066167
C10   C     C_R   0.500945 0.767955 0.500261 -0.059494
C11   C     C_R   0.435611 0.186163 0.463797 -0.191748
C12   C     C_R   0.559302 0.813543 0.542257 -0.145327
C13   C     C_R   0.436151 0.093503 0.462826 0.100070
C14   C     C_R   0.559152 0.906250 0.542944 0.094014
C15   C     C_R   0.497534 0.046512 0.502870 0.064487
C16   C     C_R   0.498607 0.953319 0.502096 0.060491
C17   C     C_R   0.557990 0.092656 0.543528 0.088789
C18   C     C_R   0.439236 0.907266 0.460355 0.095849
C19   C     C_R   0.377143 0.047121 0.421867 -0.170589
C20   C     C_R   0.618167 0.952645 0.583913 -0.163999
C21   C     C_R   0.379058 0.954506 0.420261 -0.132684
C22   C     C_R   0.617761 0.045394 0.584042 -0.118450
C23   C     C_R   0.436711 0.502278 0.672616 0.844040
C24   C     C_R   0.563549 0.499779 0.327160 0.847428
C25   C     C_R   0.226574 0.568213 0.456624 0.023287
C26   C     C_R   0.777805 0.427989 0.535564 -0.009367
C27   C     C_R   0.183169 0.433734 0.547599 0.523088
C28   C     C_R   0.814518 0.570654 0.457709 0.541755
C29   C     C_R   0.088792 0.425010 0.531607 -0.128239
C30   C     C_R   0.914209 0.574040 0.465464 -0.124430
C31   C     C_R   0.054271 0.498504 0.495310 0.008497
C32   C     C_R   0.950221 0.498399 0.497146 0.006188
C33   C     C_R   0.122694 0.573155 0.460336 -0.101295
C34   C     C_R   0.882547 0.423182 0.530985 -0.096253
C35   C     C_R   0.025173 0.347163 0.556387 -0.143707
C36   C     C_R   0.980337 0.651244 0.439980 -0.143305
C37   C     C_R   0.922589 0.345611 0.558209 0.363970
C38   C     C_R   0.084063 0.650720 0.433133 0.428695
C39   C     C_R   0.400538 0.516442 0.770931 -0.121580
C40   C     C_R   0.602399 0.499103 0.227042 -0.100892
C41   C     C_R   0.284130 0.586305 0.904901 0.414070
C42   C     C_R   0.737353 0.468664 0.082543 0.355822
C43   C     C_R   0.310189 0.562235 0.814559 -0.176775
C44   C     C_R   0.704057 0.476334 0.177023 -0.220622
C45   C     C_R   0.466422 0.495457 0.817557 -0.222861
C46   C     C_R   0.534392 0.518152 0.181993 -0.234111
C47   C     C_R   0.448304 0.525258 0.905367 0.042535
C48   C     C_R   0.565093 0.514111 0.087020 0.048677
C49   C     C_R   0.353585 0.568160 0.950986 -0.001606
C50   C     C_R   0.666964 0.485764 0.037090 0.031882
C51   C     C_R   0.522358 0.513760 0.948484 0.105673
C52   C     C_R   0.495212 0.534075 0.041334 0.089011
Cu1   Cu    Cu3+1 0.402580 0.500010 0.499990 1.030111
Cu2   Cu    Cu3+1 0.597420 0.499990 0.500010 1.025624
H1    H     H_    0.262233 0.627512 0.077852 0.231016
H2    H     H_    0.771891 0.454427 0.901900 0.218156
H3    H     H_    0.282927 0.620850 0.424016 0.206348
H4    H     H_    0.723465 0.373279 0.565265 0.212644
H5    H     H_    0.056332 0.286553 0.573482 0.227905
H6    H     H_    0.951942 0.714054 0.425764 0.243919
H7    H     H_    0.455724 0.532439 0.223309 0.168755
H8    H     H_    0.532499 0.456079 0.782960 0.166973
H9    H     H_    0.756209 0.461515 0.212469 0.198030
H10   H     H_    0.262102 0.582427 0.776899 0.235190
H11   H     H_    0.378247 0.600483 0.152577 0.178386
H12   H     H_    0.653720 0.477185 0.828267 0.150621
H13   H     H_    0.603770 0.221272 0.573973 0.201016
H14   H     H_    0.397308 0.778927 0.426114 0.182354
H15   H     H_    0.389101 0.222743 0.432734 0.154672
H16   H     H_    0.603742 0.776769 0.575237 0.169777
H17   H     H_    0.329992 0.082496 0.390699 0.167987
H18   H     H_    0.664851 0.917222 0.615527 0.174001
H19   H     H_    0.333458 0.919907 0.387749 0.191488
H20   H     H_    0.664090 0.080126 0.615825 0.220557
N1    N     N_R   0.256170 0.500070 0.500040 -0.252516
N2    N     N_R   0.743830 0.499930 0.499960 -0.258450
O1    O     O_R   0.417730 0.629750 0.499970 -0.601121
O2    O     O_R   0.582270 0.370250 0.500030 -0.599634
O3    O     O_R   0.582270 0.629730 0.499980 -0.524892
O4    O     O_R   0.417730 0.370270 0.500020 -0.551401
O5    O     O_R   0.371590 0.500020 0.629830 -0.502533
O6    O     O_R   0.628410 0.499980 0.370170 -0.527336
O7    O     O_R   0.536130 0.499990 0.629840 -0.606671
O8    O     O_R   0.463870 0.500010 0.370160 -0.608409
S1    S     S_3+6 0.178627 0.390052 0.656478 0.047081
O9    O     O_2   0.270241 0.334791 0.649606 -0.281423
O10   O     O_2   0.175673 0.467755 0.714470 -0.259392
O11   O     O_3   0.070919 0.327491 0.712653 -0.525133
H21   H     H_    0.071871 0.316621 0.774671 0.413691
S2    S     S_3+6 0.796887 0.657017 0.381701 0.017434
O12   O     O_2   0.716947 0.642092 0.340230 -0.262677
O13   O     O_2   0.773208 0.741699 0.432313 -0.335707
O14   O     O_3   0.909896 0.672595 0.292907 -0.518154
H22   H     H_    0.906703 0.732896 0.266876 0.400630
S3    S     S_3+6 0.848004 0.244883 0.593179 -0.002284
O15   O     O_2   0.815787 0.215600 0.516879 -0.281757
O16   O     O_2   0.909456 0.172731 0.616409 -0.232791
O17   O     O_3   0.741100 0.261336 0.684955 -0.554164
H23   H     H_    0.767010 0.289244 0.728974 0.357549
S4    S     S_3+6 0.160451 0.750423 0.396168 -0.012804
O18   O     O_2   0.100435 0.822398 0.370707 -0.239448
O19   O     O_2   0.192416 0.780790 0.472261 -0.318528
O20   O     O_3   0.266776 0.730729 0.304969 -0.573414
H24   H     H_    0.310096 0.786124 0.293376 0.365209
S5    S     S_3+6 0.167167 0.643471 0.955294 0.041245
O21   O     O_2   0.099976 0.593344 0.041008 -0.264697
O22   O     O_2   0.192327 0.735059 0.978285 -0.272945
O23   O     O_3   0.102254 0.652483 0.883581 -0.475678
H25   H     H_    0.038127 0.683662 0.917770 0.398567
S6    S     S_3+6 0.866287 0.434847 0.024767 0.052280
O24   O     O_2   0.863482 0.348520 0.980292 -0.238927
O25   O     O_2   0.924075 0.504218 0.952469 -0.240030
O26   O     O_3   0.929593 0.419749 0.097126 -0.463344
H26   H     H_    0.939350 0.480137 0.116455 0.382053

loop_
_geom_bond_atom_site_label_1
_geom_bond_atom_site_label_2
_ccdc_geom_bond_type
C4    H12   S    
C42   C44   A    
O14   H22   S    
C27   C29   A    
C34   C37   A    
C1    O1    A    
C19   H17   S    
S3    O15   D    
S3    O17   S    
C47   C49   A    
Cu1   N1    S    
Cu1   Cu2   S    
C40   C46   A    
S5    O22   D    
C23   O7    A    
Cu1   O8    S    
Cu1   O5    S    
C35   C37   A    
Cu2   O3    S    
C20   C22   A    
C15   C16   A    
C18   C21   A    
C21   H19   S    
C45   H8    S    
O23   H25   S    
C37   S3    S    
C35   H5    S    
C27   S1    S    
C24   O6    A    
S6    O24   D    
C26   C34   A    
C7    C17   A    
C26   N2    A    
C31   C33   A    
C39   C45   A    
C48   C50   A    
C41   C43   A    
C5    C49   A    
C3    H11   S    
C25   H3    S    
C27   N1    A    
C10   C12   A    
C41   C49   A    
Cu2   O7    S    
C43   H10   S    
C45   C47   A    
C44   H9    S    
S5    O23   S    
C46   C48   A    
C13   C19   A    
C4    C51   A    
C51   C52   A    
C14   C20   A    
Cu1   O4    S    
C38   S4    S    
C39   C43   A    
C46   H7    S    
C36   H6    S    
S1    O9    D    
S4    O20   S    
C8    C18   A    
C25   N1    A    
C32   C34   A    
Cu1   O1    S    
C2    O2    A    
C26   H4    S    
S2    O13   D    
C31   C32   A    
C40   C44   A    
S4    O19   D    
C16   C18   A    
C6    C50   A    
C9    C11   A    
S6    O26   S    
C41   S5    S    
C42   C50   A    
Cu2   N2    S    
C4    C6    A    
C12   C14   A    
C8    H14   S    
C13   C15   A    
C1    O3    A    
C14   C16   A    
C22   H20   S    
C28   N2    A    
Cu2   O6    S    
S2    O14   S    
O26   H26   S    
S1    O11   S    
C15   C17   A    
C12   H16   S    
S3    O16   D    
C23   O5    A    
C19   C21   A    
C5    H1    S    
C1    C10   S    
C33   C38   A    
C6    H2    S    
C3    C5    A    
C47   C51   A    
C3    C52   A    
C11   H15   S    
S5    O21   D    
C29   C35   A    
C17   C22   A    
C30   C36   A    
C36   C38   A    
C24   O8    A    
C29   C31   A    
C30   C32   A    
C11   C13   A    
S2    O12   D    
C23   C39   S    
C28   C30   A    
S4    O18   D    
C24   C40   S    
C42   S6    S    
S6    O25   D    
C2    O4    A    
C7    H13   S    
C7    C9    A    
S1    O10   D    
C48   C52   A    
O11   H21   S    
C8    C10   A    
O17   H23   S    
O20   H24   S    
C20   H18   S    
C28   S2    S    
C2    C9    S    
C25   C33   A    
Cu2   O2    S    
