data_mof_unit_65080.cif
_audit_creation_date              2012-12-10T20:37:17-0500
_audit_creation_method            fapswitch 2.2
_symmetry_space_group_name_H-M    P1
_symmetry_Int_Tables_number       1
_space_group_crystal_system       triclinic
_cell_length_a                    36.042433
_cell_length_b                    39.758258
_cell_length_c                    26.78211
_cell_angle_alpha                 90.000095
_cell_angle_beta                  131.991393
_cell_angle_gamma                 89.999956
_cell_volume                      28524.5254804

loop_
_atom_site_label
_atom_site_type_symbol
_atom_type_description
_atom_site_fract_x
_atom_site_fract_y
_atom_site_fract_z
_atom_type_partial_charge
C1    C     C_R   0.400229 0.749924 0.000097 0.826552
C2    C     C_3   0.743703 0.719013 0.011661 0.161929
C3    C     C_R   0.203200 0.269804 0.363151 -0.216872
C4    C     C_R   0.703206 0.230201 0.363150 -0.216873
C5    C     C_R   0.296794 0.769799 0.636849 -0.216872
C6    C     C_R   0.296794 0.230201 0.636849 -0.216874
C7    C     C_R   0.703217 0.769788 0.363150 -0.216874
C8    C     C_R   0.196614 0.752120 0.397749 0.159677
C9    C     C_R   0.803386 0.247879 0.602251 0.159677
C10   C     C_R   0.803387 0.752119 0.602251 0.159676
C11   C     C_R   0.196615 0.247879 0.397749 0.159676
C12   C     C_R   0.696614 0.252121 0.397749 0.159677
C13   C     C_3   0.743462 0.281032 0.011174 0.161925
C14   C     C_R   0.303386 0.747880 0.602251 0.159677
C15   C     C_R   0.303385 0.252121 0.602251 0.159677
C16   C     C_R   0.696613 0.747880 0.397749 0.159676
C17   C     C_1   0.234058 0.750797 0.469823 -0.097541
C18   C     C_1   0.765942 0.249202 0.530177 -0.097541
C19   C     C_1   0.765943 0.750796 0.530177 -0.097541
C20   C     C_1   0.234058 0.249202 0.469823 -0.097541
C21   C     C_1   0.734058 0.250797 0.469823 -0.097541
C22   C     C_1   0.265942 0.749202 0.530177 -0.097541
C23   C     C_1   0.265941 0.250798 0.530177 -0.097541
C24   C     C_3   0.256804 0.718917 0.989366 0.161909
C25   C     C_1   0.734058 0.749202 0.469823 -0.097540
C26   C     C_R   0.497875 0.431254 0.043276 -0.171068
C27   C     C_R   0.502124 0.568746 0.956724 -0.171070
C28   C     C_R   0.502124 0.431254 0.956724 -0.171070
C29   C     C_R   0.497875 0.568746 0.043275 -0.171066
C30   C     C_R   0.997876 0.931254 0.043276 -0.171072
C31   C     C_R   0.002125 0.068746 0.956724 -0.171067
C32   C     C_R   0.002125 0.931254 0.956725 -0.171066
C33   C     C_R   0.997876 0.068746 0.043276 -0.171070
C34   C     C_R   0.497874 0.396137 0.043329 -0.200002
C35   C     C_3   0.756297 0.780987 0.988339 0.161929
C36   C     C_R   0.502126 0.603863 0.956671 -0.200006
C37   C     C_R   0.502126 0.396137 0.956670 -0.200003
C38   C     C_R   0.497873 0.603863 0.043329 -0.199999
C39   C     C_R   0.997874 0.896137 0.043329 -0.200005
C40   C     C_R   0.002126 0.103863 0.956670 -0.200004
C41   C     C_R   0.002126 0.896137 0.956671 -0.200002
C42   C     C_R   0.997874 0.103863 0.043329 -0.200004
C43   C     C_R   0.500000 0.378235 0.000000 -0.007556
C44   C     C_R   0.500000 0.621765 1.000000 -0.007556
C45   C     C_R   0.000000 0.878235 0.000000 -0.007556
C46   C     C_3   0.243496 0.218973 0.011242 0.161924
C47   C     C_R   1.000000 0.121765 0.000000 -0.007555
C48   C     C_R   0.500000 0.448819 1.000000 0.161848
C49   C     C_R   0.499999 0.551181 1.000000 0.161848
C50   C     C_R   0.000000 0.948819 0.000000 0.161848
C51   C     C_R   0.000000 0.051181 0.000000 0.161848
C52   C     C_1   0.500000 0.484879 1.000000 -0.070099
C53   C     C_1   0.499999 0.515121 1.000000 -0.070099
C54   C     C_1   0.000000 0.984879 0.000000 -0.070100
C55   C     C_1   0.000000 0.015121 0.000000 -0.070100
C56   C     C_R   0.500000 0.658869 1.000000 0.788353
C57   C     C_3   0.243196 0.781082 0.010634 0.161908
C58   C     C_R   0.500000 0.341131 0.000000 0.788351
C59   C     C_R   0.000000 0.158868 1.000000 0.788351
C60   C     C_R   1.000000 0.841131 0.000000 0.788352
C61   C     C_R   0.500000 0.841022 0.000000 0.785413
C62   C     C_R   0.500000 0.158978 0.000000 0.785413
C63   C     C_R   1.000000 0.341022 0.000000 0.785413
C64   C     C_R   1.000000 0.658978 0.000000 0.785413
C65   C     C_R   0.454841 0.068797 0.956983 -0.170909
C66   C     C_R   0.545159 0.931203 0.043017 -0.170908
C67   C     C_R   0.545159 0.068797 0.043017 -0.170908
C68   C     C_3   0.756538 0.218968 0.988826 0.161926
C69   C     C_R   0.454841 0.931203 0.956983 -0.170909
C70   C     C_R   0.954841 0.568797 0.956983 -0.170907
C71   C     C_R   0.045159 0.431203 0.043017 -0.170910
C72   C     C_R   0.045159 0.568797 0.043017 -0.170909
C73   C     C_R   0.954841 0.431203 0.956983 -0.170909
C74   C     C_R   0.454785 0.103924 0.956930 -0.198806
C75   C     C_R   0.545214 0.896076 0.043071 -0.198806
C76   C     C_R   0.545214 0.103924 0.043070 -0.198806
C77   C     C_R   0.454785 0.896076 0.956929 -0.198807
C78   C     C_R   0.954786 0.603924 0.956930 -0.198807
C79   C     C_3   0.707547 0.760493 0.939521 -0.209425
C80   C     C_R   0.045214 0.396076 0.043070 -0.198807
C81   C     C_R   0.045214 0.603924 0.043070 -0.198806
C82   C     C_R   0.954786 0.396076 0.956930 -0.198805
C83   C     C_R   0.500000 0.121844 0.000000 -0.007345
C84   C     C_R   0.500000 0.878156 0.000000 -0.007345
C85   C     C_R   1.000000 0.621844 0.000000 -0.007345
C86   C     C_R   0.000000 0.378156 0.000000 -0.007345
C87   C     C_R   0.500000 0.051216 1.000000 0.161138
C88   C     C_R   0.500000 0.948784 1.000000 0.161138
C89   C     C_R   0.000000 0.551216 0.000000 0.161138
C90   C     C_3   0.292383 0.239303 0.060336 -0.209433
C91   C     C_R   0.000000 0.448784 0.000000 0.161139
C92   C     C_1   0.500000 0.015129 1.000000 -0.069541
C93   C     C_1   0.500000 0.984871 1.000000 -0.069541
C94   C     C_1   1.000000 0.515129 0.000000 -0.069541
C95   C     C_1   0.000000 0.484871 0.000000 -0.069541
C96   C     C_3   0.264986 0.316422 0.975947 -0.430293
C97   C     C_3   0.228652 0.341659 0.966624 -0.340718
C98   C     C_3   0.237222 0.376984 0.953820 -0.876770
C99   C     C_3   0.735456 0.683662 0.024948 -0.430306
C100  C     C_3   0.771960 0.658457 0.034612 -0.340728
C101  C     C_3   0.292278 0.760993 0.060121 -0.209440
C102  C     C_3   0.763626 0.623177 0.047892 -0.876750
C103  C     C_3   0.734941 0.316435 0.023907 -0.430289
C104  C     C_3   0.771247 0.341677 0.033174 -0.340717
C105  C     C_3   0.762640 0.377008 0.045900 -0.876777
C106  C     C_3   0.265630 0.683458 0.977249 -0.430278
C107  C     C_3   0.229543 0.658173 0.968420 -0.340683
C108  C     C_3   0.238457 0.622787 0.956311 -0.876793
C109  C     C_3   0.764543 0.816338 0.975052 -0.430306
C110  C     C_3   0.728040 0.841543 0.965389 -0.340728
C111  C     C_3   0.736374 0.876823 0.952109 -0.876748
C112  C     C_R   0.599771 0.250076 0.999902 0.826546
C113  C     C_3   0.707629 0.239270 0.939688 -0.209435
C114  C     C_3   0.235014 0.183578 0.024053 -0.430292
C115  C     C_3   0.271348 0.158341 0.033377 -0.340718
C116  C     C_3   0.262779 0.123016 0.046180 -0.876769
C117  C     C_3   0.234371 0.816542 0.022752 -0.430278
C118  C     C_3   0.270457 0.841827 0.031580 -0.340683
C119  C     C_3   0.261545 0.877213 0.043693 -0.876791
C120  C     C_3   0.765059 0.183565 0.976093 -0.430289
C121  C     C_3   0.728752 0.158324 0.966824 -0.340718
C122  C     C_3   0.737360 0.122993 0.954099 -0.876776
C123  C     C_3   0.141064 0.799441 0.389719 -0.441508
C124  C     C_3   0.207617 0.260697 0.939664 -0.209433
C125  C     C_3   0.175524 0.802897 0.466132 -0.338841
C126  C     C_3   0.156014 0.829435 0.484862 -0.904698
C127  C     C_3   0.858935 0.200558 0.610281 -0.441509
C128  C     C_3   0.824475 0.197102 0.533868 -0.338840
C129  C     C_3   0.843985 0.170564 0.515138 -0.904696
C130  C     C_3   0.858937 0.799440 0.610281 -0.441511
C131  C     C_3   0.824482 0.802892 0.533868 -0.338840
C132  C     C_3   0.843995 0.829427 0.515138 -0.904695
C133  C     C_3   0.141079 0.200545 0.389719 -0.441510
C134  C     C_3   0.175538 0.197090 0.466132 -0.338839
C135  C     C_3   0.792453 0.739507 0.060479 -0.209425
C136  C     C_3   0.156036 0.170545 0.484862 -0.904697
C137  C     C_3   0.641065 0.299442 0.389719 -0.441509
C138  C     C_3   0.675525 0.302898 0.466132 -0.338841
C139  C     C_3   0.656015 0.329436 0.484862 -0.904697
C140  C     C_3   0.358936 0.700559 0.610281 -0.441510
C141  C     C_3   0.324476 0.697103 0.533868 -0.338840
C142  C     C_3   0.343986 0.670565 0.515138 -0.904698
C143  C     C_3   0.358933 0.299443 0.610281 -0.441510
C144  C     C_3   0.324471 0.302901 0.533868 -0.338841
C145  C     C_3   0.343979 0.329441 0.515138 -0.904694
C146  C     C_3   0.792371 0.260730 0.060312 -0.209436
C147  C     C_3   0.641036 0.700584 0.389719 -0.441509
C148  C     C_3   0.675498 0.697126 0.466132 -0.338840
C149  C     C_3   0.655975 0.670600 0.484862 -0.904697
C150  C     C_3   0.207722 0.739007 0.939879 -0.209439
C151  C     C_1   0.639358 0.749889 0.999712 -0.151353
C152  C     C_1   0.360642 0.250111 0.000287 -0.151353
C153  C     C_1   0.360642 0.749889 0.000287 -0.151354
C154  C     C_1   0.639358 0.250111 0.999713 -0.151352
C155  C     C_1   0.139358 0.249889 0.999712 -0.151352
C156  C     C_R   0.599771 0.749924 0.999902 0.826541
C157  C     C_1   0.860642 0.750111 0.000288 -0.151353
C158  C     C_1   0.860642 0.249889 0.000287 -0.151352
C159  C     C_1   0.139358 0.750111 0.999713 -0.151353
C160  C     C_3   0.761556 0.770823 0.048502 -0.207412
C161  C     C_3   0.238304 0.229341 0.951218 -0.207415
C162  C     C_3   0.238104 0.770417 0.950815 -0.207428
C163  C     C_3   0.761718 0.229368 0.048828 -0.207414
C164  C     C_3   0.261696 0.270659 0.048782 -0.207415
C165  C     C_3   0.738443 0.729177 0.951498 -0.207411
C166  C     C_3   0.738281 0.270632 0.951172 -0.207413
C167  C     C_R   0.400229 0.250076 0.000097 0.826545
C168  C     C_3   0.261896 0.729583 0.049185 -0.207429
C169  C     C_3   0.713322 0.749972 0.999818 0.138192
C170  C     C_3   0.286677 0.250028 0.000181 0.138198
C171  C     C_3   0.286676 0.749970 0.000178 0.138218
C172  C     C_3   0.713323 0.250028 0.999819 0.138198
C173  C     C_3   0.213323 0.249972 0.999819 0.138198
C174  C     C_3   0.786678 0.750028 0.000182 0.138192
C175  C     C_3   0.786677 0.249972 0.000181 0.138197
C176  C     C_3   0.213324 0.750030 0.999822 0.138218
C177  C     C_1   0.672712 0.749924 0.999692 -0.086808
C178  C     C_R   0.900229 0.249924 0.000097 0.826545
C179  C     C_1   0.327288 0.250076 0.000307 -0.086810
C180  C     C_1   0.327287 0.749923 0.000305 -0.086809
C181  C     C_1   0.672712 0.250076 0.999693 -0.086812
C182  C     C_1   0.172712 0.249924 0.999693 -0.086810
C183  C     C_1   0.827288 0.750076 0.000308 -0.086807
C184  C     C_1   0.827288 0.249924 0.000307 -0.086812
C185  C     C_1   0.172713 0.750077 0.999695 -0.086809
C186  C     C_R   0.154484 0.773995 0.361128 0.129765
C187  C     C_R   0.845516 0.226005 0.638872 0.129765
C188  C     C_R   0.845517 0.773994 0.638872 0.129766
C189  C     C_R   0.099771 0.750076 0.999902 0.826554
C190  C     C_R   0.154491 0.225999 0.361127 0.129765
C191  C     C_R   0.654484 0.273995 0.361128 0.129765
C192  C     C_R   0.345516 0.726005 0.638872 0.129765
C193  C     C_R   0.345515 0.273996 0.638872 0.129766
C194  C     C_R   0.654471 0.726017 0.361128 0.129766
C195  C     C_R   0.120662 0.772661 0.290568 -0.257594
C196  C     C_R   0.879338 0.227338 0.709432 -0.257593
C197  C     C_R   0.879339 0.772661 0.709432 -0.257591
C198  C     C_R   0.120668 0.227333 0.290568 -0.257593
C199  C     C_R   0.620662 0.272661 0.290568 -0.257593
C200  C     C_R   0.099771 0.249924 0.999902 0.826547
C201  C     C_R   0.379338 0.727339 0.709432 -0.257594
C202  C     C_R   0.379337 0.272662 0.709432 -0.257592
C203  C     C_R   0.620649 0.727350 0.290568 -0.257592
C204  C     C_R   0.127509 0.750652 0.256301 -0.024714
C205  C     C_R   0.872491 0.249348 0.743699 -0.024716
C206  C     C_R   0.872492 0.750652 0.743699 -0.024716
C207  C     C_R   0.127509 0.249347 0.256301 -0.024715
C208  C     C_R   0.627509 0.250652 0.256301 -0.024715
C209  C     C_R   0.372491 0.749348 0.743699 -0.024715
C210  C     C_R   0.372491 0.250652 0.743699 -0.024716
C211  C     C_R   0.900229 0.750076 0.000098 0.826539
C212  C     C_R   0.627508 0.749348 0.256301 -0.024716
C213  C     C_R   0.169105 0.729430 0.293244 -0.201452
C214  C     C_R   0.830895 0.270570 0.706756 -0.201452
C215  C     C_R   0.830896 0.729429 0.706756 -0.201453
C216  C     C_R   0.169100 0.270575 0.293244 -0.201453
C217  C     C_R   0.669105 0.229430 0.293244 -0.201452
C218  C     C_R   0.330895 0.770570 0.706756 -0.201452
C219  C     C_R   0.330895 0.229430 0.706756 -0.201451
C220  C     C_R   0.669116 0.770560 0.293244 -0.201452
C221  C     C_R   0.590972 0.749859 0.182137 0.798584
C222  C     C_3   0.256503 0.281027 0.988757 0.161924
C223  C     C_R   0.409028 0.250141 0.817863 0.798584
C224  C     C_R   0.409028 0.749859 0.817863 0.798585
C225  C     C_R   0.590972 0.250141 0.182137 0.798585
C226  C     C_R   0.090972 0.249859 0.182137 0.798584
C227  C     C_R   0.909028 0.750141 0.817863 0.798584
C228  C     C_R   0.909028 0.249859 0.817863 0.798585
C229  C     C_R   0.090972 0.750141 0.182137 0.798585
C230  C     C_R   0.203206 0.730201 0.363150 -0.216872
C231  C     C_R   0.796794 0.269799 0.636849 -0.216873
C232  C     C_R   0.796796 0.730200 0.636849 -0.216872
H1    H     H_    0.419697 0.055359 0.923506 0.133079
H2    H     H_    0.503777 0.555305 0.923054 0.132626
H3    H     H_    0.228866 0.787304 0.910810 0.136967
H4    H     H_    0.729495 0.711957 0.912065 0.136968
H5    H     H_    0.270760 0.287744 0.088447 0.136967
H6    H     H_    0.271134 0.712696 0.089190 0.136967
H7    H     H_    0.729199 0.287695 0.911470 0.136965
H8    H     H_    0.153976 0.854381 0.464454 0.264490
H9    H     H_    0.118354 0.822372 0.464803 0.264252
H10   H     H_    0.181685 0.831371 0.540407 0.248685
H11   H     H_    0.177369 0.778564 0.488096 0.233480
H12   H     H_    0.213294 0.810849 0.487739 0.233708
H13   H     H_    0.503777 0.444695 0.923054 0.132626
H14   H     H_    0.138320 0.824588 0.369213 0.204650
H15   H     H_    0.103153 0.792948 0.369569 0.204566
H16   H     H_    0.881644 0.177627 0.535197 0.264252
H17   H     H_    0.846023 0.145618 0.535546 0.264489
H18   H     H_    0.818314 0.168628 0.459592 0.248686
H19   H     H_    0.786705 0.189150 0.512261 0.233707
H20   H     H_    0.822631 0.221435 0.511904 0.233480
H21   H     H_    0.896846 0.207051 0.630431 0.204567
H22   H     H_    0.861679 0.175411 0.630787 0.204650
H23   H     H_    0.846031 0.854375 0.535540 0.264489
H24   H     H_    0.496222 0.555305 0.076945 0.132627
H25   H     H_    0.881656 0.822363 0.535203 0.264251
H26   H     H_    0.818327 0.831361 0.459592 0.248686
H27   H     H_    0.822640 0.778557 0.511911 0.233477
H28   H     H_    0.786710 0.810844 0.512254 0.233711
H29   H     H_    0.861675 0.824588 0.630781 0.204646
H30   H     H_    0.896851 0.792949 0.630438 0.204570
H31   H     H_    0.118374 0.177601 0.464801 0.264253
H32   H     H_    0.154007 0.145600 0.464455 0.264489
H33   H     H_    0.181707 0.168609 0.540407 0.248686
H34   H     H_    0.213312 0.189144 0.487740 0.233709
H35   H     H_    0.996223 0.944695 0.076946 0.132626
H36   H     H_    0.177375 0.221420 0.488094 0.233478
H37   H     H_    0.103165 0.207031 0.369567 0.204568
H38   H     H_    0.138344 0.175400 0.369214 0.204649
H39   H     H_    0.653977 0.354382 0.464454 0.264490
H40   H     H_    0.618356 0.322373 0.464803 0.264253
H41   H     H_    0.681686 0.331372 0.540407 0.248686
H42   H     H_    0.677369 0.278565 0.488096 0.233481
H43   H     H_    0.713295 0.310850 0.487739 0.233708
H44   H     H_    0.638321 0.324588 0.369212 0.204650
H45   H     H_    0.603154 0.292949 0.369569 0.204567
H46   H     H_    0.003778 0.055305 0.923054 0.132626
H47   H     H_    0.381645 0.677628 0.535197 0.264252
H48   H     H_    0.346024 0.645619 0.535546 0.264490
H49   H     H_    0.318315 0.668629 0.459592 0.248685
H50   H     H_    0.286706 0.689150 0.512261 0.233708
H51   H     H_    0.322631 0.721436 0.511904 0.233480
H52   H     H_    0.396847 0.707051 0.630431 0.204566
H53   H     H_    0.361680 0.675412 0.630787 0.204651
H54   H     H_    0.346018 0.354387 0.535549 0.264488
H55   H     H_    0.381638 0.322379 0.535194 0.264253
H56   H     H_    0.318307 0.331379 0.459593 0.248686
H57   H     H_    0.003778 0.944695 0.923054 0.132626
H58   H     H_    0.322626 0.278570 0.511901 0.233482
H59   H     H_    0.286701 0.310853 0.512265 0.233706
H60   H     H_    0.361680 0.324589 0.630791 0.204651
H61   H     H_    0.396844 0.292950 0.630428 0.204565
H62   H     H_    0.618321 0.677676 0.464809 0.264254
H63   H     H_    0.653919 0.645651 0.464448 0.264488
H64   H     H_    0.681648 0.668662 0.540408 0.248687
H65   H     H_    0.713262 0.689160 0.487732 0.233703
H66   H     H_    0.677361 0.721461 0.488103 0.233485
H67   H     H_    0.603131 0.707092 0.369575 0.204564
H68   H     H_    0.996223 0.055305 0.076946 0.132626
H69   H     H_    0.638272 0.675434 0.369206 0.204651
H70   H     H_    0.088425 0.789156 0.262023 0.161834
H71   H     H_    0.911574 0.210843 0.737977 0.161833
H72   H     H_    0.911575 0.789156 0.737977 0.161832
H73   H     H_    0.088437 0.210833 0.262022 0.161833
H74   H     H_    0.588426 0.289157 0.262023 0.161833
H75   H     H_    0.411575 0.710843 0.737977 0.161834
H76   H     H_    0.411574 0.289157 0.737977 0.161832
H77   H     H_    0.588403 0.710864 0.262023 0.161832
H78   H     H_    0.175342 0.712198 0.268168 0.163430
H79   H     H_    0.496211 0.383034 0.077243 0.158657
H80   H     H_    0.824658 0.287803 0.731832 0.163431
H81   H     H_    0.824659 0.712197 0.731831 0.163433
H82   H     H_    0.175332 0.287812 0.268168 0.163431
H83   H     H_    0.675342 0.212197 0.268168 0.163431
H84   H     H_    0.324658 0.787802 0.731832 0.163430
H85   H     H_    0.324658 0.212197 0.731831 0.163431
H86   H     H_    0.675363 0.787784 0.268168 0.163433
H87   H     H_    0.235084 0.713456 0.390434 0.144634
H88   H     H_    0.764916 0.286545 0.609566 0.144635
H89   H     H_    0.764918 0.713454 0.609566 0.144635
H90   H     H_    0.503790 0.616966 0.922758 0.158659
H91   H     H_    0.235073 0.286554 0.390435 0.144634
H92   H     H_    0.735083 0.213455 0.390434 0.144635
H93   H     H_    0.264916 0.786544 0.609566 0.144634
H94   H     H_    0.264916 0.213456 0.609566 0.144635
H95   H     H_    0.735105 0.786525 0.390434 0.144635
H96   H     H_    0.503789 0.383034 0.922757 0.158657
H97   H     H_    0.580303 0.944641 0.076494 0.133080
H98   H     H_    0.496210 0.616966 0.077242 0.158657
H99   H     H_    0.996210 0.883034 0.077242 0.158658
H100  H     H_    0.003789 0.116966 0.922757 0.158658
H101  H     H_    0.003790 0.883034 0.922758 0.158657
H102  H     H_    0.996211 0.116966 0.077243 0.158657
H103  H     H_    0.419387 0.117019 0.923210 0.159635
H104  H     H_    0.580612 0.882981 0.076791 0.159636
H105  H     H_    0.580613 0.117019 0.076790 0.159635
H106  H     H_    0.419387 0.882981 0.923209 0.159636
H107  H     H_    0.919387 0.617019 0.923210 0.159636
H108  H     H_    0.580303 0.055359 0.076494 0.133079
H109  H     H_    0.080613 0.382981 0.076790 0.159635
H110  H     H_    0.080613 0.617019 0.076790 0.159635
H111  H     H_    0.919387 0.382981 0.923210 0.159635
H112  H     H_    0.672479 0.769286 0.890134 0.136053
H113  H     H_    0.327392 0.230343 0.109603 0.136048
H114  H     H_    0.327201 0.770192 0.109214 0.136039
H115  H     H_    0.672630 0.230282 0.890440 0.136048
H116  H     H_    0.172608 0.269657 0.890397 0.136049
H117  H     H_    0.827521 0.730714 0.109866 0.136053
H118  H     H_    0.827370 0.269717 0.109559 0.136049
H119  H     H_    0.419697 0.944641 0.923506 0.133079
H120  H     H_    0.172799 0.729808 0.890785 0.136040
H121  H     H_    0.275778 0.385522 0.997052 0.261009
H122  H     H_    0.231368 0.377345 0.907489 0.261533
H123  H     H_    0.210436 0.394715 0.947262 0.248991
H124  H     H_    0.189586 0.334000 0.923287 0.221493
H125  H     H_    0.233790 0.342138 0.012431 0.221855
H126  H     H_    0.304044 0.324043 0.019339 0.204772
H127  H     H_    0.259813 0.315907 0.930124 0.203198
H128  H     H_    0.769480 0.622973 0.094225 0.261529
H129  H     H_    0.725127 0.614494 0.004775 0.261015
H130  H     H_    0.919697 0.555359 0.923507 0.133079
H131  H     H_    0.790531 0.605468 0.054691 0.248997
H132  H     H_    0.766828 0.657823 0.988814 0.221851
H133  H     H_    0.810975 0.666263 0.077846 0.221487
H134  H     H_    0.740624 0.684333 0.070761 0.203194
H135  H     H_    0.696450 0.675895 0.981658 0.204762
H136  H     H_    0.724073 0.385522 0.002650 0.261007
H137  H     H_    0.768493 0.377394 0.092230 0.261535
H138  H     H_    0.789405 0.394742 0.052419 0.248993
H139  H     H_    0.810322 0.334041 0.076527 0.221493
H140  H     H_    0.766109 0.342130 0.987366 0.221854
H141  H     H_    0.080303 0.444641 0.076494 0.133079
H142  H     H_    0.695875 0.324031 0.980498 0.204773
H143  H     H_    0.740114 0.315945 0.069731 0.203197
H144  H     H_    0.232606 0.622194 0.909988 0.261531
H145  H     H_    0.277095 0.614460 0.999709 0.260994
H146  H     H_    0.211844 0.605024 0.950100 0.248970
H147  H     H_    0.234684 0.657919 0.014234 0.221861
H148  H     H_    0.190402 0.665617 0.924933 0.221498
H149  H     H_    0.260451 0.683747 0.931417 0.203207
H150  H     H_    0.304760 0.676050 0.020787 0.204786
H151  H     H_    0.774873 0.885506 0.995225 0.261015
H152  H     H_    0.080303 0.555359 0.076494 0.133079
H153  H     H_    0.730519 0.877027 0.905775 0.261528
H154  H     H_    0.709470 0.894532 0.945312 0.248996
H155  H     H_    0.689026 0.833738 0.922156 0.221487
H156  H     H_    0.733174 0.842177 0.011188 0.221850
H157  H     H_    0.803550 0.824105 0.018341 0.204762
H158  H     H_    0.759375 0.815668 0.929238 0.203194
H159  H     H_    0.268631 0.122655 0.092510 0.261532
H160  H     H_    0.224222 0.114478 0.002947 0.261008
H161  H     H_    0.289564 0.105285 0.052739 0.248991
H162  H     H_    0.266212 0.157862 0.987571 0.221856
H163  H     H_    0.919697 0.444641 0.923506 0.133080
H164  H     H_    0.310414 0.166000 0.076715 0.221492
H165  H     H_    0.240186 0.184093 0.069875 0.203197
H166  H     H_    0.195956 0.175957 0.980660 0.204771
H167  H     H_    0.222907 0.885541 0.000297 0.260994
H168  H     H_    0.267398 0.877805 0.090017 0.261530
H169  H     H_    0.288158 0.894975 0.049904 0.248971
H170  H     H_    0.309598 0.834382 0.075064 0.221498
H171  H     H_    0.265314 0.842082 0.985764 0.221861
H172  H     H_    0.195240 0.823949 0.979213 0.204786
H173  H     H_    0.239550 0.816253 0.068584 0.203207
H174  H     H_    0.496222 0.444695 0.076946 0.132627
H175  H     H_    0.731509 0.122606 0.907770 0.261535
H176  H     H_    0.775926 0.114478 0.997351 0.261006
H177  H     H_    0.710594 0.105258 0.947579 0.248993
H178  H     H_    0.733889 0.157871 0.012632 0.221855
H179  H     H_    0.689677 0.165960 0.923470 0.221493
H180  H     H_    0.759887 0.184055 0.930270 0.203197
H181  H     H_    0.804125 0.175968 0.019503 0.204773
H182  H     H_    0.229239 0.212256 0.911552 0.136967
H183  H     H_    0.770505 0.788043 0.087934 0.136968
H184  H     H_    0.770801 0.212305 0.088529 0.136966
O1    O     O_3   0.500000 0.749970 0.000000 -0.466785
O2    O     O_R   0.101800 0.730420 0.039220 -0.637867
O3    O     O_R   0.101800 0.269580 0.039220 -0.637865
O4    O     O_R   0.898200 0.730420 0.960780 -0.637866
O5    O     O_R   0.553280 0.730340 0.149660 -0.647787
O6    O     O_R   0.446720 0.269660 0.850340 -0.647787
O7    O     O_R   0.446720 0.730340 0.850340 -0.647787
O8    O     O_R   0.553280 0.269660 0.149660 -0.647787
O9    O     O_R   0.053280 0.230340 0.149660 -0.647787
O10   O     O_R   0.946720 0.769660 0.850340 -0.647787
O11   O     O_R   0.946720 0.230340 0.850340 -0.647787
O12   O     O_3   0.500000 0.250030 0.000000 -0.466785
O13   O     O_R   0.053280 0.769660 0.149660 -0.647787
O14   O     O_R   0.498080 0.675140 0.039250 -0.646060
O15   O     O_R   0.501920 0.324860 0.960750 -0.646061
O16   O     O_R   0.501920 0.675140 0.960750 -0.646060
O17   O     O_R   0.498080 0.324860 0.039250 -0.646061
O18   O     O_R   0.998080 0.175140 0.039250 -0.646061
O19   O     O_R   0.001920 0.824860 0.960750 -0.646062
O20   O     O_R   0.001920 0.175140 0.960750 -0.646061
O21   O     O_R   0.998080 0.824860 0.039250 -0.646060
O22   O     O_R   0.458830 0.824790 0.960760 -0.645533
O23   O     O_3   1.000000 0.249970 0.000000 -0.466786
O24   O     O_R   0.541170 0.175210 0.039240 -0.645533
O25   O     O_R   0.541170 0.824790 0.039240 -0.645531
O26   O     O_R   0.458830 0.175210 0.960760 -0.645532
O27   O     O_R   0.958830 0.324790 0.960760 -0.645532
O28   O     O_R   0.041170 0.675210 0.039240 -0.645533
O29   O     O_R   0.041170 0.324790 0.039240 -0.645533
O30   O     O_R   0.958830 0.675210 0.960760 -0.645532
O31   O     O_R   0.596370 0.769570 0.149640 -0.644869
O32   O     O_R   0.403630 0.230430 0.850360 -0.644868
O33   O     O_R   0.403630 0.769570 0.850360 -0.644869
O34   O     O_3   0.000000 0.750030 0.000000 -0.466785
O35   O     O_R   0.596370 0.230430 0.149640 -0.644869
O36   O     O_R   0.096370 0.269570 0.149640 -0.644869
O37   O     O_R   0.903630 0.730430 0.850360 -0.644868
O38   O     O_R   0.903630 0.269570 0.850360 -0.644868
O39   O     O_R   0.096370 0.730430 0.149640 -0.644869
O40   O     O_R   0.437440 0.730340 0.039250 -0.640040
O41   O     O_R   0.562560 0.269660 0.960750 -0.640031
O42   O     O_R   0.562560 0.730340 0.960750 -0.640025
O43   O     O_R   0.437440 0.269660 0.039250 -0.640031
O44   O     O_R   0.937440 0.230340 0.039250 -0.640030
O45   O     O_R   0.398200 0.769580 0.960780 -0.637866
O46   O     O_R   0.062560 0.769660 0.960750 -0.640038
O47   O     O_R   0.062560 0.230340 0.960750 -0.640031
O48   O     O_R   0.937440 0.769660 0.039250 -0.640025
O49   O     O_R   0.601800 0.230420 0.039220 -0.637866
O50   O     O_R   0.601800 0.769580 0.039220 -0.637868
O51   O     O_R   0.398200 0.230420 0.960780 -0.637865
O52   O     O_R   0.898200 0.269580 0.960780 -0.637866
Zn1   Zn    Zn3+2 0.558810 0.777990 0.056050 0.967471
Zn2   Zn    Zn3+2 0.502750 0.278070 0.943930 0.965473
Zn3   Zn    Zn3+2 0.502750 0.721930 0.943930 0.965478
Zn4   Zn    Zn3+2 0.497250 0.278070 0.056070 0.965474
Zn5   Zn    Zn3+2 0.997250 0.221930 0.056070 0.965473
Zn6   Zn    Zn3+2 0.002750 0.778070 0.943930 0.965470
Zn7   Zn    Zn3+2 0.002750 0.221930 0.943930 0.965474
Zn8   Zn    Zn3+2 0.997250 0.778070 0.056070 0.965477
Zn9   Zn    Zn3+2 0.441190 0.222010 0.943950 0.967471
Zn10  Zn    Zn3+2 0.441190 0.777990 0.943950 0.967471
Zn11  Zn    Zn3+2 0.558810 0.222010 0.056050 0.967471
Zn12  Zn    Zn3+2 0.058810 0.277990 0.056050 0.967471
Zn13  Zn    Zn3+2 0.941190 0.722010 0.943950 0.967471
Zn14  Zn    Zn3+2 0.941190 0.277990 0.943950 0.967471
Zn15  Zn    Zn3+2 0.058810 0.722010 0.056050 0.967471
Zn16  Zn    Zn3+2 0.497250 0.721930 0.056070 0.965469

loop_
_geom_bond_atom_site_label_1
_geom_bond_atom_site_label_2
_ccdc_geom_bond_type
C148  H66   S    
C62   C83   S    
C127  H22   S    
C74   C83   A    
C98   H121  S    
C99   H135  S    
C114  C115  S    
C155  C182  T    
O34   Zn6   S    
O3    Zn12  S    
C64   O28   A    
C138  H42   S    
C59   O20   A    
C13   C146  S    
C200  O47   A    
C63   O27   A    
C221  O31   A    
C120  H181  S    
C122  H177  S    
C103  H142  S    
C106  C107  S    
C143  C144  S    
C18   C21   T    
O45   Zn10  S    
C208  C217  A    
C97   H124  S    
C116  H161  S    
C38   H98   S    
C201  C209  A    
C89   C94   S    
C24   C171  S    
O14   Zn16  S    
C110  C111  S    
C80   C86   A    
O18   Zn5   S    
C43   C58   S    
C109  H158  S    
C137  C191  S    
C13   C172  S    
C162  C171  S    
C127  C187  S    
C232  H89   S    
C198  H73   S    
C135  C160  S    
C140  H53   S    
C13   C103  S    
C35   C109  S    
C58   O17   A    
C153  C180  T    
C226  O36   A    
O17   Zn4   S    
C197  C206  A    
C214  C231  A    
C76   C83   A    
C104  C105  S    
C65   C87   A    
C144  H59   S    
C129  H17   S    
C11   C20   S    
O22   Zn10  S    
C62   O24   A    
C176  C185  S    
C140  C141  S    
C113  C166  S    
C132  H26   S    
C212  C220  A    
C101  H114  S    
C149  H62   S    
C90   C164  S    
O43   Zn4   S    
C107  H147  S    
C108  H145  S    
C156  O42   A    
O1    Zn10  S    
C10   C232  A    
C164  C173  S    
C163  C172  S    
C219  H85   S    
C2    C165  S    
C69   C88   A    
C46   C90   S    
C162  H3    S    
C124  C222  S    
C173  C182  S    
O19   Zn6   S    
O2    Zn15  S    
C135  H117  S    
C37   H96   S    
C203  H77   S    
C64   C85   S    
C152  C167  S    
C199  H74   S    
C124  C161  S    
C16   C25   S    
O1    Zn1   S    
C5    H93   S    
C17   C22   T    
C144  C145  S    
C61   C84   S    
O34   Zn8   S    
C167  O43   A    
C1    O45   A    
C75   H104  S    
C8    C17   S    
O44   Zn5   S    
C11   C190  A    
C8    C186  A    
C130  C131  S    
C158  C178  S    
C67   H108  S    
C227  O10   A    
O31   Zn1   S    
C214  H80   S    
C79   C169  S    
C13   C166  S    
C112  O41   A    
C123  C186  S    
C49   C53   S    
C12   C21   S    
C79   H112  S    
C51   C55   S    
C141  H50   S    
C130  H29   S    
C3    C11   A    
C119  H169  S    
C210  C219  A    
C2    C169  S    
C47   C59   S    
C131  H28   S    
C118  H170  S    
C164  H5    S    
C209  C224  S    
C41   C45   A    
C30   H35   S    
C150  H120  S    
O10   Zn6   S    
O37   Zn13  S    
C135  C174  S    
O48   Zn8   S    
O35   Zn11  S    
C147  H69   S    
C80   H109  S    
C104  H139  S    
C69   C77   A    
C147  C148  S    
C160  H183  S    
C128  C129  S    
C97   C98   S    
C221  O5    A    
C29   C49   A    
O46   Zn6   S    
C228  O11   A    
C102  H128  S    
C137  H45   S    
C149  H64   S    
C147  C194  S    
C33   C42   A    
C107  H148  S    
O32   Zn9   S    
C42   H102  S    
C66   C88   A    
C75   C84   A    
C151  C177  T    
C115  C116  S    
C205  C228  S    
C6    H94   S    
C145  H56   S    
C207  C216  A    
C121  H179  S    
C170  C222  S    
C172  C181  S    
C103  H143  S    
C58   O15   A    
C76   H105  S    
C126  H10   S    
C10   C188  A    
C32   C41   A    
C116  H160  S    
C106  H150  S    
C39   C45   A    
C14   C192  A    
C32   H57   S    
O1    Zn3   S    
C112  C154  S    
C136  H31   S    
C140  H52   S    
O23   Zn14  S    
C169  C177  S    
C224  O33   A    
C113  C172  S    
C128  H19   S    
C121  C122  S    
C215  C232  A    
C115  H164  S    
C138  C139  S    
C96   H127  S    
C142  H48   S    
O27   Zn14  S    
C143  H61   S    
C168  H6    S    
C77   C84   A    
C144  H58   S    
C165  C174  S    
C65   C74   A    
C15   C193  A    
O34   Zn15  S    
C101  C168  S    
C178  O44   A    
C119  H167  S    
C207  C226  S    
C20   C23   T    
C48   C52   S    
C192  C201  A    
C225  O35   A    
C79   C165  S    
O36   Zn12  S    
C24   C150  S    
O6    Zn2   S    
C7    C220  A    
C114  H166  S    
C78   C85   A    
O33   Zn10  S    
C200  O3    A    
C147  H67   S    
C2    C99   S    
C157  C211  S    
C7    H95   S    
C36   H90   S    
C70   C89   A    
C4    C12   A    
C52   C53   T    
C168  C176  S    
C54   C55   T    
C28   C48   A    
C198  C207  A    
C127  H21   S    
O26   Zn9   S    
C34   C43   A    
C31   C51   A    
C98   H122  S    
C124  H116  S    
C197  H72   S    
C57   C101  S    
C139  H40   S    
O47   Zn7   S    
C2    C135  S    
C170  C179  S    
C14   C22   S    
C100  H133  S    
C117  C118  S    
C68   C120  S    
C41   H101  S    
C99   H134  S    
C133  H38   S    
O39   Zn15  S    
C28   C37   A    
C35   C79   S    
C199  C208  A    
C30   C39   A    
C171  C180  S    
O41   Zn2   S    
C16   C194  A    
C109  H157  S    
O38   Zn14  S    
C9    C18   S    
C24   C106  S    
C206  C227  S    
C139  H41   S    
C90   H113  S    
C126  H8    S    
C63   O29   A    
C66   H97   S    
C81   C85   A    
C27   C49   A    
C206  C215  A    
C187  C196  A    
O24   Zn11  S    
O30   Zn13  S    
C111  H154  S    
O9    Zn5   S    
C115  H162  S    
O7    Zn3   S    
C189  O46   A    
O28   Zn15  S    
O29   Zn12  S    
C110  H155  S    
C215  H81   S    
C120  C121  S    
C166  C175  S    
C50   C54   S    
O34   Zn13  S    
C65   H1    S    
C123  C125  S    
C1    O40   A    
C136  H32   S    
C195  H70   S    
O51   Zn9   S    
C154  C181  T    
C31   C40   A    
C125  H12   S    
C204  C229  S    
C31   H46   S    
C35   C160  S    
O12   Zn9   S    
C27   H2    S    
C108  H146  S    
O23   Zn12  S    
C69   H119  S    
C46   C161  S    
C64   O30   A    
C160  C169  S    
C211  O48   A    
C72   C81   A    
C26   C48   A    
C68   C113  S    
C122  H175  S    
C227  O37   A    
C148  H65   S    
C30   C50   A    
C167  O51   A    
C87   C92   S    
C217  H83   S    
C77   H106  S    
O12   Zn2   S    
C68   C175  S    
C133  C190  S    
C134  H36   S    
C150  C162  S    
C223  O6    A    
C161  H182  S    
C117  H173  S    
C195  C204  A    
C166  H7    S    
C82   C86   A    
O5    Zn16  S    
C97   H125  S    
C193  C202  A    
C37   C43   A    
O15   Zn2   S    
C38   C44   A    
C213  H78   S    
C96   H126  S    
C225  O8    A    
C108  H144  S    
C5    C218  A    
C10   C19   S    
C146  C175  S    
O21   Zn8   S    
C46   C173  S    
C151  C156  S    
C60   O19   A    
C1    C153  S    
C5    C14   A    
C130  H30   S    
C117  H172  S    
C131  H27   S    
C7    C16   A    
C96   C222  S    
C63   C86   S    
C125  C126  S    
C127  C128  S    
C73   C82   A    
C190  C198  A    
C57   C117  S    
C137  C138  S    
C68   C163  S    
C12   C191  A    
C129  H18   S    
O23   Zn7   S    
C210  C223  S    
C104  H140  S    
O13   Zn8   S    
C228  O38   A    
C174  C183  S    
C123  H14   S    
C132  H25   S    
C231  H88   S    
C27   C36   A    
C33   C51   A    
O50   Zn1   S    
C138  H43   S    
C137  H44   S    
C229  O13   A    
C81   H110  S    
C149  H63   S    
C9    C231  A    
O8    Zn4   S    
C152  C179  T    
C3    C216  A    
O12   Zn11  S    
C109  C110  S    
C111  H151  S    
C159  C185  T    
C188  C197  A    
C66   C75   A    
C92   C93   T    
O25   Zn1   S    
C101  C171  S    
C94   C95   T    
C145  H55   S    
C100  H132  S    
C121  H178  S    
C72   H152  S    
C71   C91   A    
C165  H4    S    
C103  C104  S    
C157  C183  T    
O12   Zn4   S    
C226  O9    A    
C158  C184  T    
O11   Zn7   S    
C213  C230  A    
C40   H100  S    
C56   O14   A    
C175  C184  S    
C129  H16   S    
C134  H34   S    
C40   C47   A    
C150  C176  S    
C45   C60   S    
C119  H168  S    
C70   C78   A    
C159  C189  S    
C61   O25   A    
C230  H87   S    
C178  O52   A    
C102  H131  S    
C128  H20   S    
C209  C218  A    
C24   C168  S    
C105  H136  S    
C191  C199  A    
C74   H103  S    
C142  H49   S    
C130  C188  S    
C189  O2    A    
C143  C193  S    
C60   O21   A    
C29   H24   S    
C196  C205  A    
C44   C56   S    
C118  C119  S    
C141  H51   S    
C132  H23   S    
C6    C15   A    
C33   H68   S    
C8    C230  A    
C26   C34   A    
C59   O18   A    
C57   C162  S    
O4    Zn13  S    
O42   Zn3   S    
C42   C47   A    
O1    Zn16  S    
O52   Zn14  S    
C112  O49   A    
C216  H82   S    
C224  O7    A    
O23   Zn5   S    
C218  H84   S    
C223  O32   A    
C202  C210  A    
C146  H118  S    
C71   C80   A    
C196  H71   S    
C220  H86   S    
C212  C221  S    
C3    H91   S    
O16   Zn3   S    
C46   C114  S    
C201  H75   S    
C186  C195  A    
C202  H76   S    
C148  C149  S    
C73   C91   A    
C98   H123  S    
C134  C136  S    
C124  C173  S    
C139  H39   S    
C204  C213  A    
C136  H33   S    
C29   C38   A    
C229  O39   A    
C145  H54   S    
C208  C225  S    
C57   C176  S    
C143  H60   S    
C133  H37   S    
C99   C100  S    
C107  C108  S    
C96   C97   S    
C90   C170  S    
C126  H9    S    
C100  C102  S    
C61   O22   A    
C116  H159  S    
C106  H149  S    
C32   C50   A    
C56   O16   A    
C161  C170  S    
C105  H137  S    
C113  H115  S    
C140  C192  S    
C203  C212  A    
C120  H180  S    
C102  H129  S    
C88   C93   S    
C118  H171  S    
C35   C174  S    
C78   H107  S    
C111  H153  S    
C9    C187  A    
C142  H47   S    
C205  C214  A    
C211  O4    A    
C110  H156  S    
C39   H99   S    
C146  C163  S    
C67   C87   A    
C62   O26   A    
C34   H79   S    
O40   Zn16  S    
C141  C142  S    
C123  H15   S    
C72   C89   A    
C133  C134  S    
O49   Zn11  S    
C194  C203  A    
C15   C23   S    
C125  H11   S    
C28   H13   S    
C131  C132  S    
C19   C25   T    
C36   C44   A    
C71   H141  S    
C156  O50   A    
C6    C219  A    
C114  H165  S    
C164  C222  S    
C26   H174  S    
C91   C95   S    
C4    C217  A    
C70   H130  S    
C4    H92   S    
C163  H184  S    
O20   Zn7   S    
C67   C76   A    
C73   H163  S    
C105  H138  S    
C155  C200  S    
C82   H111  S    
C122  H176  S    
