data_mof_unit_5606.cif
_audit_creation_date              2012-12-11T17:09:34-0500
_audit_creation_method            fapswitch 2.2
_symmetry_space_group_name_H-M    P1
_symmetry_Int_Tables_number       1
_space_group_crystal_system       triclinic
_cell_length_a                    14.829448
_cell_length_b                    6.978476
_cell_length_c                    13.498559
_cell_angle_alpha                 89.999981
_cell_angle_beta                  99.960588
_cell_angle_gamma                 90.000014
_cell_volume                      1375.86876814

loop_
_atom_site_label
_atom_site_type_symbol
_atom_type_description
_atom_site_fract_x
_atom_site_fract_y
_atom_site_fract_z
_atom_type_partial_charge
O1    O     O_R   0.586930 0.505770 0.416350 -0.527624
O2    O     O_R   0.413070 0.005770 0.583650 -0.527623
O3    O     O_R   0.397900 0.173100 0.389630 -0.536147
O4    O     O_R   0.602100 0.673100 0.610370 -0.536147
C1    C     C_R   0.364455 0.345368 0.362896 0.731554
C2    C     C_R   0.635545 0.845368 0.637104 0.731554
O5    O     O_R   0.585280 0.175870 0.404330 -0.547902
O6    O     O_R   0.414720 0.675870 0.595670 -0.547902
O7    O     O_R   0.601790 0.008380 0.598460 -0.531990
O8    O     O_R   0.398210 0.508380 0.401540 -0.531991
C3    C     C_R   0.613350 0.345120 0.381517 0.720417
C4    C     C_R   0.386650 0.845120 0.618483 0.720418
O9    O     O_3   0.505200 0.340120 0.563670 -0.354886
O10   O     O_3   0.494800 0.840120 0.436330 -0.354888
V1    V     V_3+5 0.499040 0.064180 0.488190 1.509910
V2    V     V_3+5 0.500960 0.564180 0.511810 1.509911
C5    C     C_R   0.267183 0.022811 0.693260 0.021070
C6    C     C_R   0.732815 0.522812 0.306739 0.021073
C7    C     C_R   0.317993 0.856021 0.686487 -0.065178
C8    C     C_R   0.682006 0.356021 0.313513 -0.065181
C9    C     C_R   0.302966 0.702379 0.748621 -0.152268
C10   C     C_R   0.697032 0.202379 0.251377 -0.152265
H1    H     H_    0.346509 0.579041 0.752703 0.176595
H2    H     H_    0.653489 0.079041 0.247295 0.176594
C11   C     C_R   0.236984 0.713640 0.811985 -0.147946
C12   C     C_R   0.763014 0.213641 0.188013 -0.147943
H3    H     H_    0.230892 0.598405 0.863150 0.134950
H4    H     H_    0.769105 0.098406 0.136847 0.134950
C13   C     C_R   0.183770 0.878820 0.815588 -0.092677
C14   C     C_R   0.816230 0.378820 0.184411 -0.092679
C15   C     C_R   0.201434 0.034082 0.756121 0.003123
C16   C     C_R   0.798565 0.534082 0.243878 0.003124
C17   C     C_3   0.230429 0.231808 0.789478 -0.290552
C18   C     C_3   0.769572 0.731809 0.210521 -0.290553
C19   C     C_3   0.302616 0.218953 0.721497 0.078289
C20   C     C_3   0.697383 0.718953 0.278501 0.078289
H5    H     H_    0.175216 0.336991 0.763494 0.099078
H6    H     H_    0.824785 0.836991 0.236506 0.099079
H7    H     H_    0.288687 0.316520 0.655540 0.082800
H8    H     H_    0.711311 0.816520 0.344457 0.082801
C21   C     C_1   0.783471 0.877195 0.782933 -0.152772
C22   C     C_1   0.216529 0.377195 0.217067 -0.152774
C23   C     C_1   0.716096 0.860078 0.716853 -0.149012
C24   C     C_1   0.283904 0.360078 0.283147 -0.149011
O11   O     O_R   0.101720 0.231700 0.098560 -0.532533
O12   O     O_R   0.898280 0.731700 0.901440 -0.532532
O13   O     O_R   0.914700 0.558980 0.095690 -0.543380
O14   O     O_R   0.085300 0.058980 0.904310 -0.543381
C25   C     C_R   0.884585 0.390135 0.116077 0.696049
C26   C     C_R   0.115414 0.890135 0.883923 0.696049
O15   O     O_R   0.102080 0.561590 0.110390 -0.538218
O16   O     O_R   0.897920 0.061590 0.889610 -0.538218
O17   O     O_R   0.086950 0.728940 0.916330 -0.544029
O18   O     O_R   0.913050 0.228940 0.083670 -0.544029
C27   C     C_R   0.135932 0.391976 0.137378 0.742851
C28   C     C_R   0.864068 0.891976 0.862621 0.742853
O19   O     O_3   0.994770 0.394510 0.936380 -0.373908
O20   O     O_3   0.005230 0.894510 0.063620 -0.373908
V3    V     V_3+5 0.000970 0.670520 0.011800 1.438818
V4    V     V_3+5 0.999030 0.170520 0.988200 1.438817
C29   C     C_1   0.266968 0.242753 0.898485 0.446662
N1    N     N_1   0.295466 0.251333 0.983787 -0.317677
C30   C     C_1   0.733035 0.742755 0.101514 0.446662
N2    N     N_1   0.704540 0.751335 0.016211 -0.317680
Br1   Br    Br    0.431231 0.220616 0.789749 -0.483468
Br2   Br    Br    0.568769 0.720611 0.210246 -0.483469

loop_
_geom_bond_atom_site_label_1
_geom_bond_atom_site_label_2
_ccdc_geom_bond_type
O4    V2    S    
O5    C3    A    
C15   C17   S    
C21   C28   S    
C12   C14   A    
C7    C9    A    
O9    V2    S    
O12   V3    S    
C11   H3    S    
O16   V4    S    
C6    C8    A    
O1    C3    A    
O6    C4    A    
O2    C4    A    
C6    C20   S    
C2    O7    A    
O5    V1    S    
O7    V1    S    
O3    V1    S    
C1    O8    A    
O13   C25   A    
O1    V2    S    
O8    V2    S    
C14   C16   A    
O2    V1    S    
C21   C23   T    
O11   C27   A    
C29   N1    T    
C22   C24   T    
C17   C29   S    
C2    C23   S    
O19   V4    S    
C4    C7    S    
O14   C26   A    
C18   C30   S    
C17   C19   S    
C14   C25   S    
C8    C10   A    
O14   V4    S    
O20   V4    S    
C20   Br2   S    
C13   C26   S    
O9    V1    S    
C9    H1    S    
O17   V3    S    
C19   H7    S    
C5    C15   A    
O10   V2    S    
C3    C8    S    
O19   V3    S    
O4    C2    A    
C6    C16   A    
C19   Br1   S    
O13   V3    S    
C25   O18   A    
C26   O17   A    
C20   H8    S    
O15   V3    S    
C18   C20   S    
C11   C13   A    
C13   C15   A    
C10   C12   A    
C10   H2    S    
O12   C28   A    
C9    C11   A    
O10   V1    S    
O11   V4    S    
O18   V4    S    
O6    V2    S    
C5    C19   S    
O15   C27   A    
C5    C7    A    
O20   V3    S    
C18   H6    S    
C12   H4    S    
C1    C24   S    
C17   H5    S    
O16   C28   A    
C30   N2    T    
O3    C1    A    
C22   C27   S    
C16   C18   S    
