data_mof_unit_55973.cif
_audit_creation_date              2013-03-05T16:12:14-0500
_audit_creation_method            fapswitch 2.2
_symmetry_space_group_name_H-M    P1
_symmetry_Int_Tables_number       1
_space_group_crystal_system       triclinic
_cell_length_a                    10.723854
_cell_length_b                    9.405642
_cell_length_c                    27.807387
_cell_angle_alpha                 90.107778
_cell_angle_beta                  89.971522
_cell_angle_gamma                 90.000721
_cell_volume                      2804.77931686

loop_
_atom_site_label
_atom_site_type_symbol
_atom_site_description
_atom_site_fract_x
_atom_site_fract_y
_atom_site_fract_z
_atom_type_partial_charge
O1    O     O_R   0.317570 0.620260 0.500030 -0.596561
O2    O     O_R   0.317570 0.379740 0.500030 -0.596421
C1    C     C_R   0.259632 0.500203 0.500085 0.766733
O3    O     O_R   0.499900 0.620250 0.430280 -0.593207
O4    O     O_R   0.499900 0.379750 0.430280 -0.592985
C2    C     C_R   0.499951 0.499846 0.407455 0.804849
Cu1   Cu    Cu3+1 0.499860 0.642410 0.500020 0.897772
Cu2   Cu    Cu3+1 0.499860 0.357590 0.500020 0.897176
O5    O     O_R   0.682190 0.620260 0.500010 -0.596194
O6    O     O_R   0.682190 0.379740 0.500010 -0.596109
O7    O     O_R   0.499860 0.620280 0.569750 -0.589506
O8    O     O_R   0.499860 0.379720 0.569750 -0.589708
C3    C     C_R   0.740128 0.500204 0.500063 0.767660
C4    C     C_R   0.499676 0.500180 0.592577 0.830117
C5    C     C_R   0.387991 0.507885 0.178329 0.533852
O9    O     O_2   0.280734 0.519953 0.203429 -0.534678
N1    N     N_R   0.498972 0.496595 0.202172 -0.470545
C6    C     C_R   0.609325 0.483784 0.177927 0.533777
C7    C     C_R   0.512311 0.370002 0.278967 -0.105143
C8    C     C_R   0.512216 0.370590 0.329102 -0.226073
C9    C     C_R   0.487688 0.627136 0.328836 -0.226709
C10   C     C_R   0.487143 0.626089 0.278680 -0.104548
C11   C     C_R   0.499571 0.497610 0.253670 0.366335
C12   C     C_R   0.497682 0.493695 0.102006 -0.044125
C13   C     C_R   0.385199 0.506149 0.127851 -0.020399
C14   C     C_R   0.272701 0.517251 0.102916 -0.144617
C15   C     C_R   0.610814 0.482576 0.127437 -0.020302
C16   C     C_R   0.499999 0.499256 0.354511 -0.041730
H1    H     H_    0.477949 0.727791 0.347438 0.143012
H2    H     H_    0.477321 0.725020 0.259190 0.134514
H3    H     H_    0.185060 0.528820 0.121939 0.187212
C17   C     C_R   0.498353 0.501014 0.645540 -0.110222
C18   C     C_R   0.380916 0.491723 0.974770 0.044413
C19   C     C_R   0.611356 0.491617 0.974312 0.043702
C20   C     C_R   0.495824 0.491974 0.949286 0.072315
C21   C     C_R   0.268789 0.483537 0.948038 -0.196997
C22   C     C_R   0.269422 0.482218 0.898097 -0.130842
C23   C     C_R   0.381628 0.488634 0.872738 -0.021358
C24   C     C_R   0.495171 0.492993 0.898149 -0.039356
C25   C     C_R   0.608042 0.498657 0.872293 -0.022618
C26   C     C_R   0.605224 0.501703 0.821831 0.602807
N2    N     N_R   0.493749 0.498882 0.798022 -0.449133
C27   C     C_R   0.383044 0.490781 0.822263 0.603199
C28   C     C_R   0.481963 0.375061 0.721153 -0.136866
C29   C     C_R   0.484682 0.373683 0.671131 -0.203892
C30   C     C_R   0.509659 0.629785 0.670856 -0.285582
C31   C     C_R   0.506842 0.632953 0.721325 0.386374
C32   C     C_R   0.492961 0.503220 0.746495 0.240864
O10   O     O_2   0.274808 0.486405 0.797552 -0.518891
C33   C     C_R   0.381672 0.498902 0.025836 0.044458
C34   C     C_R   0.497044 0.492511 0.050867 0.068339
C35   C     C_R   0.611796 0.485156 0.025389 0.044549
C36   C     C_R   0.270695 0.513878 0.052989 -0.201851
H4    H     H_    0.475722 0.272904 0.652534 0.167868
H5    H     H_    0.471975 0.275837 0.740485 0.181607
H6    H     H_    0.180923 0.476537 0.879396 0.188394
H7    H     H_    0.178265 0.475329 0.964558 0.135688
H8    H     H_    0.180189 0.526443 0.036813 0.136913
O11   O     O_2   0.717209 0.473006 0.202635 -0.534690
C37   C     C_R   0.722646 0.469868 0.102086 -0.144725
H9    H     H_    0.522054 0.270477 0.347897 0.143143
H10   H     H_    0.521844 0.270417 0.259708 0.134366
H11   H     H_    0.810747 0.459071 0.120795 0.186802
C38   C     C_R   0.722858 0.499231 0.947135 -0.197076
C39   C     C_R   0.720943 0.502532 0.897210 -0.129285
O12   O     O_2   0.712804 0.507587 0.796699 -0.516423
C40   C     C_R   0.723403 0.470916 0.052142 -0.201938
H12   H     H_    0.813881 0.506018 0.963283 0.136051
H13   H     H_    0.519726 0.728504 0.651245 0.185841
H14   H     H_    0.808978 0.508610 0.878174 0.189376
H15   H     H_    0.813496 0.457567 0.035651 0.136505
C41   C     C_3   0.071235 0.655826 0.500686 -0.375942
C42   C     C_3   0.071780 0.422776 0.545265 -0.373303
H16   H     H_    0.105414 0.714798 0.468583 0.162734
H17   H     H_    0.106111 0.311094 0.545836 0.162524
H18   H     H_    0.105306 0.713043 0.533227 0.163895
H19   H     H_    0.106608 0.475942 0.578439 0.163297
C43   C     C_3   0.928531 0.655827 0.500676 -0.375951
C44   C     C_3   0.927835 0.422785 0.545259 -0.371405
H20   H     H_    0.894349 0.713056 0.533210 0.164524
H21   H     H_    0.892910 0.475967 0.578429 0.164380
H22   H     H_    0.894470 0.714788 0.468565 0.162793
H23   H     H_    0.893490 0.311107 0.545831 0.163165
H24   H     H_    0.106822 0.479757 0.421678 0.159633
H25   H     H_    0.106268 0.313358 0.453161 0.162865
H26   H     H_    0.893179 0.479738 0.421667 0.159691
H27   H     H_    0.893639 0.313350 0.453156 0.162661
C45   C     C_3   0.071911 0.424985 0.454484 -0.375341
C46   C     C_3   0.121704 0.500919 0.500133 0.153798
C47   C     C_3   0.878057 0.500922 0.500121 0.152986
C48   C     C_3   0.927990 0.424979 0.454478 -0.376120
C49   C     C_3   0.611707 0.083978 0.525817 -0.185081
C50   C     C_3   0.611756 0.916311 0.525775 -0.185798
H28   H     H_    0.615870 0.123898 0.563460 0.149596
H29   H     H_    0.616158 0.876590 0.563387 0.149631
H30   H     H_    0.698275 0.121127 0.507807 0.138623
H31   H     H_    0.698216 0.879221 0.507656 0.138080
H32   H     H_    0.385653 0.123978 0.563785 0.144896
H33   H     H_    0.385773 0.876767 0.563814 0.148270
C51   C     C_3   0.389237 0.083965 0.526144 -0.186130
C52   C     C_3   0.389284 0.916328 0.526168 -0.186451
C53   C     C_3   0.499826 0.083375 0.451565 -0.187604
C54   C     C_3   0.499706 0.916155 0.451563 -0.186795
N3    N     N_3   0.500250 0.143650 0.501060 -0.115679
N4    N     N_3   0.500250 0.856350 0.501060 -0.115710
H34   H     H_    0.416451 0.122103 0.431705 0.141281
H35   H     H_    0.416161 0.877425 0.431760 0.139124
H36   H     H_    0.582985 0.121914 0.431498 0.138833
H37   H     H_    0.582712 0.877281 0.431427 0.141294
H38   H     H_    0.302362 0.121021 0.508368 0.139001
H39   H     H_    0.302427 0.879091 0.508404 0.138260
N5    N     N_R   0.518179 0.767367 0.746042 0.134867
O13   O     O_R   0.564372 0.877326 0.723941 -0.366921
O14   O     O_R   0.475270 0.784204 0.789448 -0.341746

loop_
_geom_bond_atom_site_label_1
_geom_bond_atom_site_label_2
_geom_bond_distance
_ccdc_geom_bond_type
C51   H38   1.111249 S    
H27   C48   1.113235 S    
C3    C47   1.479145 S    
C17   C29   1.401900 A    
C20   C24   1.422063 A    
C7    C8    1.394146 A    
C12   C15   1.408551 A    
C49   H30   1.111257 S    
C41   H18   1.113748 S    
N5    O14   1.300916 A    
Cu1   Cu2   2.678914 S    
C43   C47   1.554323 S    
Cu1   O7    1.950538 S    
N1    C11   1.432081 S    
C37   H11   1.083639 S    
C38   H12   1.076492 S    
C21   C22   1.388796 A    
C15   C37   1.395822 A    
C23   C24   1.408666 A    
O7    C4    1.296790 A    
C43   H20   1.113749 S    
C5    C13   1.404048 A    
C7    H10   1.082881 S    
C39   H14   1.083682 S    
C51   N3    1.489827 S    
C18   C21   1.415981 A    
Cu1   O5    1.966350 S    
C19   C20   1.421307 A    
C26   N2    1.367048 A    
C8    H9    1.082975 S    
O5    C3    1.288861 A    
C51   C52   1.576728 S    
C44   C47   1.550706 S    
C41   C43   1.530338 S    
C50   N4    1.489836 S    
C22   H6    1.083677 S    
C2    C16   1.472237 S    
C37   C40   1.388896 A    
C30   H13   1.083060 S    
Cu1   N4    2.012401 S    
C53   H36   1.112794 S    
C12   C34   1.422098 A    
C14   H3    1.083637 S    
C50   H29   1.112314 S    
C9    C10   1.394744 A    
C42   H17   1.113235 S    
O3    Cu1   1.950066 S    
C19   C38   1.416086 A    
N5    O13   1.301856 A    
C33   C34   1.421216 A    
C52   N4    1.489793 S    
C33   C36   1.415985 A    
C34   C35   1.421278 A    
C12   C13   1.408572 A    
O3    C2    1.297175 A    
C21   H7    1.076596 S    
C24   C25   1.408609 A    
C44   H21   1.113169 S    
C27   O10   1.349738 S    
C8    C16   1.406279 A    
C18   C33   1.421506 A    
C9    H1    1.082988 S    
O1    C1    1.288856 A    
C7    C11   1.399038 A    
C22   C23   1.395749 A    
C43   H22   1.113755 S    
C31   C32   1.415662 A    
C45   C48   1.543383 S    
Cu2   O8    1.949760 S    
C49   H28   1.112318 S    
N1    C6    1.366897 A    
C42   C44   1.543651 S    
C54   N4    1.487875 S    
N2    C32   1.433518 S    
C53   N3    1.487547 S    
Cu2   N3    2.012510 S    
C35   C40   1.416014 A    
C41   H16   1.113763 S    
C25   C26   1.403889 A    
H33   C52   1.112298 S    
C9    C16   1.406128 A    
O8    C4    1.297665 A    
C29   H4    1.083218 S    
H32   C51   1.112276 S    
C25   C39   1.395729 A    
N2    C27   1.367102 A    
C14   C36   1.388822 A    
C50   H31   1.110914 S    
C28   C29   1.391311 A    
H25   C45   1.113236 S    
C5    N1    1.366874 A    
C30   C31   1.403978 A    
C10   H2    1.082864 S    
O1    Cu1   1.965920 S    
C17   C30   1.405022 A    
O2    Cu2   1.965925 S    
C6    C15   1.404102 A    
H24   C45   1.113182 S    
C4    C17   1.472825 S    
O6    C3    1.292207 A    
O4    Cu2   1.950845 S    
C36   H8    1.076546 S    
C26   O12   1.349740 S    
C52   H39   1.110880 S    
C31   N5    1.443031 S    
C19   C35   1.421742 A    
C54   H37   1.112798 S    
C1    C46   1.479143 S    
C38   C39   1.388843 A    
O2    C1    1.292208 A    
C13   C14   1.395799 A    
C42   C46   1.550692 S    
C23   C27   1.403827 A    
C44   H23   1.113235 S    
C41   C46   1.554323 S    
C28   H5    1.083168 S    
C47   C48   1.550422 S    
O4    C2    1.296726 A    
C49   C50   1.577013 S    
C18   C20   1.421189 A    
C53   H34   1.112819 S    
C40   H15   1.076493 S    
C53   C54   1.572810 S    
C49   N3    1.489912 S    
C28   C32   1.400151 A    
C6    O11   1.349773 S    
C45   C46   1.550437 S    
Cu2   O6    1.966345 S    
H26   C48   1.113181 S    
C42   H19   1.113168 S    
C10   C11   1.399450 A    
C54   H35   1.112811 S    
C5    O9    1.349784 S    
