data_mof_unit_67932.cif
_audit_creation_date              2013-03-05T16:14:17-0500
_audit_creation_method            fapswitch 2.2
_symmetry_space_group_name_H-M    P1
_symmetry_Int_Tables_number       1
_space_group_crystal_system       triclinic
_cell_length_a                    10.997414
_cell_length_b                    10.62941
_cell_length_c                    10.271453
_cell_angle_alpha                 93.541398
_cell_angle_beta                  92.927803
_cell_angle_gamma                 90.846002
_cell_volume                      1196.6414841

loop_
_atom_site_label
_atom_site_type_symbol
_atom_site_description
_atom_site_fract_x
_atom_site_fract_y
_atom_site_fract_z
_atom_type_partial_charge
O1    O     O_R   0.499990 0.316750 0.614620 -0.588519
O2    O     O_R   0.500010 0.683250 0.385380 -0.636416
O3    O     O_R   0.499990 0.316780 0.385290 -0.671572
O4    O     O_R   0.500010 0.683220 0.614710 -0.661926
C1    C     C_R   0.501306 0.260506 0.494779 0.954263
C2    C     C_R   0.499517 0.739065 0.505179 0.788516
O5    O     O_R   0.316760 0.500000 0.614660 -0.536595
O6    O     O_R   0.683240 0.500000 0.385340 -0.595984
O7    O     O_R   0.316760 0.500020 0.385330 -0.636219
O8    O     O_R   0.683240 0.499980 0.614670 -0.662014
C3    C     C_R   0.260379 0.505154 0.497713 0.928301
C4    C     C_R   0.738998 0.494414 0.502525 0.890096
Zn1   Zn    Zn3+2 0.500000 0.499980 0.653120 0.998158
Zn2   Zn    Zn3+2 0.500000 0.500020 0.346880 0.960233
C5    C     C_R   0.142674 0.707508 0.140532 -0.050032
C6    C     C_R   0.878028 0.224429 0.809480 -0.002851
C7    C     C_R   0.094286 0.657016 0.249998 0.033403
C8    C     C_R   0.925273 0.300350 0.715620 -0.049674
C9    C     C_R   0.089782 0.524379 0.258385 -0.001346
C10   C     C_R   0.916502 0.434226 0.730404 -0.058650
C11   C     C_R   0.118706 0.441703 0.152683 -0.053885
C12   C     C_R   0.871284 0.491801 0.844926 -0.036019
C13   C     C_R   0.150624 0.493467 0.034484 -0.026395
C14   C     C_R   0.826813 0.415099 0.940610 -0.066828
C15   C     C_R   0.171565 0.626552 0.033036 -0.083552
C16   C     C_R   0.823720 0.282096 0.918195 -0.081835
C17   C     C_R   0.930057 0.446733 0.391767 -0.011808
C18   C     C_R   0.065793 0.551515 0.606774 -0.094114
C19   C     C_R   0.872699 0.485826 0.505352 -0.133124
C20   C     C_R   0.125380 0.508769 0.495080 -0.224265
C21   C     C_R   0.944663 0.512341 0.619619 -0.042536
C22   C     C_R   0.053601 0.474399 0.381595 -0.132596
C23   C     C_R   0.580051 0.053952 0.415841 -0.084672
C24   C     C_R   0.416535 0.943989 0.579634 -0.088454
C25   C     C_R   0.599229 0.931737 0.452479 -0.053030
C26   C     C_R   0.398894 0.066294 0.543286 0.015972
C27   C     C_R   0.508420 0.873699 0.519196 -0.166838
C28   C     C_R   0.491388 0.125177 0.479879 -0.176755
C29   C     C_R   0.535399 0.604375 0.078243 -0.034390
C30   C     C_R   0.463181 0.395935 0.921726 0.033340
C31   C     C_R   0.536911 0.603907 0.937013 -0.017514
C32   C     C_R   0.460029 0.397257 0.063389 -0.065617
N1    N     N_R   0.499970 0.499970 0.857200 -0.136099
N2    N     N_R   0.500030 0.500030 0.142800 -0.192706
C33   C     C_2   0.226633 0.685416 0.922297 0.332722
H1    H     H_    0.212143 0.783666 0.905263 0.147005
O9    O     O_2   0.292487 0.626980 0.850258 -0.619010
C34   C     C_2   0.768467 0.200784 0.011113 0.452275
H2    H     H_    0.823639 0.133673 0.062020 0.175438
O10   O     O_2   0.659192 0.202894 0.024136 -0.588592
C35   C     C_2   0.577922 0.717912 0.875261 0.527553
H3    H     H_    0.634836 0.708739 0.793453 0.067873
O11   O     O_2   0.547531 0.823143 0.914043 -0.519085
C36   C     C_2   0.402496 0.292560 0.127352 0.460790
H4    H     H_    0.355923 0.314198 0.215056 0.107257
O12   O     O_2   0.405512 0.182942 0.084908 -0.513034
C37   C     C_2   0.159623 0.846024 0.135931 0.524995
H5    H     H_    0.100858 0.898052 0.071180 0.119425
O13   O     O_2   0.242184 0.901227 0.201144 -0.511752
C38   C     C_2   0.890154 0.084558 0.796408 0.529248
H6    H     H_    0.975790 0.043764 0.768845 0.139420
O14   O     O_2   0.804080 0.014205 0.812600 -0.529233
C39   C     C_2   0.041346 0.741216 0.353583 0.481628
H7    H     H_    0.960467 0.711000 0.399798 0.099480
O15   O     O_2   0.088232 0.842756 0.390831 -0.524276
C40   C     C_2   0.985099 0.240612 0.601762 0.428262
H8    H     H_    0.060501 0.288016 0.562768 0.135198
O16   O     O_2   0.949380 0.139900 0.548829 -0.488732
C41   C     C_2   0.119930 0.303689 0.174744 0.423870
H9    H     H_    0.161987 0.273054 0.264629 0.135029
O17   O     O_2   0.063875 0.224977 0.102856 -0.539685
C42   C     C_2   0.860665 0.631285 0.854221 0.499364
H10   H     H_    0.828659 0.678268 0.768717 0.092833
O18   O     O_2   0.896045 0.696190 0.951078 -0.484865
C43   C     C_2   0.155351 0.413453 0.910825 0.476015
H11   H     H_    0.159466 0.455478 0.818621 0.139836
O19   O     O_2   0.150544 0.298941 0.907097 -0.513098
C44   C     C_2   0.783976 0.470326 0.065258 0.362533
H12   H     H_    0.710650 0.425211 0.111307 0.107280
O20   O     O_2   0.838634 0.557180 0.126295 -0.505383
C45   C     C_2   0.875408 0.340802 0.309418 0.475263
H13   H     H_    0.896266 0.325230 0.209522 0.068682
O21   O     O_2   0.811176 0.263752 0.357025 -0.592059
C46   C     C_2   0.102022 0.681211 0.654621 0.458271
H14   H     H_    0.187443 0.719366 0.627047 0.060420
O22   O     O_2   0.034438 0.750836 0.714412 -0.586082
C47   C     C_2   0.626581 0.092165 0.290603 0.663505
H15   H     H_    0.616446 0.186538 0.260173 0.127478
O23   O     O_2   0.670761 0.015501 0.214074 -0.481158
C48   C     C_2   0.351924 0.897979 0.691881 0.410240
H16   H     H_    0.356536 0.801543 0.715959 0.146298
O24   O     O_2   0.299809 0.970330 0.766454 -0.552516
C49   C     C_2   0.718356 0.868603 0.435501 0.609412
H17   H     H_    0.727977 0.769145 0.450739 0.010997
O25   O     O_2   0.809145 0.928501 0.411301 -0.445634
C50   C     C_2   0.275066 0.120841 0.544041 0.587318
H18   H     H_    0.201135 0.074250 0.588862 0.140183
O26   O     O_2   0.251961 0.215160 0.486457 -0.643836
C51   C     C_2   0.576205 0.720151 0.153521 0.614310
H19   H     H_    0.509896 0.789651 0.182657 0.108492
O27   O     O_2   0.684468 0.742948 0.175267 -0.489053
C52   C     C_2   0.421551 0.281025 0.845101 0.617681
H20   H     H_    0.466676 0.192315 0.857868 0.154079
O28   O     O_2   0.334960 0.283922 0.767002 -0.538327

loop_
_geom_bond_atom_site_label_1
_geom_bond_atom_site_label_2
_geom_bond_distance
_ccdc_geom_bond_type
C40   O16   1.220557 D    
C47   H15   1.074652 S    
C39   O15   1.220473 D    
C42   O18   1.218549 D    
C49   H17   1.084155 S    
C4    C19   1.473465 S    
C18   C46   1.476775 S    
C24   C27   1.412013 A    
C31   N1    1.377862 A    
O7    Zn2   2.073204 S    
C45   H13   1.066317 S    
C48   H16   1.070541 S    
C29   C31   1.451291 A    
C33   H1    1.082270 S    
O5    C3    1.327936 A    
O1    C1    1.335663 A    
C9    C11   1.406378 A    
C14   C16   1.417890 A    
C41   H9    1.081816 S    
C44   O20   1.216672 D    
C5    C15   1.409645 A    
C17   C19   1.398118 A    
C38   O14   1.222066 D    
C6    C38   1.493070 S    
C33   O9    1.212054 D    
O4    Zn1   2.011031 S    
C41   O17   1.219517 D    
C23   C25   1.390709 A    
C29   C51   1.464378 S    
C30   N1    1.389442 A    
C3    C20   1.484606 S    
C50   O26   1.218581 D    
C24   C26   1.388207 A    
C16   C34   1.474033 S    
C34   O10   1.216314 D    
C40   H8    1.071649 S    
C49   O25   1.220720 D    
C1    C28   1.439090 S    
C5    C37   1.485307 S    
O2    C2    1.332948 A    
C32   N2    1.375239 A    
C9    C22   1.473232 S    
C12   C42   1.486513 S    
C45   O21   1.215118 D    
C25   C49   1.493961 S    
C6    C16   1.404902 A    
C36   O12   1.220106 D    
C35   H3    1.073668 S    
C17   C45   1.467961 S    
C46   H14   1.075785 S    
O4    C2    1.303874 A    
C44   H12   1.076807 S    
C11   C41   1.498328 S    
C38   H6    1.085933 S    
C35   O11   1.221118 D    
C43   H11   1.074508 S    
C24   C48   1.488753 S    
C43   O19   1.215719 D    
C26   C50   1.488134 S    
C48   O24   1.221365 D    
C51   H19   1.085335 S    
O6    C4    1.327714 A    
C50   H18   1.082947 S    
C2    C27   1.430828 S    
C52   O28   1.215395 D    
O7    C3    1.336516 A    
O3    Zn2   2.011030 S    
O8    C4    1.330856 A    
C14   C44   1.477384 S    
C34   H2    1.084844 S    
C51   O27   1.218112 D    
C10   C12   1.409018 A    
C11   C13   1.421358 A    
C12   C14   1.416382 A    
O1    Zn1   1.963281 S    
C15   C33   1.482950 S    
Zn1   N1    2.096222 S    
Zn2   N2    2.096222 S    
C5    C7    1.400960 A    
C36   H4    1.073207 S    
O6    Zn2   2.033629 S    
C25   C27   1.396954 A    
C17   C22   1.396372 A    
C18   C21   1.404873 A    
C13   C43   1.487934 S    
C42   H10   1.082774 S    
O3    C1    1.305550 A    
O8    Zn1   2.073202 S    
C29   N2    1.387662 A    
C8    C40   1.484242 S    
C23   C28   1.407956 A    
C26   C28   1.396359 A    
C23   C47   1.485691 S    
C18   C20   1.404731 A    
C19   C21   1.393191 A    
C32   C36   1.477300 S    
C20   C22   1.400085 A    
C37   H5    1.085326 S    
C30   C32   1.456474 A    
C7    C9    1.418076 A    
C8    C10   1.426960 A    
C13   C15   1.430995 A    
C52   H20   1.083993 S    
O2    Zn2   1.963281 S    
C37   O13   1.221047 D    
C30   C52   1.465894 S    
C39   H7    1.083128 S    
O5    Zn1   2.033631 S    
C6    C8    1.409094 A    
C47   O23   1.220475 D    
C46   O22   1.218206 D    
C31   C35   1.477236 S    
C7    C39   1.494331 S    
C10   C21   1.491761 S    
