data_mof_unit_66780.cif
_audit_creation_date              2013-03-05T15:41:05-0500
_audit_creation_method            fapswitch 2.2
_symmetry_space_group_name_H-M    P1
_symmetry_Int_Tables_number       1
_space_group_crystal_system       triclinic
_cell_length_a                    8.300831
_cell_length_b                    14.249097
_cell_length_c                    15.084096
_cell_angle_alpha                 93.335661
_cell_angle_beta                  99.158747
_cell_angle_gamma                 90.807032
_cell_volume                      1757.91370685

loop_
_atom_site_label
_atom_site_type_symbol
_atom_site_description
_atom_site_fract_x
_atom_site_fract_y
_atom_site_fract_z
_atom_type_partial_charge
P1    P     P_3+3 0.947560 0.714050 0.560480 0.462705
O1    O     O_2   0.113690 0.728200 0.532750 -0.362816
O2    O     O_3   0.871900 0.612110 0.540440 -0.400975
O3    O     O_3   0.325660 0.668890 0.372600 -0.358572
O4    O     O_2   0.214479 0.834995 0.427936 -0.415714
O5    O     O_3   0.992502 0.738803 0.676534 -0.589427
O6    O     O_3   0.279106 0.830497 0.264178 -0.541584
H1    H     H_    0.257311 0.692272 0.210586 0.149326
C1    C     C_3   0.227647 0.786057 0.103102 -0.613897
H2    H     H_    0.093758 0.777184 0.099110 0.205086
P2    P     P_3+3 0.325150 0.423860 0.297970 0.473342
P3    P     P_3+3 0.866869 0.609463 0.212623 0.468134
O7    O     O_2   0.147570 0.451710 0.282630 -0.348231
O8    O     O_3   0.905540 0.621350 0.329600 -0.368872
O9    O     O_2   0.017487 0.566625 0.178446 -0.427651
O10   O     O_3   0.315352 0.301263 0.283304 -0.599190
O11   O     O_3   0.855545 0.722345 0.171128 -0.570040
C2    C     C_3   0.894170 0.791607 0.242659 0.283695
H3    H     H_    0.013323 0.777760 0.282635 0.184128
H4    H     H_    0.806413 0.790635 0.290391 0.129996
C3    C     C_3   0.897655 0.891397 0.208407 -0.719515
C4    C     C_3   0.744669 0.322746 0.275827 0.302906
H5    H     H_    0.635091 0.341985 0.305501 0.094196
C5    C     C_3   0.692321 0.282478 0.178925 -0.674506
H6    H     H_    0.634320 0.337497 0.136638 0.167308
H7    H     H_    0.801661 0.258801 0.150282 0.236545
Ba1   Ba    Ba6+2 0.142880 0.544780 0.454020 1.558037
C6    C     C_3   0.035074 0.656448 0.719786 0.292033
H8    H     H_    0.935096 0.602985 0.705757 0.155926
C7    C     C_3   0.071060 0.680186 0.820810 -0.711021
H9    H     H_    0.181834 0.726401 0.835263 0.235873
H10   H     H_    0.095253 0.614695 0.856765 0.196118
C8    C     C_3   0.278569 0.261552 0.360595 0.239644
H11   H     H_    0.149687 0.274284 0.366025 0.107332
C9    C     C_3   0.306798 0.156029 0.352518 -0.714206
P4    P     P_3+3 0.862730 0.285940 0.439440 0.460499
O12   O     O_2   0.696600 0.271740 0.467230 -0.372884
O13   O     O_3   0.938380 0.387880 0.459490 -0.392355
O14   O     O_3   0.484630 0.331100 0.627330 -0.381117
O15   O     O_3   0.831469 0.254327 0.324242 -0.562829
P5    P     P_3+3 0.953172 0.382515 0.788076 0.465202
O16   O     O_3   0.389110 0.548970 0.605210 -0.403995
O17   O     O_3   0.904740 0.378630 0.670330 -0.396830
O18   O     O_2   0.850762 0.462201 0.822414 -0.325921
O19   O     O_3   0.873462 0.282457 0.829628 -0.495997
Ba2   Ba    Ba6+2 0.667290 0.455210 0.545900 1.569672
P6    P     P_3+3 0.341276 0.792530 0.373551 0.482456
C10   C     C_3   0.310051 0.761599 0.198240 0.248754
O20   O     O_3   0.421180 0.451020 0.394720 -0.399141
C11   C     C_3   0.530682 0.743870 0.662038 0.404134
H12   H     H_    0.651589 0.719789 0.648632 0.084641
C12   C     C_3   0.540321 0.850103 0.680767 -0.934396
H13   H     H_    0.636217 0.869402 0.739297 0.272566
H14   H     H_    0.570490 0.884743 0.621414 0.225429
H15   H     H_    0.421347 0.875912 0.695500 0.251493
P7    P     P_3+3 0.481103 0.579606 0.716494 0.466288
O21   O     O_2   0.662730 0.548230 0.717350 -0.353919
O22   O     O_3   0.488746 0.701875 0.737383 -0.536550
C13   C     C_3   0.968542 0.203276 0.816382 0.322552
H16   H     H_    0.099563 0.222612 0.821029 0.030107
C14   C     C_3   0.954648 0.137611 0.892145 -0.612787
H17   H     H_    0.826496 0.112568 0.888774 0.229846
H18   H     H_    0.992225 0.175674 0.958827 0.257962
P8    P     P_3+3 0.462886 0.208327 0.627102 0.453832
C15   C     C_3   0.457615 0.194391 0.799145 0.354810
H19   H     H_    0.333592 0.217645 0.771589 -0.064542
O23   O     O_2   0.572079 0.165351 0.562363 -0.374289
O24   O     O_3   0.551179 0.169068 0.731295 -0.523656
H20   H     H_    0.334957 0.060547 0.813417 0.169470
C16   C     C_3   0.435861 0.105720 0.852061 -0.620564
C17   C     C_R   0.013916 0.939871 0.547826 -0.053239
C18   C     C_R   0.817095 0.804743 0.502451 0.213641
C19   C     C_R   0.660662 0.774527 0.461438 -0.453894
C20   C     C_R   0.547557 0.837355 0.422317 0.317483
C21   C     C_R   0.593097 0.931663 0.418366 -0.306119
C22   C     C_R   0.750252 0.964934 0.457796 0.046949
C23   C     C_R   0.862286 0.902354 0.503305 -0.015895
H21   H     H_    0.624325 0.701398 0.462373 0.180842
C24   C     C_R   0.944762 0.098449 0.499403 -0.028833
C25   C     C_R   0.056164 0.035953 0.545504 0.089672
C26   C     C_R   0.988399 0.196656 0.502315 0.241589
C27   C     C_R   0.139797 0.228156 0.549248 -0.535859
C28   C     C_R   0.253036 0.165263 0.587662 0.236719
C29   C     C_R   0.210947 0.069963 0.587713 -0.315066
C30   C     C_R   0.794136 0.060571 0.453806 -0.078001
H22   H     H_    0.505208 0.978994 0.385414 0.188960
H23   H     H_    0.708309 0.105020 0.415779 0.173099
C31   C     C_R   0.251888 0.458231 0.767739 -0.502853
C32   C     C_R   0.167388 0.417967 0.828976 0.187697
C33   C     C_R   0.234233 0.422699 0.920936 -0.231736
C34   C     C_R   0.380168 0.476045 0.953297 0.069255
C35   C     C_R   0.447705 0.527596 0.889953 -0.206720
C36   C     C_R   0.389255 0.514888 0.798015 0.273568
C37   C     C_R   0.620486 0.516625 0.081653 -0.247736
C38   C     C_R   0.675833 0.540411 0.173138 0.240692
C39   C     C_R   0.425661 0.476720 0.211404 0.281800
C40   C     C_R   0.360327 0.464402 0.119642 -0.321415
C41   C     C_R   0.454979 0.484885 0.052166 0.087676
C42   C     C_R   0.580301 0.517200 0.237125 -0.379026
H24   H     H_    0.168419 0.386738 0.965539 0.175352
H25   H     H_    0.236829 0.437050 0.102600 0.172591
H26   H     H_    0.543024 0.580132 0.910695 0.172293
H27   H     H_    0.628116 0.529705 0.307943 0.180192
C43   C     C_2   0.572646 0.201555 0.174799 0.737590
H28   H     H_    0.444680 0.210513 0.148395 0.041661
O25   O     O_2   0.617463 0.125999 0.202940 -0.539092
H29   H     H_    0.145264 0.627237 0.696984 0.096916
C44   C     C_2   0.931915 0.731042 0.853047 0.717772
H30   H     H_    0.907473 0.802775 0.835250 0.041610
O26   O     O_2   0.845717 0.692558 0.899202 -0.605810
H31   H     H_    0.358625 0.290368 0.422596 0.153970
C45   C     C_2   0.214432 0.110392 0.267209 0.710020
H32   H     H_    0.108915 0.143934 0.230525 0.049278
O27   O     O_2   0.255378 0.033425 0.239758 -0.574147
H33   H     H_    0.269236 0.121558 0.410134 0.172093
H34   H     H_    0.439220 0.145044 0.353794 0.231654
C46   C     C_2   0.489664 0.753179 0.201682 0.435520
H35   H     H_    0.554630 0.790314 0.156945 0.061855
O28   O     O_2   0.564151 0.706594 0.258736 -0.631412
C47   C     C_2   0.276316 0.717216 0.032452 0.398650
H36   H     H_    0.229430 0.645090 0.027260 0.081020
O29   O     O_2   0.370714 0.740597 0.982541 -0.591022
H37   H     H_    0.436601 0.727398 0.601754 0.112734
C48   C     C_2   0.263340 0.886453 0.083219 0.795006
H38   H     H_    0.387474 0.914645 0.095209 0.070625
O30   O     O_2   0.152900 0.936666 0.052214 -0.628379
H39   H     H_    0.852427 0.942243 0.257404 0.214490
C49   C     C_2   0.908377 0.155082 0.724928 0.563328
H40   H     H_    0.893719 0.196028 0.666076 0.055935
O31   O     O_2   0.873324 0.071089 0.715561 -0.590284
H41   H     H_    0.034586 0.076202 0.886977 0.212593
C50   C     C_2   0.543963 0.276994 0.855277 0.697509
H42   H     H_    0.549318 0.344007 0.824956 0.029776
O32   O     O_2   0.613288 0.269831 0.932375 -0.561112
C51   C     C_2   0.399763 0.124686 0.946406 0.598683
H43   H     H_    0.460439 0.084098 0.000853 0.085339
O33   O     O_2   0.304400 0.185412 0.962946 -0.630022
H44   H     H_    0.548249 0.063745 0.856595 0.196256
H45   H     H_    0.300252 0.022275 0.618938 0.158807
H46   H     H_    0.174918 0.301685 0.550141 0.177188
H47   H     H_    0.100483 0.895263 0.585441 0.156961
C52   C     C_2   0.746194 0.511060 0.022988 0.581460
H48   H     H_    0.816005 0.573681 0.013419 0.095345
O34   O     O_2   0.780168 0.434826 0.990258 -0.515914
H49   H     H_    0.201551 0.453209 0.696836 0.170319
H50   H     H_    0.025124 0.912851 0.205674 0.257550
C53   C     C_2   0.801156 0.899364 0.115996 0.758881
H51   H     H_    0.829120 0.855331 0.059335 0.068902
O35   O     O_2   0.693328 0.956689 0.103344 -0.596733
H52   H     H_    0.825116 0.385758 0.275618 0.098907

loop_
_geom_bond_atom_site_label_1
_geom_bond_atom_site_label_2
_geom_bond_distance
_ccdc_geom_bond_type
P2    C39   1.847160 S    
C42   H27   1.082245 S    
C4    H52   1.111850 S    
C2    C3    1.542314 S    
C19   C20   1.392815 A    
P5    C32   1.840344 S    
C53   H51   1.087607 S    
C24   C30   1.411278 A    
C25   C29   1.406106 A    
C49   H40   1.082209 S    
C15   C50   1.510991 S    
C45   O27   1.221557 D    
C40   C41   1.421658 A    
C51   H43   1.092908 S    
C44   H30   1.085548 S    
O14   P8    1.755914 S    
O4    P6    1.543355 D    
Ba2   O20   2.806249 S    
P8    O24   1.751394 S    
P4    O12   1.518019 D    
C53   O35   1.220298 D    
C5    H7    1.113886 S    
P1    O1    1.517532 D    
H20   C16   1.114169 S    
C46   O28   1.213352 D    
C7    H9    1.108651 S    
C38   C42   1.394002 A    
C37   C41   1.433320 A    
Ba1   O13   2.801036 S    
C15   C16   1.556586 S    
C39   C42   1.387631 A    
C1    C48   1.513441 S    
P7    O21   1.576874 D    
C2    H3    1.100122 S    
O16   Ba2   2.919378 S    
C14   H18   1.111331 S    
C43   H28   1.085496 S    
C27   H46   1.082314 S    
O16   P7    1.757475 S    
O5    C6    1.398204 S    
C29   H45   1.083234 S    
C12   H14   1.107794 S    
C50   H42   1.085831 S    
P3    O11   1.757984 S    
C11   C12   1.522244 S    
C31   H49   1.082384 S    
P3    C38   1.850583 S    
P4    Ba2   3.393669 S    
O1    Ba1   2.836906 S    
C8    H31   1.111140 S    
O8    Ba1   2.777732 S    
C3    H39   1.116144 S    
C1    H2    1.108443 S    
C12   H15   1.109298 S    
C35   H26   1.077770 S    
C17   H47   1.080437 S    
C13   H16   1.108472 S    
C43   O25   1.221422 D    
P5    O17   1.754942 S    
C37   C38   1.403433 A    
C33   H24   1.078389 S    
C45   H32   1.090904 S    
C47   O29   1.225318 D    
O11   C2    1.413523 S    
C30   H23   1.078243 S    
P7    C36   1.831487 S    
C13   C14   1.535622 S    
P1    C18   1.865018 S    
C20   C21   1.398011 A    
P1    O5    1.744876 S    
C11   O22   1.403617 S    
P8    O23   1.542069 D    
P4    O15   1.746935 S    
C5    H6    1.106504 S    
C34   C35   1.416822 A    
C24   C26   1.436958 A    
C13   C49   1.511559 S    
P7    O22   1.750797 S    
C26   C27   1.394967 A    
C5    C43   1.503336 S    
C37   C52   1.471833 S    
C21   C22   1.408207 A    
H1    C10   1.112371 S    
P8    C28   1.833650 S    
C18   C23   1.434254 A    
P2    O20   1.571702 S    
O10   C8    1.399241 S    
P2    O10   1.747132 S    
C21   H22   1.082396 S    
C28   C29   1.397458 A    
P3    O9    1.546469 D    
P2    Ba1   3.396147 S    
P4    C26   1.862535 S    
C19   H21   1.082215 S    
C15   O24   1.413791 S    
C4    O15   1.392135 S    
C39   C40   1.403886 A    
C11   H12   1.110010 S    
C47   H36   1.087886 S    
C9    H34   1.109779 S    
C22   C23   1.422184 A    
C9    H33   1.106975 S    
C52   O34   1.222219 D    
O14   Ba2   2.775827 S    
Ba1   Ba2   4.576072 S    
C50   O32   1.223301 D    
P3    O8    1.740268 S    
C16   H44   1.110358 S    
Ba2   O21   2.842566 S    
C16   C51   1.510411 S    
P5    O18   1.542427 D    
C4    C5    1.532231 S    
P4    O13   1.567938 S    
C3    C53   1.504365 S    
C17   C23   1.411091 A    
O3    Ba1   2.776349 S    
C12   H13   1.109311 S    
C48   O30   1.221484 D    
C51   O33   1.222545 D    
C31   C36   1.387776 A    
C6    H8    1.105161 S    
C7    C44   1.502331 S    
C52   H48   1.086216 S    
C11   H37   1.111656 S    
P6    C20   1.842436 S    
C18   C19   1.397063 A    
C49   O31   1.222466 D    
C17   C25   1.412289 A    
C44   O26   1.220373 D    
C10   C46   1.490339 S    
O2    Ba2   2.801558 S    
C3    H50   1.104969 S    
O2    Ba1   2.920279 S    
C32   C33   1.406989 A    
C46   H35   1.084219 S    
O6    C10   1.412029 S    
C7    H10   1.111228 S    
P2    O7    1.517388 D    
Ba1   O16   2.806950 S    
C33   C34   1.423433 A    
C6    C7    1.522508 S    
C35   C36   1.394826 A    
C8    C9    1.525865 S    
C8    H11   1.102627 S    
C2    H4    1.103206 S    
C15   H19   1.109872 S    
C34   C41   1.518793 S    
C14   H17   1.109730 S    
O17   Ba2   2.778439 S    
O13   Ba2   2.920969 S    
C14   H41   1.112180 S    
C24   C25   1.422060 A    
C31   C32   1.389593 A    
C1    C10   1.549582 S    
O19   C13   1.408836 S    
C27   C28   1.390393 A    
P1    Ba1   3.393107 S    
C1    C47   1.512511 S    
P5    O19   1.752940 S    
C4    H5    1.106901 S    
O7    Ba1   2.842241 S    
C6    H29   1.105620 S    
P1    O2    1.567958 S    
O12   Ba2   2.837368 S    
C22   C30   1.412772 A    
C40   H25   1.077995 S    
C9    C45   1.497032 S    
Ba1   O20   2.920161 S    
O6    P6    1.766777 S    
C48   H38   1.084617 S    
O3    P6    1.763761 S    
