data_mof_unit_18766.cif
_audit_creation_date              2012-12-10T17:35:38-0500
_audit_creation_method            fapswitch 2.2
_symmetry_space_group_name_H-M    P1
_symmetry_Int_Tables_number       1
_space_group_crystal_system       triclinic
_cell_length_a                    10.74566
_cell_length_b                    12.298547
_cell_length_c                    13.19608
_cell_angle_alpha                 116.554522
_cell_angle_beta                  77.165038
_cell_angle_gamma                 102.111469
_cell_volume                      1508.73609714

loop_
_atom_site_label
_atom_site_type_symbol
_atom_type_description
_atom_site_fract_x
_atom_site_fract_y
_atom_site_fract_z
_atom_type_partial_charge
C1    C     C_R   0.504695 0.854785 0.287359 0.838713
C2    C     C_3   0.122130 0.003001 0.501076 -0.110937
C3    C     C_3   0.041098 0.997137 0.612035 -0.577803
C4    C     C_3   0.072278 0.891463 0.395988 -0.339966
C5    C     C_R   0.344742 0.263210 0.025242 0.522733
C6    C     C_R   0.457462 0.226907 0.834924 -0.123051
C7    C     C_R   0.559275 0.817821 0.084656 -0.193397
C8    C     C_R   0.574105 0.740930 0.969095 -0.155189
C9    C     C_R   0.535226 0.616183 0.932888 -0.153419
C10   C     C_R   0.474619 0.565667 0.012144 0.038722
C11   C     C_R   0.439990 0.646933 0.128578 -0.024060
C12   C     C_R   0.739976 0.002523 0.502608 0.814003
C13   C     C_R   0.446521 0.437121 0.978561 0.003070
C14   C     C_R   0.373080 0.390958 0.057399 -0.015424
C15   C     C_R   0.322644 0.471925 0.165283 -0.333884
C16   C     C_R   0.350169 0.600206 0.201987 0.481321
C17   C     C_R   0.491367 0.352659 0.868721 -0.252673
C18   C     C_R   0.388487 0.182099 0.914206 -0.283993
C19   C     C_R   0.496584 0.772467 0.165899 -0.095936
C20   C     C_R   0.698358 0.343582 0.321734 -0.289803
C21   C     C_R   0.327661 0.758996 0.647189 0.055999
C22   C     C_R   0.292220 0.662702 0.680345 -0.267096
C23   C     C_R   0.482586 0.145136 0.713534 0.795811
C24   C     C_R   0.357963 0.560117 0.625471 -0.190946
C25   C     C_R   0.460583 0.552117 0.535733 -0.028515
C26   C     C_R   0.493787 0.653506 0.505095 0.224236
C27   C     C_R   0.531013 0.447762 0.475289 -0.114277
C28   C     C_R   0.630473 0.445637 0.383606 0.074864
C29   C     C_R   0.660926 0.544926 0.353918 0.419479
C30   C     C_R   0.596302 0.647552 0.416259 -0.236440
C31   C     C_R   0.506964 0.344081 0.501014 0.019385
C32   C     C_R   0.668019 0.244237 0.349934 0.052784
C33   C     C_R   0.259854 0.000442 0.500385 0.855825
C34   C     C_3   0.958418 0.132645 0.514074 0.357569
C35   C     C_3   0.104016 0.123509 0.496148 0.360537
C36   C     C_3   0.895850 0.984212 0.607308 0.235041
C37   C     C_3   0.932991 0.900177 0.389473 0.341427
C38   C     C_3   0.878906 0.004957 0.502416 -0.125676
Cu1   Cu    Cu3+1 0.529690 0.098270 0.475420 0.953706
Cu2   Cu    Cu3+1 0.470310 0.901730 0.524580 0.940933
H1    H     H_    0.930973 0.199165 0.604654 -0.050717
H2    H     H_    0.072292 0.805769 0.404177 0.176110
H3    H     H_    0.061741 0.918691 0.623574 0.231190
H4    H     H_    0.364616 0.084361 0.889338 0.165691
H5    H     H_    0.599818 0.913094 0.110498 0.156805
H6    H     H_    0.620845 0.777546 0.907238 0.128504
H7    H     H_    0.774343 0.339772 0.251279 0.178766
H8    H     H_    0.433882 0.338312 0.569596 0.121852
H9    H     H_    0.276279 0.838294 0.690528 0.117150
H10   H     H_    0.213494 0.667637 0.748994 0.142455
H11   H     H_    0.630507 0.720410 0.390773 0.209287
H12   H     H_    0.852036 0.058078 0.686678 0.068619
H13   H     H_    0.068089 0.081800 0.687799 0.128913
H14   H     H_    0.872922 0.811885 0.383516 0.133715
H15   H     H_    0.136829 0.884854 0.315320 0.224438
N1    N     N_R   0.574690 0.246280 0.438200 -0.181545
N2    N     N_R   0.426100 0.754320 0.561190 -0.185788
O1    O     O_R   0.537340 0.972510 0.318130 -0.585958
O2    O     O_R   0.487200 0.806530 0.359650 -0.569118
O3    O     O_R   0.707380 0.082980 0.479220 -0.534525
O4    O     O_R   0.657240 0.917000 0.520740 -0.579860
O5    O     O_R   0.512800 0.193470 0.640350 -0.604448
O6    O     O_R   0.462660 0.027490 0.681870 -0.597356
O7    O     O_R   0.342760 0.083000 0.479260 -0.568739
O8    O     O_R   0.292620 0.917020 0.520780 -0.585580
O9    O     O_3   0.837692 0.864945 0.595913 -0.547684
C39   C     C_3   0.781561 0.866110 0.703657 -0.289421
H16   H     H_    0.697921 0.919107 0.740063 0.170635
H17   H     H_    0.853138 0.903677 0.764249 0.139531
H18   H     H_    0.745474 0.770499 0.692103 0.177953
H19   H     H_    0.257836 0.432711 0.218921 0.181942
O10   O     O_3   0.278903 0.217629 0.103834 -0.593978
C40   C     C_3   0.150963 0.174421 0.081759 -0.356082
H20   H     H_    0.102228 0.248112 0.085911 0.153034
H21   H     H_    0.096722 0.144236 0.148676 0.229640
H22   H     H_    0.146594 0.093879 0.997577 0.159376
H23   H     H_    0.552995 0.381998 0.806866 0.155519
H24   H     H_    0.551408 0.562303 0.841678 0.123688
O11   O     O_3   0.933609 0.171024 0.434170 -0.480268
C41   C     C_3   0.922280 0.297756 0.486458 -0.299027
H25   H     H_    0.829527 0.315681 0.544901 0.177391
H26   H     H_    0.923767 0.328226 0.418754 0.172801
H27   H     H_    0.003583 0.353324 0.534323 0.119718
O12   O     O_3   0.280734 0.681921 0.300134 -0.572380
C42   C     C_3   0.212424 0.630888 0.377032 -0.282705
H28   H     H_    0.274069 0.582118 0.395965 0.153995
H29   H     H_    0.124436 0.570434 0.343955 0.151950
H30   H     H_    0.179812 0.704878 0.459967 0.196442
H31   H     H_    0.719426 0.165223 0.301699 0.158058
O13   O     O_3   0.760703 0.545592 0.267316 -0.595004
C43   C     C_3   0.707811 0.514305 0.167642 -0.376084
H32   H     H_    0.649839 0.585169 0.179619 0.163044
H33   H     H_    0.648463 0.422833 0.141239 0.181658
H34   H     H_    0.787660 0.509544 0.096764 0.189004
H35   H     H_    0.326104 0.488464 0.654735 0.127626
O14   O     O_3   0.164892 0.120320 0.387185 -0.512682
C44   C     C_3   0.223029 0.236629 0.391705 -0.124915
H36   H     H_    0.321150 0.227188 0.342162 0.189181
H37   H     H_    0.231867 0.310359 0.478821 0.076403
H38   H     H_    0.168004 0.266600 0.348975 0.183793
H39   H     H_    0.146593 0.201852 0.569208 -0.004205
O15   O     O_3   0.931976 0.925491 0.294592 -0.511239
C45   C     C_3   0.887296 0.819088 0.202810 -0.302163
H40   H     H_    0.945396 0.743452 0.177320 0.172384
H41   H     H_    0.896612 0.840419 0.127994 0.183246
H42   H     H_    0.783801 0.789919 0.225449 0.146293

loop_
_geom_bond_atom_site_label_1
_geom_bond_atom_site_label_2
_ccdc_geom_bond_type
C2    C35   S    
C30   H11   S    
C40   H20   S    
C21   H9    S    
C44   H36   S    
C33   O8    A    
C7    C8    A    
C35   O14   S    
Cu1   O7    S    
C11   C19   A    
C29   C30   A    
Cu2   O6    S    
C7    H5    S    
C28   C29   A    
C5    O10   S    
C1    O2    A    
C37   O15   S    
C36   O9    S    
Cu1   O3    S    
C15   C16   A    
C16   O12   S    
C34   C35   S    
Cu1   O5    S    
C23   O5    A    
C32   H31   S    
C8    C9    A    
C31   N1    A    
C9    C10   A    
C36   H12   S    
C22   H10   S    
C23   O6    A    
O9    C39   S    
Cu2   O2    S    
C21   C22   A    
C40   H21   S    
C34   H1    S    
C41   H27   S    
C29   O13   S    
C44   H37   S    
C42   H29   S    
C6    C18   A    
C1    C19   S    
C27   C31   A    
C39   H16   S    
C24   C25   A    
C41   H26   S    
C24   H35   S    
C43   H32   S    
C41   H25   S    
C5    C18   A    
C20   C28   A    
C25   C26   A    
C42   H28   S    
Cu1   O1    S    
Cu2   O4    S    
C39   H17   S    
C2    C4    S    
C21   N2    A    
C37   C38   S    
C18   H4    S    
C34   O11   S    
C43   H33   S    
C11   C16   A    
Cu1   N1    S    
C3    H3    S    
O14   C44   S    
C17   H23   S    
C45   H41   S    
O12   C42   S    
C5    C14   A    
C37   H14   S    
C2    C33   S    
C26   C30   A    
C7    C19   A    
C31   H8    S    
C4    H15   S    
C40   H22   S    
C22   C24   A    
Cu1   Cu2   S    
C44   H38   S    
C20   C32   A    
C42   H30   S    
C6    C17   A    
Cu2   N2    S    
C34   C38   S    
O10   C40   S    
C35   H39   S    
C10   C13   A    
C25   C27   A    
C15   H19   S    
C13   C17   A    
Cu2   O8    S    
C39   H18   S    
C36   C38   S    
C2    C3    S    
C1    O1    A    
C43   H34   S    
C12   O4    A    
C3    H13   S    
O13   C43   S    
C4    H2    S    
C3    C36   S    
C33   O7    A    
C6    C23   S    
C45   H42   S    
C9    H24   S    
C12   C38   S    
O15   C45   S    
C26   N2    A    
C8    H6    S    
C20   H7    S    
C10   C11   A    
O11   C41   S    
C12   O3    A    
C4    C37   S    
C45   H40   S    
C14   C15   A    
C13   C14   A    
C32   N1    A    
C27   C28   A    
