data_mof_unit_54197.cif
_audit_creation_date              2012-12-10T19:07:36-0500
_audit_creation_method            fapswitch 2.2
_symmetry_space_group_name_H-M    P1
_symmetry_Int_Tables_number       1
_space_group_crystal_system       triclinic
_cell_length_a                    10.826065
_cell_length_b                    10.859437
_cell_length_c                    9.557882
_cell_angle_alpha                 90.452084
_cell_angle_beta                  90.177806
_cell_angle_gamma                 91.116722
_cell_volume                      1123.41776235

loop_
_atom_site_label
_atom_site_type_symbol
_atom_type_description
_atom_site_fract_x
_atom_site_fract_y
_atom_site_fract_z
_atom_type_partial_charge
C1    C     C_R   0.496313 0.262575 0.499551 0.809609
C2    C     C_R   0.936831 0.508208 0.625930 0.112192
C3    C     C_3   0.929234 0.416460 0.741436 -0.454739
C4    C     C_3   0.069399 0.417714 0.742074 -0.464043
C5    C     C_R   0.490186 0.065375 0.623758 0.092013
C6    C     C_R   0.480476 0.129973 0.499387 -0.134981
C7    C     C_R   0.446415 0.065224 0.377157 -0.224302
C8    C     C_R   0.442227 0.936097 0.376112 -0.047102
C9    C     C_R   0.475779 0.871076 0.499038 -0.148069
C10   C     C_R   0.487611 0.938604 0.623684 0.106854
C11   C     C_3   0.581079 0.934217 0.738655 -0.509149
C12   C     C_R   0.262406 0.501705 0.499952 0.804577
C13   C     C_3   0.586329 0.074017 0.735789 -0.216262
C14   C     C_R   0.602971 0.536135 0.074193 0.252780
C15   C     C_R   0.407011 0.443447 0.072063 0.058135
C16   C     C_R   0.405830 0.446849 0.923551 -0.078560
C17   C     C_R   0.604120 0.533196 0.927243 0.256051
C18   C     C_3   0.674056 0.651946 0.920937 -0.510841
C19   C     C_3   0.669826 0.657182 0.079786 -0.487027
C20   C     C_R   0.493966 0.737762 0.499923 0.794992
C21   C     C_R   0.737673 0.501422 0.500108 0.798001
C22   C     C_R   0.064083 0.508766 0.625927 0.129079
C23   C     C_R   0.129485 0.512595 0.500237 -0.092157
C24   C     C_R   0.064739 0.532004 0.375000 -0.188426
C25   C     C_R   0.936063 0.530845 0.374976 -0.212895
C26   C     C_R   0.871089 0.511679 0.500324 -0.097038
Cu1   Cu    Cu3+1 0.499990 0.499980 0.640670 0.950585
Cu2   Cu    Cu3+1 0.500010 0.500020 0.359330 0.969755
H1    H     H_    0.112716 0.542309 0.276400 0.172442
H2    H     H_    0.668742 0.891120 0.705491 0.187960
H3    H     H_    0.676012 0.113805 0.699622 0.141095
H4    H     H_    0.330417 0.403636 0.865797 0.139544
H5    H     H_    0.768697 0.641066 0.878631 0.192745
H6    H     H_    0.619426 0.722711 0.869864 0.221423
H7    H     H_    0.762595 0.651146 0.128426 0.186265
H8    H     H_    0.612088 0.732542 0.121069 0.228642
H9    H     H_    0.888198 0.539098 0.276219 0.157959
H10   H     H_    0.889448 0.455765 0.838625 0.194022
H11   H     H_    0.887472 0.326778 0.707104 0.195957
H12   H     H_    0.109701 0.458878 0.839208 0.194551
H13   H     H_    0.109426 0.328582 0.708973 0.199005
H14   H     H_    0.427097 0.114621 0.281612 0.190766
H15   H     H_    0.538371 0.897560 0.835700 0.206968
N1    N     N_R   0.500790 0.500930 0.147930 -0.206291
N2    N     N_R   0.500790 0.500890 0.852020 -0.190349
O1    O     O_R   0.500000 0.319640 0.618810 -0.583850
O2    O     O_R   0.500010 0.319680 0.381230 -0.574548
O3    O     O_R   0.319650 0.499970 0.618810 -0.588940
O4    O     O_R   0.319660 0.500010 0.381230 -0.581082
O5    O     O_R   0.499990 0.680320 0.618770 -0.573493
O6    O     O_R   0.500000 0.680360 0.381190 -0.578157
O7    O     O_R   0.680340 0.499990 0.618770 -0.581948
O8    O     O_R   0.680350 0.500030 0.381190 -0.585388
C27   C     C_1   0.540085 0.130219 0.865458 0.318662
N3    N     N_1   0.504103 0.173428 0.968173 -0.319528
C28   C     C_1   0.312289 0.370427 0.138830 0.291915
N4    N     N_1   0.236003 0.310426 0.190823 -0.306804
C29   C     C_1   0.405070 0.875196 0.247280 0.277611
N5    N     N_1   0.374831 0.826871 0.144006 -0.296183

loop_
_geom_bond_atom_site_label_1
_geom_bond_atom_site_label_2
_ccdc_geom_bond_type
Cu1   O3    S    
C2    C22   A    
C23   C24   A    
Cu2   O2    S    
C11   H15   S    
C6    C7    A    
C16   H4    S    
C4    C22   S    
Cu2   O4    S    
C9    C20   S    
C5    C13   S    
C17   N2    A    
C14   C17   A    
Cu1   O5    S    
C12   O3    A    
C4    H12   S    
C10   C11   S    
C15   C28   S    
Cu1   N2    S    
C17   C18   S    
C29   N5    T    
C3    H11   S    
C5    C10   A    
C2    C26   A    
C19   H7    S    
C24   C25   A    
Cu2   O8    S    
C21   O8    A    
C11   C13   S    
C12   C23   S    
Cu1   O1    S    
Cu2   O6    S    
C21   C26   S    
Cu2   N1    S    
C15   N1    A    
C2    C3    S    
C20   O6    A    
C19   H8    S    
C18   H6    S    
C5    C6    A    
C18   H5    S    
C1    O1    A    
C12   O4    A    
C4    H13   S    
C16   N2    A    
C15   C16   A    
C21   O7    A    
C7    C8    A    
Cu1   O7    S    
C11   H2    S    
C14   N1    A    
C13   C27   S    
C9    C10   A    
C7    H14   S    
Cu1   Cu2   S    
C28   N4    T    
C27   N3    T    
C18   C19   S    
C20   O5    A    
C8    C29   S    
C25   C26   A    
C24   H1    S    
C14   C19   S    
C13   H3    S    
C22   C23   A    
C1    O2    A    
C3    C4    S    
C1    C6    S    
C3    H10   S    
C25   H9    S    
C8    C9    A    
