data_mof_unit_68066.cif
_audit_creation_date              2013-03-05T15:43:54-0500
_audit_creation_method            fapswitch 2.2
_symmetry_space_group_name_H-M    P1
_symmetry_Int_Tables_number       1
_space_group_crystal_system       triclinic
_cell_length_a                    7.319569
_cell_length_b                    14.747744
_cell_length_c                    16.568073
_cell_angle_alpha                 89.99905
_cell_angle_beta                  98.213091
_cell_angle_gamma                 89.998902
_cell_volume                      1770.13263207

loop_
_atom_site_label
_atom_site_type_symbol
_atom_site_description
_atom_site_fract_x
_atom_site_fract_y
_atom_site_fract_z
_atom_type_partial_charge
O1    O     O_R   0.525340 0.338340 0.164530 -0.485005
O2    O     O_R   0.474660 0.661660 0.835470 -0.484995
O3    O     O_R   0.974660 0.838340 0.835470 -0.485029
O4    O     O_R   0.025340 0.161660 0.164530 -0.484950
O5    O     O_R   0.253520 0.352000 0.336710 -0.596774
O6    O     O_R   0.746480 0.648000 0.663290 -0.596738
O7    O     O_R   0.246480 0.852000 0.663290 -0.596736
O8    O     O_R   0.753520 0.148000 0.336710 -0.596759
O9    O     O_R   0.083330 0.168380 0.337300 -0.555684
O10   O     O_R   0.916670 0.831620 0.662700 -0.555667
O11   O     O_R   0.416670 0.668380 0.662700 -0.555665
O12   O     O_R   0.583330 0.331620 0.337300 -0.555673
C1    C     C_R   0.434958 0.371637 0.361772 0.805896
C2    C     C_R   0.565038 0.628362 0.638225 0.805889
C3    C     C_R   0.065037 0.871633 0.638222 0.805903
C4    C     C_R   0.934962 0.128358 0.361767 0.805910
O13   O     O_R   0.195840 0.349670 0.165140 -0.551360
O14   O     O_R   0.804160 0.650330 0.834860 -0.551374
O15   O     O_R   0.304160 0.849670 0.834860 -0.551407
O16   O     O_R   0.695840 0.150330 0.165140 -0.551336
C5    C     C_R   0.357358 0.372231 0.138944 0.936189
C6    C     C_R   0.642650 0.627790 0.861071 0.936178
C7    C     C_R   0.142643 0.872221 0.861060 0.936216
C8    C     C_R   0.857367 0.127771 0.138944 0.936123
O17   O     O_3   0.387830 0.193120 0.250910 -0.274570
O18   O     O_3   0.612170 0.806880 0.749090 -0.274627
O19   O     O_3   0.112170 0.693120 0.749090 -0.274575
O20   O     O_3   0.887830 0.306880 0.250910 -0.274620
V1    V     V_3+5 0.113010 0.264540 0.250910 1.196256
V2    V     V_3+5 0.886990 0.735460 0.749090 1.196281
V3    V     V_3+5 0.386990 0.764540 0.749090 1.196256
V4    V     V_3+5 0.613010 0.235460 0.250910 1.196278
H1    H     H_    0.044863 0.830366 0.258080 0.150057
H2    H     H_    0.955191 0.169621 0.741903 0.149805
H3    H     H_    0.454932 0.330345 0.741885 0.149929
H4    H     H_    0.544520 0.669612 0.258034 0.149955
C9    C     C_R   0.984328 0.193499 0.540183 -0.013594
C10   C     C_R   0.015686 0.806493 0.459796 -0.013577
C11   C     C_R   0.515664 0.693500 0.459793 -0.013599
C12   C     C_R   0.484300 0.306491 0.540188 -0.013570
C13   C     C_R   0.986377 0.216154 0.624052 0.292491
C14   C     C_R   0.013636 0.783836 0.375926 0.292486
C15   C     C_R   0.513552 0.716156 0.375916 0.292502
C16   C     C_R   0.486287 0.283829 0.624052 0.292493
C17   C     C_R   0.971972 0.149919 0.680374 0.016172
C18   C     C_R   0.028057 0.850072 0.319607 0.016122
C19   C     C_R   0.527811 0.649914 0.319577 0.016251
C20   C     C_R   0.471826 0.350062 0.680371 0.015986
C21   C     C_R   0.959779 0.060155 0.659745 0.175406
C22   C     C_R   0.040240 0.939836 0.340239 0.175392
C23   C     C_R   0.540066 0.560154 0.340220 0.175400
C24   C     C_R   0.459711 0.439833 0.659750 0.175336
C25   C     C_R   0.989198 0.029595 0.580984 -0.019463
C26   C     C_R   0.010808 0.970395 0.418998 -0.019471
C27   C     C_R   0.510749 0.529599 0.418998 -0.019465
C28   C     C_R   0.489182 0.470396 0.580992 -0.019450
C29   C     C_R   0.984494 0.096948 0.517094 -0.066595
C30   C     C_R   0.015516 0.903042 0.482888 -0.066594
C31   C     C_R   0.515489 0.596951 0.482889 -0.066591
C32   C     C_R   0.484479 0.403044 0.517101 -0.066581
C33   C     C_R   0.019027 0.934899 0.565880 -0.093439
C34   C     C_R   0.980977 0.065090 0.434103 -0.093412
C35   C     C_R   0.480959 0.434903 0.434109 -0.093418
C36   C     C_R   0.519026 0.565092 0.565886 -0.093443
C37   C     C_2   0.145281 0.950193 0.920620 -0.063107
C38   C     C_2   0.854788 0.049793 0.079384 -0.063046
C39   C     C_2   0.354732 0.450201 0.079370 -0.062977
C40   C     C_2   0.645282 0.549817 0.920631 -0.063261
C41   C     C_2   0.020255 0.956744 0.975858 0.238657
C42   C     C_2   0.979914 0.043231 0.024189 0.238779
C43   C     C_2   0.479849 0.456754 0.024173 0.238883
C44   C     C_2   0.520232 0.543249 0.975860 0.238725
C45   C     C_3   0.994668 0.268925 0.477190 -0.199219
C46   C     C_3   0.987179 0.367965 0.499500 -0.272052
C47   C     C_3   0.978543 0.430131 0.425485 -0.330203
H5    H     H_    0.108272 0.468835 0.426370 0.150324
H6    H     H_    0.950297 0.393443 0.367777 0.231927
H7    H     H_    0.862649 0.477219 0.425183 0.153153
H8    H     H_    0.859825 0.380146 0.526759 0.183550
H9    H     H_    0.114814 0.383466 0.541116 0.184963
H10   H     H_    0.122922 0.260431 0.453077 0.136703
H11   H     H_    0.880815 0.263599 0.427955 0.127692
C48   C     C_3   0.005360 0.731074 0.522792 -0.199235
C49   C     C_3   0.012814 0.632034 0.500481 -0.272032
C50   C     C_3   0.021446 0.569874 0.574501 -0.330198
H12   H     H_    0.049685 0.606567 0.632207 0.231912
H13   H     H_    0.891718 0.531166 0.573613 0.150332
H14   H     H_    0.137344 0.522787 0.574811 0.153119
H15   H     H_    0.885167 0.616543 0.458866 0.184985
H16   H     H_    0.140156 0.619843 0.473216 0.183525
H17   H     H_    0.119215 0.736402 0.572025 0.127653
H18   H     H_    0.877122 0.739579 0.546916 0.136683
C51   C     C_3   0.505356 0.768921 0.522789 -0.199240
C52   C     C_3   0.512827 0.867961 0.500480 -0.272057
C53   C     C_3   0.521453 0.930119 0.574498 -0.330204
H19   H     H_    0.391712 0.968818 0.573615 0.150348
H20   H     H_    0.549715 0.893428 0.632205 0.231913
H21   H     H_    0.637336 0.977211 0.574803 0.153121
H22   H     H_    0.640181 0.880146 0.473224 0.183560
H23   H     H_    0.385195 0.883459 0.458860 0.184954
H24   H     H_    0.377120 0.760424 0.546915 0.136677
H25   H     H_    0.619210 0.763589 0.572020 0.127668
C54   C     C_3   0.494665 0.231070 0.477195 -0.199240
C55   C     C_3   0.487193 0.132030 0.499505 -0.272051
C56   C     C_3   0.478570 0.069870 0.425490 -0.330204
H26   H     H_    0.450317 0.106560 0.367782 0.231918
H27   H     H_    0.608304 0.031164 0.426378 0.150337
H28   H     H_    0.362676 0.022783 0.425185 0.153115
H29   H     H_    0.614825 0.116534 0.541126 0.184970
H30   H     H_    0.359835 0.119845 0.526758 0.183555
H31   H     H_    0.380816 0.236395 0.427958 0.127682
H32   H     H_    0.622923 0.239570 0.453086 0.136696
Br1   Br    Br    0.992236 0.333267 0.675788 -0.717672
Br2   Br    Br    0.007773 0.666723 0.324181 -0.717499
Br3   Br    Br    0.507858 0.833279 0.324193 -0.717510
Br4   Br    Br    0.492150 0.166709 0.675791 -0.717649
Br5   Br    Br    0.841152 0.996499 0.738373 -0.600566
Br6   Br    Br    0.158877 0.003502 0.261623 -0.600483
Br7   Br    Br    0.658868 0.496515 0.261649 -0.600597
Br8   Br    Br    0.341126 0.503506 0.738384 -0.600380
Br9   Br    Br    0.062088 0.160474 0.991119 -0.649890
Br10  Br    Br    0.938350 0.839486 0.009023 -0.649782
Br11  Br    Br    0.438203 0.660487 0.009006 -0.649791
Br12  Br    Br    0.561850 0.339486 0.991072 -0.649828
C57   C     C_3   0.687230 0.989949 0.073371 -0.279027
C58   C     C_3   0.686523 0.923866 0.144314 -0.171160
C59   C     C_3   0.520043 0.860569 0.126375 -0.268017
H33   H     H_    0.394097 0.894292 0.142137 0.195578
H34   H     H_    0.494277 0.842026 0.060903 0.183982
H35   H     H_    0.545729 0.796834 0.161548 0.190766
H36   H     H_    0.814899 0.883239 0.153181 0.185556
H37   H     H_    0.678948 0.961656 0.201799 0.174557
H38   H     H_    0.565343 0.033884 0.072596 0.134978
H39   H     H_    0.669351 0.953970 0.014832 0.162465
C60   C     C_3   0.312832 0.010038 0.926578 -0.278984
C61   C     C_3   0.313346 0.076142 0.855642 -0.171059
C62   C     C_3   0.479699 0.139518 0.873556 -0.268239
H40   H     H_    0.505500 0.158051 0.939027 0.184093
H41   H     H_    0.605683 0.105871 0.857760 0.195534
H42   H     H_    0.453833 0.203247 0.838396 0.190656
H43   H     H_    0.320926 0.038373 0.798144 0.174557
H44   H     H_    0.184889 0.116705 0.846811 0.185523
H45   H     H_    0.330809 0.045994 0.985122 0.162488
H46   H     H_    0.434751 0.966129 0.927313 0.135003
C63   C     C_3   0.812665 0.489870 0.926478 -0.278939
C64   C     C_3   0.812664 0.423792 0.855500 -0.171380
C65   C     C_3   0.978483 0.360092 0.873345 -0.268253
H47   H     H_    0.104654 0.393430 0.857436 0.195877
H48   H     H_    0.004362 0.341588 0.938814 0.184373
H49   H     H_    0.951909 0.296393 0.838225 0.190384
H50   H     H_    0.683896 0.383483 0.846665 0.185436
H51   H     H_    0.820491 0.461561 0.798024 0.174557
H52   H     H_    0.934724 0.533670 0.927145 0.135118
H53   H     H_    0.830700 0.453893 0.985014 0.162399
C66   C     C_3   0.187084 0.510002 0.073313 -0.278839
C67   C     C_3   0.186206 0.576071 0.144254 -0.171231
C68   C     C_3   0.019589 0.639290 0.126319 -0.267995
H54   H     H_    0.993682 0.657797 0.060840 0.183859
H55   H     H_    0.893754 0.605528 0.142139 0.195548
H56   H     H_    0.045193 0.703045 0.161458 0.190824
H57   H     H_    0.178709 0.538267 0.201741 0.174525
H58   H     H_    0.314493 0.616761 0.153122 0.185552
H59   H     H_    0.169199 0.545992 0.014774 0.162545
H60   H     H_    0.065245 0.466029 0.072503 0.134941

loop_
_geom_bond_atom_site_label_1
_geom_bond_atom_site_label_2
_geom_bond_distance
_ccdc_geom_bond_type
C57   H39   1.096861 S    
O1    C5    1.338794 A    
C68   H54   1.108405 S    
C12   C32   1.474459 A    
C27   C31   1.448403 A    
C10   C48   1.534505 S    
O13   V1    2.051654 S    
C45   C46   1.509589 S    
C56   H26   1.092329 S    
O3    C7    1.338786 A    
C53   H19   1.106237 S    
C11   C31   1.474443 A    
O15   V3    2.051667 S    
C63   C64   1.527274 S    
C53   H21   1.095730 S    
C29   C34   1.449801 A    
C50   H12   1.092339 S    
C48   H18   1.078755 S    
C62   H41   1.110865 S    
C31   C36   1.449872 A    
C51   C52   1.509560 S    
C4    C34   1.518218 S    
C32   C35   1.449809 A    
C41   Br10  1.935435 S    
C39   C66   1.502820 S    
C67   C68   1.530121 S    
C65   H48   1.108245 S    
O9    C4    1.348288 A    
C10   C14   1.427170 A    
O10   C3    1.348299 A    
C26   C30   1.448391 A    
C55   H29   1.102922 S    
O4    C8    1.338752 A    
O11   C2    1.348301 A    
C37   C41   1.386960 D    
H4    C19   1.083800 S    
C54   H31   1.082511 S    
C14   C18   1.365326 A    
C11   C51   1.534526 S    
C61   H44   1.106351 S    
C65   H47   1.110700 S    
C15   Br3   1.925984 S    
C10   C30   1.474440 A    
C25   C33   1.440920 A    
C14   Br2   1.925979 S    
C21   Br5   1.911931 S    
O16   C8    1.357760 A    
C27   C35   1.440899 A    
O2    C6    1.338777 A    
C23   Br7   1.911814 S    
C28   C36   1.440964 A    
O14   V2    2.051653 S    
C52   H23   1.102918 S    
C12   C16   1.427151 A    
O5    C1    1.364719 A    
O4    V1    2.121259 S    
C8    C38   1.513718 S    
C63   H52   1.101257 S    
O17   V4    1.762546 S    
O7    C3    1.364743 A    
O11   V3    2.048386 S    
O18   V3    1.762546 S    
C68   H55   1.110838 S    
C46   H9    1.102921 S    
C5    C39   1.513728 S    
O19   V2    1.762523 S    
H1    C18   1.083775 S    
C52   C53   1.525171 S    
C49   H16   1.107009 S    
H3    C20   1.083769 S    
C45   H10   1.078761 S    
C55   C56   1.525154 S    
C56   H28   1.095740 S    
O5    V1    2.079572 S    
C50   H13   1.106242 S    
C62   H42   1.107694 S    
O7    V3    2.079518 S    
C46   C47   1.525157 S    
O8    V4    2.079517 S    
C43   Br12  1.935462 S    
C60   C61   1.527391 S    
C65   H49   1.107516 S    
C49   C50   1.525183 S    
C51   H24   1.078755 S    
C25   C29   1.448405 A    
C19   C23   1.366963 A    
C26   C34   1.440916 A    
C23   C27   1.425717 A    
C66   H59   1.096913 S    
O1    V4    2.121207 S    
O13   C5    1.357711 A    
C28   C32   1.448435 A    
O2    V3    2.121205 S    
O3    V2    2.121257 S    
O15   C7    1.357691 A    
C47   H5    1.106231 S    
C59   H34   1.108415 S    
C61   H43   1.111726 S    
O6    C2    1.364760 A    
C56   H27   1.106242 S    
O10   V2    2.048359 S    
C48   C49   1.509573 S    
C1    C35   1.518235 S    
C17   C21   1.366949 A    
C40   C44   1.386992 D    
C2    C36   1.518306 S    
C3    C33   1.518270 S    
H2    C17   1.083742 S    
C22   C26   1.425683 A    
C47   H6    1.092318 S    
C6    C40   1.513604 S    
C37   C60   1.502734 S    
C64   H51   1.111716 S    
C63   H53   1.096768 S    
C24   Br8   1.911972 S    
C60   H46   1.101238 S    
O6    V2    2.079571 S    
C67   H57   1.111720 S    
C68   H56   1.107691 S    
C46   H8    1.107010 S    
C44   Br11  1.935382 S    
C57   C58   1.527434 S    
C49   H15   1.102941 S    
C59   H33   1.110920 S    
C45   H11   1.082508 S    
C66   C67   1.527446 S    
C64   C65   1.529867 S    
O16   V4    2.051669 S    
C50   H14   1.095735 S    
C57   H38   1.101199 S    
C9    C45   1.534560 S    
O20   V1    1.762523 S    
C22   Br6   1.911895 S    
C13   Br1   1.925925 S    
C61   C62   1.530069 S    
C51   H25   1.082475 S    
C11   C15   1.427213 A    
C53   H20   1.092333 S    
O9    V1    2.048358 S    
C66   H60   1.101213 S    
C48   H17   1.082509 S    
C62   H40   1.108374 S    
C18   C22   1.366976 A    
C38   C57   1.502716 S    
C52   H22   1.106992 S    
C7    C37   1.513621 S    
O14   C6    1.357700 A    
C59   H35   1.107747 S    
C43   C44   1.556557 S    
C12   C54   1.534548 S    
C55   H30   1.106997 S    
C42   Br9   1.935412 S    
C38   C42   1.386981 D    
C58   H36   1.106369 S    
C30   C33   1.449830 A    
C58   C59   1.530105 S    
C21   C25   1.425703 A    
C60   H45   1.096752 S    
C39   C43   1.386950 D    
C9    C13   1.427155 A    
C41   C42   1.556542 S    
C47   H7    1.095746 S    
C9    C29   1.474458 A    
C58   H37   1.111709 S    
C67   H58   1.106360 S    
C64   H50   1.106245 S    
C16   C20   1.365366 A    
C20   C24   1.366993 A    
O12   C1    1.348300 A    
C16   Br4   1.926005 S    
O8    C4    1.364739 A    
C54   C55   1.509562 S    
C13   C17   1.365342 A    
C54   H32   1.078766 S    
C15   C19   1.365442 A    
O12   V4    2.048385 S    
C40   C63   1.502693 S    
C24   C28   1.425757 A    
