data_mof_unit_41348.cif
_audit_creation_date              2013-03-05T15:42:20-0500
_audit_creation_method            fapswitch 2.2
_symmetry_space_group_name_H-M    P1
_symmetry_Int_Tables_number       1
_space_group_crystal_system       triclinic
_cell_length_a                    16.842841
_cell_length_b                    16.731291
_cell_length_c                    19.670836
_cell_angle_alpha                 116.544557
_cell_angle_beta                  62.250965
_cell_angle_gamma                 100.860425
_cell_volume                      4387.30074669

loop_
_atom_site_label
_atom_site_type_symbol
_atom_site_description
_atom_site_fract_x
_atom_site_fract_y
_atom_site_fract_z
_atom_type_partial_charge
C1    C     C_R   0.029002 0.760439 0.020997 -0.130749
H1    H     H_    0.062839 0.810837 0.055472 0.105058
N1    N     N_R   0.036080 0.671900 0.995420 -0.050592
C2    C     C_R   0.748510 0.478453 0.169923 -0.126396
H2    H     H_    0.696357 0.458606 0.149051 0.103691
N2    N     N_R   0.834710 0.454650 0.119760 -0.044147
C3    C     C_R   0.816694 0.510932 0.913353 -0.104073
H3    H     H_    0.842814 0.528500 0.860439 0.170628
N3    N     N_R   0.867430 0.509300 0.948100 -0.058959
C4    C     C_R   0.995945 0.666029 0.244538 -0.131924
H4    H     H_    0.972575 0.642974 0.293882 0.099203
N4    N     N_R   0.003360 0.617250 0.167070 -0.042556
C5    C     C_R   0.746378 0.436160 0.992709 -0.111237
H5    H     H_    0.703730 0.390905 0.018859 0.164728
N5    N     N_R   0.825450 0.461270 0.995400 -0.054676
C6    C     C_R   0.061117 0.746447 0.168068 -0.148998
H6    H     H_    0.098050 0.797669 0.147161 0.104582
N6    N     N_R   0.045340 0.665280 0.119770 -0.040480
C7    C     C_R   0.825576 0.544103 0.247144 -0.119226
H7    H     H_    0.842896 0.580332 0.299172 0.107906
N7    N     N_R   0.883740 0.497640 0.167070 -0.045881
C8    C     C_R   0.948974 0.691304 0.946606 -0.048886
H8    H     H_    0.906720 0.677378 0.914984 0.127227
N8    N     N_R   0.987050 0.628910 0.948110 -0.054210
C9    C     C_R   0.973578 0.775032 0.992331 0.112288
C10   C     C_R   0.740180 0.536327 0.250176 0.073606
C11   C     C_R   0.738583 0.466142 0.940564 0.098511
C12   C     C_R   0.028372 0.748534 0.247021 0.086371
C13   C     C_R   0.259726 0.511504 0.955360 -0.121727
H9    H     H_    0.305983 0.536700 0.910031 0.106846
N9    N     N_R   0.174550 0.538730 0.004600 -0.042829
C14   C     C_R   0.920491 0.262041 0.839969 -0.159941
H10   H     H_    0.875306 0.218659 0.868102 0.154024
N10   N     N_R   0.954660 0.334720 0.880230 -0.070967
C15   C     C_R   0.157854 0.512443 0.760977 -0.111067
H11   H     H_    0.126938 0.498339 0.720040 0.179537
N11   N     N_R   0.116260 0.502360 0.832930 -0.058875
C16   C     C_R   0.028652 0.310305 0.071810 -0.138495
H12   H     H_    0.054630 0.325445 0.117052 0.102872
N12   N     N_R   0.012950 0.371090 0.051890 -0.044263
C17   C     C_R   0.954950 0.242350 0.993272 -0.115813
H13   H     H_    0.915486 0.194865 0.963320 0.096811
N13   N     N_R   0.963920 0.328100 0.004580 -0.042878
C18   C     C_R   0.234623 0.584246 0.836287 0.056187
N14   N     N_R   0.165290 0.545350 0.880240 -0.066185
C19   C     C_R   0.194117 0.433853 0.033235 -0.116357
H14   H     H_    0.182432 0.388198 0.061645 0.097167
N15   N     N_R   0.132570 0.490700 0.051900 -0.043300
C20   C     C_R   0.989269 0.336838 0.760245 0.325594
N16   N     N_R   0.996640 0.382750 0.832930 -0.099505
Ni1   Ni    Ni4+2 0.104370 0.604370 0.000010 0.228799
Ni2   Ni    Ni4+2 0.895630 0.395630 0.999990 0.229885
Ni3   Ni    Ni4+2 0.991920 0.505780 0.891500 0.278329
Ni4   Ni    Ni4+2 0.008080 0.494220 0.108500 0.214750
C21   C     C_R   0.274373 0.443341 0.969915 0.047553
C22   C     C_R   0.940161 0.261124 0.764020 0.020828
C23   C     C_R   0.232846 0.563787 0.759838 0.003889
C24   C     C_R   0.995216 0.227940 0.034661 0.074682
C25   C     C_R   0.935301 0.102981 0.692435 -0.265871
C26   C     C_R   0.919512 0.186564 0.700850 0.026514
C27   C     C_R   0.895357 0.195352 0.644865 0.338816
C28   C     C_R   0.903491 0.119092 0.571057 -0.059781
C29   C     C_R   0.933562 0.037259 0.557626 0.005048
C30   C     C_R   0.944431 0.028625 0.620724 0.129407
C31   C     C_R   0.886534 0.122268 0.508648 -0.090997
C32   C     C_R   0.910859 0.050105 0.430440 -0.213332
C33   C     C_R   0.949535 0.973151 0.414757 0.146915
C34   C     C_R   0.957359 0.965063 0.479622 0.067909
C35   C     C_R   0.992369 0.885696 0.465438 0.127790
C36   C     C_R   0.997399 0.876358 0.530340 -0.186575
C37   C     C_R   0.972875 0.947785 0.608299 -0.156064
C38   C     C_R   0.979517 0.903236 0.335626 -0.246770
C39   C     C_R   0.015153 0.825919 0.322399 0.112945
C40   C     C_R   0.021978 0.816828 0.386294 -0.257363
H15   H     H_    0.951164 0.096743 0.737418 0.141942
H16   H     H_    0.856885 0.180444 0.518189 0.176811
H17   H     H_    0.901048 0.055114 0.381767 0.127883
H18   H     H_    0.971506 0.907155 0.285542 0.122764
H19   H     H_    0.048416 0.755248 0.374598 0.129964
H20   H     H_    0.022517 0.814945 0.520119 0.147785
H21   H     H_    0.980331 0.941275 0.657470 0.151373
C41   C     C_R   0.286030 0.547428 0.613807 -0.192986
C42   C     C_R   0.291095 0.592966 0.691103 0.117839
C43   C     C_R   0.355237 0.659520 0.698035 -0.207257
C44   C     C_R   0.422044 0.671346 0.626204 0.053074
C45   C     C_R   0.421944 0.616501 0.547279 0.033626
C46   C     C_R   0.350139 0.558697 0.542600 0.120655
C47   C     C_R   0.491078 0.733151 0.630944 -0.035996
C48   C     C_R   0.565317 0.732626 0.556330 -0.042459
C49   C     C_R   0.571275 0.668520 0.475600 0.008279
C50   C     C_R   0.495898 0.614052 0.472561 0.002146
C51   C     C_R   0.496203 0.552134 0.394419 0.085562
C52   C     C_R   0.418755 0.503537 0.391265 0.017389
C53   C     C_R   0.346364 0.507126 0.465608 -0.236702
C54   C     C_R   0.650070 0.652128 0.397915 -0.012359
C55   C     C_R   0.654663 0.576342 0.324419 0.046685
C56   C     C_R   0.576200 0.532969 0.322064 -0.249557
H22   H     H_    0.236770 0.496828 0.605895 0.143311
H23   H     H_    0.356113 0.699851 0.757973 0.144841
H24   H     H_    0.578486 0.477826 0.264931 0.138780
H25   H     H_    0.289005 0.465643 0.463049 0.159302
C57   C     C_R   0.668440 0.444906 0.909932 -0.035118
C58   C     C_R   0.361305 0.397813 0.930134 0.124427
C59   C     C_R   0.458592 0.314111 0.936089 -0.114974
C60   C     C_R   0.372815 0.332898 0.951671 -0.192211
C61   C     C_R   0.437001 0.431661 0.881031 -0.203504
C62   C     C_R   0.519049 0.425132 0.878232 0.124675
C63   C     C_R   0.530768 0.367667 0.907922 -0.007878
C64   C     C_R   0.610889 0.371268 0.914978 0.290340
C65   C     C_R   0.653800 0.501804 0.880267 0.049351
C66   C     C_R   0.583930 0.485916 0.857894 -0.230642
H26   H     H_    0.464706 0.265277 0.955272 0.187946
H27   H     H_    0.573065 0.530256 0.835943 0.141513
H28   H     H_    0.315758 0.300841 0.984799 0.126206
H29   H     H_    0.431187 0.475772 0.856886 0.111563
C67   C     C_R   0.788762 0.168921 0.174591 0.112746
C68   C     C_R   0.940688 0.862903 0.012991 -0.043054
C69   C     C_R   0.881429 0.958813 0.982540 -0.323250
C70   C     C_R   0.924844 0.878777 0.955196 0.350939
C71   C     C_R   0.917908 0.929948 0.095060 -0.306269
C72   C     C_R   0.876131 0.010237 0.121471 0.195768
C73   C     C_R   0.856373 0.024159 0.065149 0.124250
C74   C     C_R   0.812129 0.103585 0.092480 -0.226316
C75   C     C_R   0.808960 0.155552 0.230068 -0.160641
C76   C     C_R   0.852256 0.076430 0.203906 -0.200187
H30   H     H_    0.795738 0.115342 0.050561 0.131160
H31   H     H_    0.790623 0.206541 0.293539 0.133297
H32   H     H_    0.868658 0.970817 0.938678 0.177332
H33   H     H_    0.866860 0.066924 0.247992 0.124709
H34   H     H_    0.929827 0.918331 0.139594 0.139290
C77   C     C_1   0.280096 0.657391 0.877207 -0.006006
N17   N     N_1   0.316166 0.716091 0.910836 -0.081214
N18   N     N_R   0.014795 0.369422 0.697380 0.230471
O1    O     O_R   0.065073 0.320023 0.618832 -0.394388
O2    O     O_R   0.983593 0.446305 0.717649 -0.384186
N19   N     N_R   0.863946 0.280123 0.663116 0.241926
O3    O     O_R   0.898907 0.313568 0.607170 -0.341373
O4    O     O_R   0.805882 0.328123 0.738758 -0.385907
C78   C     C_1   0.487552 0.795872 0.712673 0.087085
N20   N     N_1   0.484772 0.845790 0.777687 -0.062420
C79   C     C_1   0.635619 0.795638 0.565970 0.107115
N21   N     N_1   0.690948 0.846376 0.574914 -0.064989
C80   C     C_1   0.724340 0.712748 0.389882 0.049289
N22   N     N_1   0.783869 0.760941 0.382454 -0.076719
C81   C     C_1   0.413185 0.445851 0.312719 0.073548
N23   N     N_1   0.408732 0.399755 0.249916 -0.056683
N24   N     N_R   0.633654 0.300971 0.926255 0.220342
O5    O     O_R   0.584328 0.287368 0.994191 -0.449190
O6    O     O_R   0.707303 0.253839 0.870582 -0.386289
C82   C     C_1   0.701631 0.583207 0.880084 0.084390
N25   N     N_1   0.739211 0.648693 0.879962 -0.047907
N26   N     N_R   0.955286 0.816453 0.868211 0.228703
O7    O     O_R   0.910749 0.808667 0.826500 -0.391425
O8    O     O_R   0.033824 0.777105 0.827245 -0.393290

loop_
_geom_bond_atom_site_label_1
_geom_bond_atom_site_label_2
_geom_bond_distance
_ccdc_geom_bond_type
C7    N7    1.341904 A    
C6    C12   1.370621 A    
C54   C80   1.448979 S    
C52   C53   1.384749 A    
C67   C74   1.396700 A    
C17   N13   1.339795 A    
C17   H13   1.080484 S    
C54   C55   1.413607 A    
C81   N23   1.157389 T    
C49   C54   1.430288 A    
C44   C45   1.407446 A    
C18   N14   1.345753 A    
C18   C77   1.439671 S    
N15   Ni4   1.858375 S    
C25   C30   1.364831 A    
C28   C29   1.419279 A    
C31   H16   1.079194 S    
C71   H34   1.084524 S    
C15   N11   1.329690 A    
C17   C24   1.390023 A    
C33   C38   1.381838 A    
C45   C50   1.404997 A    
C68   C70   1.418909 A    
C69   C73   1.400502 A    
N7    Ni4   1.859009 S    
N13   Ni2   1.812541 S    
C61   C62   1.380337 A    
N14   Ni1   1.905235 S    
C80   N22   1.158039 T    
C46   C53   1.394009 A    
C21   C58   1.468680 S    
C3    C11   1.382093 A    
C63   C64   1.407228 A    
C1    H1    1.078614 S    
C39   C40   1.388546 A    
C30   C37   1.399419 A    
C7    C10   1.394906 A    
C69   C70   1.405763 A    
C38   H18   1.085344 S    
N24   O5    1.301775 A    
C16   C24   1.393180 A    
C58   C60   1.401355 A    
N12   N13   1.399608 A    
C7    H7    1.075568 S    
C53   H25   1.085813 S    
C6    H6    1.080041 S    
C8    C9    1.394757 A    
C19   C21   1.389906 A    
C51   C56   1.383154 A    
C62   C63   1.408970 A    
C23   C42   1.484317 S    
C52   C81   1.447598 S    
C36   C37   1.381539 A    
C27   C28   1.406978 A    
N11   Ni3   1.859008 S    
C32   C33   1.396826 A    
C25   C26   1.395017 A    
C5    H5    1.073762 S    
C1    C9    1.395758 A    
C41   H22   1.080319 S    
N1    N8    1.399608 A    
C64   N24   1.435938 S    
C69   H32   1.083974 S    
C12   C39   1.417682 S    
C59   C60   1.397380 A    
N6    Ni1   1.905714 S    
C10   C55   1.478639 S    
C19   N15   1.348715 A    
N10   N16   1.361240 A    
N16   Ni3   1.851379 S    
C36   H20   1.084048 S    
C33   C34   1.407610 A    
C60   H28   1.082065 S    
C3    H3    1.077796 S    
C43   C44   1.409696 A    
C2    N2    1.331449 A    
C68   C71   1.406605 A    
C50   C51   1.416812 A    
C59   H26   1.078894 S    
N1    Ni1   1.812542 S    
C45   C46   1.410601 A    
N19   O3    1.301439 A    
C74   H30   1.082716 S    
C13   C21   1.380982 A    
N8    Ni3   1.849073 S    
N2    N7    1.399608 A    
C41   C42   1.400189 A    
C65   C66   1.381681 A    
C26   C27   1.408670 A    
C1    N1    1.343999 A    
C15   H11   1.072190 S    
C14   N10   1.317977 A    
C47   C78   1.454661 S    
C72   C76   1.404709 A    
C13   H9    1.070074 S    
C76   H33   1.083741 S    
C42   C43   1.404924 A    
C18   C23   1.399101 A    
C55   C56   1.393123 A    
C35   C40   1.374898 A    
C66   H27   1.086909 S    
N5    Ni2   1.813474 S    
C47   C48   1.414711 A    
C72   C73   1.412656 A    
C4    N4    1.324179 A    
C75   H31   1.081780 S    
N19   O4    1.299323 A    
N26   O8    1.301524 A    
C31   C32   1.389841 A    
N12   Ni4   1.849073 S    
N9    N15   1.361238 A    
C5    N5    1.337129 A    
N18   O1    1.300582 A    
C8    N8    1.341459 A    
C57   C65   1.423562 A    
N3    Ni3   1.858373 S    
N11   N14   1.399608 A    
C77   N17   1.157558 T    
C25   H15   1.085560 S    
C59   C63   1.412009 A    
C56   H24   1.077992 S    
C71   C72   1.400560 A    
C44   C47   1.411256 A    
C4    C12   1.373564 A    
C70   N26   1.437995 S    
C3    N3    1.329482 A    
C32   H17   1.084111 S    
C20   N18   1.424926 S    
C19   H14   1.075649 S    
C67   C75   1.396144 A    
C28   C31   1.407836 A    
N24   O6    1.300637 A    
C82   N25   1.157891 T    
C43   H23   1.070974 S    
C62   C66   1.387902 A    
C34   C35   1.414083 A    
N9    Ni1   1.813471 S    
C38   C39   1.395620 A    
C65   C82   1.446435 S    
C9    C68   1.482152 S    
C2    C10   1.388562 A    
C78   N20   1.157414 T    
C73   C74   1.404234 A    
C20   C22   1.387974 A    
C29   C34   1.388273 A    
C11   C57   1.482692 S    
N10   Ni2   1.905714 S    
C15   C23   1.384136 A    
C61   H29   1.078739 S    
C40   H19   1.085536 S    
C14   H10   1.082102 S    
N3    N5    1.361241 A    
C13   N9    1.327307 A    
C79   N21   1.158069 T    
C16   N12   1.346048 A    
C49   C50   1.425443 A    
C16   H12   1.080248 S    
C48   C79   1.452418 S    
C51   C52   1.413213 A    
C58   C61   1.396145 A    
C35   C36   1.394797 A    
C4    H4    1.080509 S    
C29   C30   1.405966 A    
C22   C26   1.440383 S    
C2    H2    1.074466 S    
N26   O7    1.301409 A    
C6    N6    1.327925 A    
C20   N16   1.340688 A    
N4    N6    1.361240 A    
N18   O2    1.300401 A    
C8    H8    1.080684 S    
C5    C11   1.389648 A    
C57   C64   1.427264 A    
N2    Ni2   1.905235 S    
C48   C49   1.432522 A    
C14   C22   1.364737 A    
N4    Ni4   1.851380 S    
C41   C46   1.383602 A    
C27   N19   1.439185 S    
C75   C76   1.398030 A    
C37   H21   1.084239 S    
