data_mof_unit_37808.cif
_audit_creation_date              2012-12-11T17:44:03-0500
_audit_creation_method            fapswitch 2.2
_symmetry_space_group_name_H-M    P1
_symmetry_Int_Tables_number       1
_space_group_crystal_system       triclinic
_cell_length_a                    20.341693
_cell_length_b                    22.748192
_cell_length_c                    6.961048
_cell_angle_alpha                 89.955551
_cell_angle_beta                  86.390574
_cell_angle_gamma                 89.933038
_cell_volume                      3214.74016599

loop_
_atom_site_label
_atom_site_type_symbol
_atom_type_description
_atom_site_fract_x
_atom_site_fract_y
_atom_site_fract_z
_atom_type_partial_charge
O1    O     O_R   0.751270 0.447300 0.600030 -0.518835
O2    O     O_R   0.248730 0.947300 0.399970 -0.512088
O3    O     O_R   0.613530 0.440160 0.952150 -0.546772
O4    O     O_R   0.386470 0.940160 0.047850 -0.547092
O5    O     O_R   0.613050 0.552700 0.122560 -0.537349
O6    O     O_R   0.386950 0.052700 0.877440 -0.538646
C1    C     C_R   0.591780 0.425573 0.787110 0.687066
C2    C     C_R   0.408417 0.925702 0.213078 0.687493
O7    O     O_R   0.750780 0.440350 0.929820 -0.548126
O8    O     O_R   0.249220 0.940350 0.070180 -0.549204
O9    O     O_R   0.751280 0.552900 0.100070 -0.534835
O10   O     O_R   0.248720 0.052900 0.899930 -0.530708
C3    C     C_R   0.773940 0.426463 0.756456 0.781157
C4    C     C_R   0.225282 0.927111 0.243472 0.780522
O11   O     O_R   0.613040 0.447100 0.622520 -0.544858
O12   O     O_R   0.386960 0.947100 0.377480 -0.545766
O13   O     O_3   0.682160 0.536920 0.777780 -0.340606
O14   O     O_3   0.317840 0.036920 0.222220 -0.341463
V1    V     V_3+5 0.682160 0.493150 0.052630 1.500996
V2    V     V_3+5 0.317840 0.993150 0.947370 1.507810
O15   O     O_R   0.750790 0.559840 0.429870 -0.487034
O16   O     O_R   0.249210 0.059840 0.570130 -0.488442
C5    C     C_R   0.775871 0.572396 0.256678 0.825163
C6    C     C_R   0.224941 0.073317 0.742659 0.824661
O17   O     O_R   0.613540 0.559650 0.452200 -0.530013
O18   O     O_R   0.386460 0.059650 0.547800 -0.532043
C7    C     C_R   0.594651 0.577419 0.286641 0.724067
C8    C     C_R   0.405088 0.077540 0.713369 0.718292
V3    V     V_3+5 0.682160 0.506850 0.552630 1.579196
V4    V     V_3+5 0.317840 0.006850 0.447370 1.582632
O19   O     O_3   0.682150 0.463080 0.277610 -0.385136
O20   O     O_3   0.317850 0.963080 0.722390 -0.381634
C9    C     C_R   0.571466 0.868023 0.340051 0.369595
C10   C     C_R   0.423953 0.367879 0.703912 0.376603
H1    H     H_    0.529748 0.952996 0.298158 0.131868
H2    H     H_    0.467419 0.452929 0.729843 0.132716
H3    H     H_    0.653921 0.784594 0.452046 0.164551
H4    H     H_    0.346155 0.287294 0.557716 0.171750
C11   C     C_R   0.463980 0.884504 0.219975 -0.122613
C12   C     C_R   0.536481 0.384182 0.782689 -0.124284
C13   C     C_R   0.480211 0.597754 0.222695 -0.240406
C14   C     C_R   0.520297 0.097244 0.767934 -0.242334
C15   C     C_R   0.425509 0.633507 0.209165 -0.078987
C16   C     C_R   0.575232 0.132793 0.777806 -0.085540
C17   C     C_R   0.428755 0.693525 0.246238 0.352197
C18   C     C_R   0.571372 0.193102 0.746162 0.349908
C19   C     C_R   0.490600 0.720236 0.279078 -0.022863
C20   C     C_R   0.508877 0.220191 0.723802 -0.020203
C21   C     C_R   0.543742 0.681954 0.325456 -0.002865
C22   C     C_R   0.455085 0.182378 0.680403 -0.005447
C23   C     C_R   0.501040 0.783004 0.273062 0.041833
C24   C     C_R   0.498121 0.282863 0.737895 0.049987
C25   C     C_R   0.561190 0.806265 0.334704 0.016370
C26   C     C_R   0.435977 0.306346 0.692972 0.006647
C27   C     C_R   0.609014 0.767946 0.397309 -0.180827
C28   C     C_R   0.389157 0.269131 0.620045 -0.186915
C29   C     C_R   0.598779 0.707759 0.407110 0.110223
C30   C     C_R   0.399289 0.208965 0.604539 0.111008
C31   C     C_R   0.454663 0.823649 0.204033 -0.235219
C32   C     C_R   0.546232 0.323311 0.797152 -0.235476
C33   C     C_R   0.522844 0.905990 0.283181 -0.156399
C34   C     C_R   0.475399 0.405866 0.737499 -0.144725
C35   C     C_R   0.538985 0.620047 0.286888 -0.076838
C36   C     C_R   0.460559 0.120163 0.712550 -0.074696
H5    H     H_    0.410374 0.809600 0.140501 0.166042
H6    H     H_    0.592232 0.309228 0.850554 0.163570
H7    H     H_    0.475762 0.551381 0.190068 0.137861
H8    H     H_    0.525277 0.050590 0.795670 0.135202
H9    H     H_    0.379072 0.613854 0.176201 0.163142
H10   H     H_    0.622258 0.112798 0.803176 0.158079
C37   C     C_R   0.168037 0.885816 0.264509 -0.097114
C38   C     C_R   0.831526 0.385918 0.733574 -0.097752
C39   C     C_R   0.155484 0.847383 0.113331 -0.284226
C40   C     C_R   0.836960 0.338026 0.858452 -0.287700
C41   C     C_R   0.102608 0.808154 0.128866 -0.136001
C42   C     C_R   0.889956 0.298806 0.834969 -0.148291
C43   C     C_R   0.059466 0.806879 0.295612 0.373815
C44   C     C_R   0.940827 0.307733 0.689796 0.355345
C45   C     C_R   0.070774 0.845734 0.447524 0.046881
C46   C     C_R   0.937005 0.357321 0.569240 0.059732
C47   C     C_R   0.125410 0.884978 0.433915 0.312910
C48   C     C_R   0.881327 0.395213 0.585672 0.310109
C49   C     C_R   0.898569 0.694105 0.366380 -0.240125
C50   C     C_R   0.089507 0.178517 0.597768 -0.236653
C51   C     C_R   0.845822 0.653991 0.386711 0.340149
C52   C     C_R   0.149179 0.146327 0.591042 0.353183
C53   C     C_R   0.941614 0.694999 0.200292 0.328642
C54   C     C_R   0.057464 0.193689 0.773829 0.338318
N1    N     N_2   0.004410 0.767599 0.317326 -0.225679
N2    N     N_2   0.996600 0.268987 0.663102 -0.214537
N3    N     N_2   0.996314 0.734722 0.176995 -0.224945
N4    N     N_2   0.000845 0.231296 0.792574 -0.243892
C55   C     C_R   0.834055 0.613854 0.236674 -0.171760
C56   C     C_R   0.168352 0.116515 0.757276 -0.162533
H11   H     H_    0.905872 0.724657 0.482247 0.187100
H12   H     H_    0.068996 0.193097 0.468482 0.193865
C57   C     C_R   0.879378 0.613251 0.071287 0.047751
C58   C     C_R   0.131509 0.128399 0.932416 0.047984
C59   C     C_R   0.931686 0.654456 0.053190 0.128117
C60   C     C_R   0.084916 0.174438 0.940253 0.106054
H13   H     H_    0.095593 0.778955 0.009195 0.193794
H14   H     H_    0.891104 0.261702 0.932145 0.176652
H15   H     H_    0.187278 0.847110 0.982519 0.171558
H16   H     H_    0.799165 0.330122 0.972167 0.160696
I1    I     I_    0.001278 0.845165 0.691752 -0.321415
I2    I     I_    0.020257 0.378993 0.381441 -0.208319
O21   O     O_3   0.137283 0.924209 0.579359 -0.625554
H17   H     H_    0.110952 0.913719 0.698222 0.320701
O22   O     O_3   0.875572 0.443187 0.465868 -0.619382
H18   H     H_    0.902984 0.436985 0.345361 0.321404
I3    I     I_    0.876901 0.546525 0.855611 -0.227124
I4    I     I_    0.116849 0.062015 0.145508 -0.291522
I5    I     I_    0.999362 0.656905 0.804699 -0.250850
I6    I     I_    0.097593 0.246275 0.124661 -0.306858
O23   O     O_3   0.627119 0.893206 0.407541 -0.630618
H19   H     H_    0.635624 0.873961 0.531172 0.292584
O24   O     O_3   0.363571 0.392886 0.674676 -0.626221
H20   H     H_    0.328685 0.365922 0.726946 0.306926
O25   O     O_3   0.369393 0.722513 0.270089 -0.646623
H21   H     H_    0.372438 0.749882 0.380041 0.287075
O26   O     O_3   0.630452 0.222116 0.716928 -0.651343
H22   H     H_    0.625909 0.249721 0.608145 0.284909
I7    I     I_    0.650827 0.670695 0.631684 -0.331483
I8    I     I_    0.342892 0.172605 0.388702 -0.320931
O27   O     O_3   0.805616 0.653316 0.553906 -0.601491
H23   H     H_    0.821080 0.682923 0.645312 0.315630
O28   O     O_3   0.188652 0.142855 0.423787 -0.597412
H24   H     H_    0.175984 0.174113 0.335490 0.335547

loop_
_geom_bond_atom_site_label_1
_geom_bond_atom_site_label_2
_ccdc_geom_bond_type
C49   C53   A    
C47   O21   S    
C12   C32   A    
C53   N3    S    
C38   C40   A    
O13   V3    S    
C4    C37   S    
C51   O27   S    
C11   C31   A    
O4    C2    A    
V1    O19   S    
C21   C29   A    
C13   H7    S    
C44   N2    S    
O9    V1    S    
C40   C42   A    
C21   C35   A    
C22   C36   A    
C42   C44   A    
O3    C1    A    
C57   I3    S    
C44   C46   A    
C56   C58   A    
O12   V4    S    
O23   H19   S    
C46   I2    S    
C10   C34   A    
C12   C34   A    
C45   I1    S    
O17   V3    S    
C50   H12   S    
O7    C3    A    
C24   C32   A    
O5    C7    A    
C51   C55   A    
O7    V1    S    
O6    C8    A    
C54   N4    S    
O8    V2    S    
C1    C12   S    
C18   O26   S    
O3    V1    S    
O14   V4    S    
C2    C11   S    
N1    N3    D    
C52   C56   A    
C17   O25   S    
C10   O24   S    
C25   C27   A    
C32   H6    S    
C2    O12   A    
C14   H8    S    
C13   C15   A    
C14   C16   A    
H2    C34   S    
C57   C59   A    
C24   C26   A    
O11   V3    S    
C53   C59   A    
C17   C19   A    
C9    C25   A    
C11   C33   A    
C18   C20   A    
C9    O23   S    
C58   I4    S    
C22   C30   A    
C48   O22   S    
C60   I6    S    
C19   C21   A    
O8    C4    A    
C45   C47   A    
C19   C23   A    
C1    O11   A    
C16   C18   A    
O15   V3    S    
C5    C55   S    
C23   C25   A    
H3    C27   S    
O1    C3    A    
C6    C56   S    
C29   I7    S    
C15   C17   A    
N2    N4    D    
C39   H15   S    
O21   H17   S    
C43   N1    S    
O10   V2    S    
O1    V3    S    
C43   C45   A    
H1    C33   S    
C49   H11   S    
C16   H10   S    
C20   C22   A    
C41   C43   A    
O26   H22   S    
C54   C60   A    
C7    C35   S    
C8    C36   S    
C46   C48   A    
C49   C51   A    
C10   C26   A    
C58   C60   A    
O15   C5    A    
O27   H23   S    
O16   C6    A    
C23   C31   A    
C39   C41   A    
O28   H24   S    
C55   C57   A    
C40   H16   S    
V2    O20   S    
O16   V4    S    
C52   O28   S    
O18   C8    A    
C50   C54   A    
C50   C52   A    
C59   I5    S    
C14   C36   A    
O25   H21   S    
C26   C28   A    
O18   V4    S    
O5    V1    S    
C3    C38   S    
O17   C7    A    
O6    V2    S    
O10   C6    A    
C30   I8    S    
O2    V4    S    
C27   C29   A    
V3    O19   S    
O24   H20   S    
C31   H5    S    
V4    O20   S    
C9    C33   A    
O9    C5    A    
O13   V1    S    
C28   C30   A    
O14   V2    S    
O2    C4    A    
O4    V2    S    
C20   C24   A    
H4    C28   S    
C15   H9    S    
C37   C39   A    
C41   H13   S    
C13   C35   A    
C42   H14   S    
O22   H18   S    
C38   C48   A    
C37   C47   A    
