data_mof_unit_63076.cif
_audit_creation_date              2013-03-05T16:03:20-0500
_audit_creation_method            fapswitch 2.2
_symmetry_space_group_name_H-M    P1
_symmetry_Int_Tables_number       1
_space_group_crystal_system       triclinic
_cell_length_a                    18.345899
_cell_length_b                    18.34588
_cell_length_c                    43.05556
_cell_angle_alpha                 89.999768
_cell_angle_beta                  89.999962
_cell_angle_gamma                 89.999408
_cell_volume                      14491.2813671

loop_
_atom_site_label
_atom_site_type_symbol
_atom_site_description
_atom_site_fract_x
_atom_site_fract_y
_atom_site_fract_z
_atom_type_partial_charge
Zn1   Zn    Zn3+2 0.500000 0.086800 0.724180 1.061318
Zn2   Zn    Zn3+2 0.500000 0.913200 0.275820 1.061029
Zn3   Zn    Zn3+2 0.913200 0.500000 0.724180 1.061175
Zn4   Zn    Zn3+2 0.086800 0.500000 0.275820 1.061097
Zn5   Zn    Zn3+2 0.500000 0.913200 0.724180 1.061328
Zn6   Zn    Zn3+2 0.500000 0.086800 0.275820 1.061023
Zn7   Zn    Zn3+2 0.086800 0.500000 0.724180 1.061176
Zn8   Zn    Zn3+2 0.913200 0.500000 0.275820 1.061066
Zn9   Zn    Zn3+2 0.000000 0.586800 0.224180 1.061157
Zn10  Zn    Zn3+2 0.000000 0.413200 0.775820 1.061098
Zn11  Zn    Zn3+2 0.413200 0.000000 0.224180 1.061014
Zn12  Zn    Zn3+2 0.586800 0.000000 0.775820 1.061334
Zn13  Zn    Zn3+2 0.000000 0.413200 0.224180 1.061159
Zn14  Zn    Zn3+2 0.000000 0.586800 0.775820 1.061072
Zn15  Zn    Zn3+2 0.586800 0.000000 0.224180 1.061011
Zn16  Zn    Zn3+2 0.413200 0.000000 0.775820 1.061308
C1    C     C_R   0.058908 0.468085 0.884402 0.256609
C2    C     C_R   0.057847 0.533820 0.115565 0.257556
C3    C     C_R   0.532723 0.058454 0.884418 0.257002
C4    C     C_R   0.467301 0.058468 0.115582 0.257002
C5    C     C_R   0.941097 0.531900 0.884404 0.256604
C6    C     C_R   0.942264 0.466111 0.115570 0.257640
C7    C     C_R   0.467283 0.941548 0.884421 0.256988
C8    C     C_R   0.532690 0.941531 0.115580 0.256991
C9    C     C_R   0.557770 0.966097 0.384434 0.257586
C10   C     C_R   0.559004 0.031749 0.615599 0.256529
C11   C     C_R   0.031920 0.558897 0.384403 0.256619
C12   C     C_R   0.966169 0.557780 0.615571 0.257608
C13   C     C_R   0.442235 0.033899 0.384437 0.257579
C14   C     C_R   0.441027 0.968235 0.615597 0.256542
C15   C     C_R   0.968060 0.441111 0.384404 0.256615
C16   C     C_R   0.033772 0.442133 0.615565 0.257538
C17   C     C_R   0.057891 0.468363 0.916881 -0.102741
C18   C     C_R   0.056830 0.533510 0.083086 -0.103244
C19   C     C_R   0.532447 0.057438 0.916897 -0.102891
C20   C     C_R   0.467577 0.057452 0.083103 -0.102890
C21   C     C_R   0.942110 0.531599 0.916884 -0.102748
C22   C     C_R   0.943259 0.466386 0.083095 -0.103147
C23   C     C_R   0.467555 0.942579 0.916901 -0.102905
C24   C     C_R   0.532414 0.942560 0.083100 -0.102895
C25   C     C_R   0.556759 0.966379 0.416911 -0.103183
C26   C     C_R   0.557988 0.031457 0.583119 -0.102735
C27   C     C_R   0.031625 0.557886 0.416882 -0.102738
C28   C     C_R   0.966444 0.556785 0.583095 -0.103136
C29   C     C_R   0.443253 0.033612 0.416914 -0.103181
C30   C     C_R   0.442046 0.968519 0.583118 -0.102717
C31   C     C_R   0.968344 0.442131 0.416884 -0.102760
C32   C     C_R   0.033467 0.443154 0.583086 -0.103232
O1    O     O_3   0.500000 0.000000 0.750000 -0.522155
O2    O     O_3   0.500000 0.000000 0.250000 -0.522240
O3    O     O_3   0.000000 0.500000 0.750000 -0.522206
O4    O     O_3   0.000000 0.500000 0.250000 -0.522215
O5    O     O_R   0.439140 0.000000 0.819450 -0.609940
O6    O     O_R   0.560860 0.000000 0.180550 -0.609854
O7    O     O_R   0.000000 0.439140 0.819450 -0.610034
O8    O     O_R   0.000000 0.560860 0.180550 -0.609676
O9    O     O_R   0.560860 0.000000 0.819450 -0.609934
O10   O     O_R   0.439140 0.000000 0.180550 -0.609855
O11   O     O_R   0.000000 0.560860 0.819450 -0.610005
O12   O     O_R   0.000000 0.439140 0.180550 -0.609780
O13   O     O_R   0.939140 0.500000 0.319450 -0.609986
O14   O     O_R   0.060860 0.500000 0.680550 -0.609696
O15   O     O_R   0.500000 0.939140 0.319450 -0.609682
O16   O     O_R   0.500000 0.060860 0.680550 -0.610066
O17   O     O_R   0.060860 0.500000 0.319450 -0.610008
O18   O     O_R   0.939140 0.500000 0.680550 -0.609794
O19   O     O_R   0.500000 0.060860 0.319450 -0.609676
O20   O     O_R   0.500000 0.939140 0.680550 -0.610079
O21   O     O_R   0.646030 0.085480 0.768310 -0.635356
O22   O     O_R   0.353970 0.914520 0.231690 -0.642809
O23   O     O_R   0.914520 0.646030 0.768310 -0.635828
O24   O     O_R   0.085480 0.353970 0.231690 -0.642950
O25   O     O_R   0.353970 0.914520 0.768310 -0.635361
O26   O     O_R   0.646030 0.085480 0.231690 -0.642812
O27   O     O_R   0.085480 0.353970 0.768310 -0.635830
O28   O     O_R   0.914520 0.646030 0.231690 -0.642977
O29   O     O_R   0.646030 0.914520 0.231690 -0.635535
O30   O     O_R   0.353970 0.085480 0.768310 -0.642861
O31   O     O_R   0.914520 0.353970 0.231690 -0.634959
O32   O     O_R   0.085480 0.646030 0.768310 -0.642738
O33   O     O_R   0.353970 0.085480 0.231690 -0.635536
O34   O     O_R   0.646030 0.914520 0.768310 -0.642856
O35   O     O_R   0.085480 0.646030 0.231690 -0.634928
O36   O     O_R   0.914520 0.353970 0.768310 -0.642735
O37   O     O_R   0.146030 0.585480 0.268310 -0.635812
O38   O     O_R   0.853970 0.414520 0.731690 -0.642948
O39   O     O_R   0.414520 0.146030 0.268310 -0.635002
O40   O     O_R   0.585480 0.853970 0.731690 -0.642696
O41   O     O_R   0.853970 0.414520 0.268310 -0.635813
O42   O     O_R   0.146030 0.585480 0.731690 -0.642969
O43   O     O_R   0.585480 0.853970 0.268310 -0.634998
O44   O     O_R   0.414520 0.146030 0.731690 -0.642705
O45   O     O_R   0.146030 0.414520 0.731690 -0.634950
O46   O     O_R   0.853970 0.585480 0.268310 -0.642733
O47   O     O_R   0.414520 0.853970 0.731690 -0.635769
O48   O     O_R   0.585480 0.146030 0.268310 -0.642984
O49   O     O_R   0.853970 0.585480 0.731690 -0.634977
O50   O     O_R   0.146030 0.414520 0.268310 -0.642734
O51   O     O_R   0.585480 0.146030 0.731690 -0.635765
O52   O     O_R   0.414520 0.853970 0.268310 -0.642987
C33   C     C_R   0.000003 0.499997 0.868006 -0.255517
C34   C     C_R   0.000039 0.499993 0.131972 -0.256039
C35   C     C_R   0.500000 0.000000 0.868018 -0.255730
C36   C     C_R   0.499999 0.000000 0.131983 -0.255732
C37   C     C_R   0.500001 0.999999 0.368029 -0.256106
C38   C     C_R   0.500010 0.999998 0.631995 -0.255435
C39   C     C_R   0.999996 0.499999 0.368007 -0.255514
C40   C     C_R   0.999993 0.499970 0.631973 -0.256037
C41   C     C_R   0.999327 0.566741 0.983662 0.198549
C42   C     C_R   0.001593 0.433196 0.016310 0.198497
C43   C     C_R   0.433219 0.000475 0.983674 0.198587
C44   C     C_R   0.566777 0.000432 0.016327 0.198549
C45   C     C_R   0.000683 0.433187 0.983658 0.198545
C46   C     C_R   0.998437 0.566720 0.016314 0.198517
C47   C     C_R   0.566777 0.999559 0.983674 0.198585
C48   C     C_R   0.433218 0.999599 0.016327 0.198547
C49   C     C_R   0.501744 0.066751 0.483689 0.198544
C50   C     C_R   0.499182 0.933215 0.516341 0.198527
C51   C     C_R   0.933194 0.499372 0.483658 0.198517
C52   C     C_R   0.066727 0.501538 0.516315 0.198532
C53   C     C_R   0.498285 0.933234 0.483688 0.198540
C54   C     C_R   0.500853 0.066766 0.516342 0.198534
C55   C     C_R   0.066749 0.500649 0.483662 0.198533
C56   C     C_R   0.933202 0.498466 0.516310 0.198519
C57   C     C_R   0.500018 0.999990 0.532651 -0.202780
C58   C     C_R   0.500013 0.999993 0.467380 -0.202731
C59   C     C_R   0.999962 0.499995 0.532622 -0.202670
C60   C     C_R   0.999975 0.500013 0.467351 -0.202767
C61   C     C_R   0.000020 0.499955 0.032622 -0.202645
C62   C     C_R   0.000001 0.499967 0.967350 -0.202759
C63   C     C_R   0.499997 0.000014 0.032636 -0.202858
C64   C     C_R   0.499998 0.000017 0.967365 -0.202872
C65   C     C_R   0.500000 0.999999 0.834075 0.973401
C66   C     C_R   0.500000 0.000000 0.165926 0.973561
C67   C     C_R   0.000000 0.500000 0.834070 0.974649
C68   C     C_R   0.000007 0.500000 0.165922 0.971429
C69   C     C_R   0.999999 0.499997 0.334070 0.974652
C70   C     C_R   0.999999 0.499994 0.665922 0.971531
C71   C     C_R   0.499999 1.000000 0.334079 0.971536
C72   C     C_R   0.500001 1.000000 0.665930 0.974832
C73   C     C_R   0.640112 0.140112 0.750000 0.837003
C74   C     C_R   0.359886 0.859884 0.250000 0.816785
C75   C     C_R   0.859889 0.640112 0.750000 0.837037
C76   C     C_R   0.140114 0.359884 0.250000 0.817089
C77   C     C_R   0.359888 0.859888 0.750000 0.836985
C78   C     C_R   0.640114 0.140116 0.249999 0.816787
C79   C     C_R   0.140111 0.359887 0.750000 0.837109
C80   C     C_R   0.859886 0.640115 0.250000 0.817071
C81   C     C_R   0.640112 0.859888 0.250000 0.837141
C82   C     C_R   0.359885 0.140114 0.750000 0.817544
C83   C     C_R   0.859887 0.359889 0.249999 0.837004
C84   C     C_R   0.140116 0.640114 0.750000 0.817087
C85   C     C_R   0.359888 0.140111 0.250000 0.837129
C86   C     C_R   0.640115 0.859886 0.750000 0.817556
C87   C     C_R   0.140113 0.640111 0.249999 0.837092
C88   C     C_R   0.859884 0.359886 0.750000 0.817104
C89   C     C_R   0.309225 0.255783 0.729713 -0.146035
C90   C     C_R   0.690777 0.744240 0.270294 -0.135411
C91   C     C_R   0.744201 0.309241 0.729723 -0.146191
C92   C     C_R   0.255774 0.690763 0.270286 -0.136194
C93   C     C_R   0.690776 0.744219 0.729712 -0.146029
C94   C     C_R   0.309223 0.255759 0.270294 -0.135413
C95   C     C_R   0.255799 0.690759 0.729723 -0.146191
C96   C     C_R   0.744227 0.309235 0.270286 -0.136189
C97   C     C_R   0.309232 0.744210 0.270282 -0.146268
C98   C     C_R   0.690754 0.255783 0.729719 -0.136103
C99   C     C_R   0.744224 0.690781 0.270291 -0.146125
C100  C     C_R   0.255766 0.309229 0.729709 -0.135317
C101  C     C_R   0.690769 0.255788 0.270283 -0.146272
C102  C     C_R   0.309246 0.744217 0.729719 -0.136094
C103  C     C_R   0.255776 0.309218 0.270291 -0.146129
C104  C     C_R   0.744235 0.690772 0.729708 -0.135288
C105  C     C_R   0.809223 0.755781 0.229713 -0.146252
C106  C     C_R   0.190766 0.244228 0.770287 -0.136165
C107  C     C_R   0.244216 0.809226 0.229714 -0.146188
C108  C     C_R   0.755779 0.190758 0.770283 -0.135748
C109  C     C_R   0.190777 0.244219 0.229713 -0.146248
C110  C     C_R   0.809233 0.755770 0.770287 -0.136162
C111  C     C_R   0.755783 0.190775 0.229713 -0.146187
C112  C     C_R   0.244221 0.809241 0.770283 -0.135762
C113  C     C_R   0.809237 0.244205 0.770280 -0.146073
C114  C     C_R   0.190770 0.755768 0.229710 -0.135347
C115  C     C_R   0.244213 0.190770 0.770284 -0.146095
C116  C     C_R   0.755765 0.809228 0.229709 -0.135893
C117  C     C_R   0.190763 0.755795 0.770280 -0.146074
C118  C     C_R   0.809229 0.244234 0.229709 -0.135314
C119  C     C_R   0.755787 0.809229 0.770284 -0.146098
C120  C     C_R   0.244235 0.190773 0.229709 -0.135883
H1    H     H_    0.354713 0.261107 0.713838 0.180809
H2    H     H_    0.645303 0.738934 0.286178 0.183519
H3    H     H_    0.738867 0.354740 0.713854 0.180787
H4    H     H_    0.261088 0.645282 0.286166 0.183152
H5    H     H_    0.645288 0.738896 0.713837 0.180822
H6    H     H_    0.354697 0.261066 0.286178 0.183518
H7    H     H_    0.261134 0.645260 0.713854 0.180781
H8    H     H_    0.738914 0.354715 0.286167 0.183161
H9    H     H_    0.354722 0.738884 0.286157 0.180803
H10   H     H_    0.645265 0.261106 0.713844 0.183093
H11   H     H_    0.738905 0.645298 0.286169 0.180833
H12   H     H_    0.261077 0.354709 0.713828 0.183469
H13   H     H_    0.645280 0.261113 0.286158 0.180807
H14   H     H_    0.354736 0.738895 0.713844 0.183102
H15   H     H_    0.261095 0.354702 0.286169 0.180830
H16   H     H_    0.738924 0.645293 0.713827 0.183509
H17   H     H_    0.854707 0.761100 0.213835 0.180841
H18   H     H_    0.145285 0.238916 0.786167 0.183118
H19   H     H_    0.238890 0.854716 0.213839 0.180854
H20   H     H_    0.761101 0.145269 0.786159 0.183229
H21   H     H_    0.145293 0.238900 0.213835 0.180853
H22   H     H_    0.854713 0.761082 0.786168 0.183124
H23   H     H_    0.761108 0.145286 0.213838 0.180864
H24   H     H_    0.238899 0.854731 0.786159 0.183223
H25   H     H_    0.854735 0.238871 0.786149 0.180751
H26   H     H_    0.145289 0.761081 0.213830 0.183500
H27   H     H_    0.238889 0.145281 0.786158 0.180747
H28   H     H_    0.761072 0.854703 0.213825 0.183313
H29   H     H_    0.145264 0.761128 0.786149 0.180751
H30   H     H_    0.854709 0.238922 0.213828 0.183549
H31   H     H_    0.761110 0.854717 0.786159 0.180750
H32   H     H_    0.238928 0.145298 0.213825 0.183321
H33   H     H_    0.103084 0.445047 0.929685 0.202402
H34   H     H_    0.101226 0.558315 0.070284 0.202341
H35   H     H_    0.556407 0.102294 0.929700 0.202300
H36   H     H_    0.443640 0.102321 0.070301 0.202335
H37   H     H_    0.896917 0.554909 0.929689 0.202396
H38   H     H_    0.898862 0.441544 0.070306 0.202183
H39   H     H_    0.443599 0.897726 0.929707 0.202322
H40   H     H_    0.556347 0.897694 0.070294 0.202359
H41   H     H_    0.601128 0.941510 0.429709 0.202247
H42   H     H_    0.603240 0.054648 0.570312 0.202444
H43   H     H_    0.054950 0.603072 0.429687 0.202419
H44   H     H_    0.941643 0.601205 0.570305 0.202177
H45   H     H_    0.398887 0.058478 0.429714 0.202250
H46   H     H_    0.396797 0.945319 0.570313 0.202415
H47   H     H_    0.945011 0.396950 0.429689 0.202412
H48   H     H_    0.058236 0.398738 0.570283 0.202309
C121  C     C_R   0.196255 0.303741 0.749998 -0.013133
C122  C     C_R   0.803737 0.696267 0.250001 -0.012251
C123  C     C_R   0.696256 0.196259 0.750001 -0.013011
C124  C     C_R   0.303736 0.803732 0.249999 -0.012210
C125  C     C_R   0.803745 0.696259 0.749998 -0.013137
C126  C     C_R   0.196263 0.303733 0.250001 -0.012266
C127  C     C_R   0.303744 0.803741 0.750001 -0.013008
C128  C     C_R   0.696264 0.196267 0.249999 -0.012222
C129  C     C_R   0.196260 0.696255 0.249998 -0.013156
C130  C     C_R   0.803733 0.303736 0.750001 -0.012151
C131  C     C_R   0.696259 0.803745 0.250001 -0.013229
C132  C     C_R   0.303733 0.196264 0.749999 -0.012219
C133  C     C_R   0.803740 0.303745 0.249998 -0.013160
C134  C     C_R   0.196267 0.696264 0.750001 -0.012137
C135  C     C_R   0.303741 0.196255 0.250001 -0.013229
C136  C     C_R   0.696267 0.803737 0.749999 -0.012235
C137  C     C_R   0.999999 0.499974 0.933103 0.092920
C138  C     C_R   0.000035 0.499951 0.066869 0.093029
C139  C     C_R   0.499998 0.000012 0.933119 0.093057
C140  C     C_R   0.499997 0.000009 0.066882 0.093046
C141  C     C_R   0.500008 0.999995 0.433134 0.093065
C142  C     C_R   0.500017 0.999989 0.566898 0.092895
C143  C     C_R   0.999982 0.500011 0.433103 0.092927
C144  C     C_R   0.999958 0.499979 0.566869 0.093034
N1    N     N_R   0.120710 0.436808 0.868617 0.224679
O53   O     O_R   0.146730 0.466796 0.843568 -0.394389
O54   O     O_R   0.156683 0.383416 0.881316 -0.309714
N2    N     N_R   0.118652 0.566987 0.131340 0.225239
O55   O     O_R   0.146067 0.537368 0.156199 -0.393506
O56   O     O_R   0.152575 0.621844 0.118750 -0.309942
N3    N     N_R   0.564799 0.119839 0.868635 0.224918
O57   O     O_R   0.534940 0.146458 0.843672 -0.393977
O58   O     O_R   0.618841 0.154934 0.881279 -0.309950
N4    N     N_R   0.435251 0.119870 0.131365 0.224874
O59   O     O_R   0.465114 0.146472 0.156330 -0.394102
O60   O     O_R   0.381230 0.154994 0.118718 -0.309849
N5    N     N_R   0.879301 0.563197 0.868622 0.224682
O61   O     O_R   0.853274 0.533225 0.843571 -0.394386
O62   O     O_R   0.843348 0.616598 0.881323 -0.309699
N6    N     N_R   0.881536 0.432869 0.131358 0.225067
O63   O     O_R   0.853771 0.462756 0.156088 -0.393319
O64   O     O_R   0.848082 0.377554 0.118903 -0.309875
N7    N     N_R   0.435227 0.880143 0.868642 0.224940
O65   O     O_R   0.465066 0.853558 0.843668 -0.393985
O66   O     O_R   0.381246 0.844990 0.881303 -0.309957
N8    N     N_R   0.564721 0.880112 0.131359 0.224895
O67   O     O_R   0.534887 0.853551 0.156338 -0.394112
O68   O     O_R   0.618676 0.844922 0.118694 -0.309856
N9    N     N_R   0.618523 0.932854 0.368654 0.225219
O69   O     O_R   0.646078 0.962544 0.343839 -0.393355
O70   O     O_R   0.652248 0.877820 0.381198 -0.310046
N10   N     N_R   0.620889 0.062877 0.631382 0.224652
O71   O     O_R   0.646745 0.032921 0.656469 -0.394601
O72   O     O_R   0.657087 0.116070 0.618649 -0.309678
N11   N     N_R   0.063221 0.620688 0.368619 0.224671
O73   O     O_R   0.033259 0.646707 0.343564 -0.394471
O74   O     O_R   0.116606 0.656658 0.381326 -0.309672
N12   N     N_R   0.932989 0.618545 0.631359 0.225084
O75   O     O_R   0.962860 0.646229 0.656108 -0.393313
O76   O     O_R   0.877765 0.652114 0.618887 -0.309966
N13   N     N_R   0.381479 0.067144 0.368660 0.225221
O77   O     O_R   0.353924 0.037463 0.343843 -0.393356
O78   O     O_R   0.347748 0.122168 0.381210 -0.310040
N14   N     N_R   0.379155 0.937087 0.631380 0.224621
O79   O     O_R   0.353227 0.967094 0.656443 -0.394555
O80   O     O_R   0.343052 0.883797 0.618672 -0.309656
N15   N     N_R   0.936742 0.379324 0.368623 0.224680
O81   O     O_R   0.966701 0.353289 0.343570 -0.394466
O82   O     O_R   0.883336 0.343384 0.381326 -0.309663
N16   N     N_R   0.066893 0.381304 0.631340 0.225232
O83   O     O_R   0.037255 0.353913 0.656199 -0.393471
O84   O     O_R   0.121732 0.347346 0.618753 -0.310018
N17   N     N_R   0.998936 0.634760 0.967085 0.246059
O85   O     O_R   0.048339 0.648280 0.946178 -0.309381
O86   O     O_R   0.949246 0.683491 0.972907 -0.255808
N18   N     N_R   0.003505 0.365203 0.032887 0.246087
O87   O     O_R   0.053344 0.353356 0.053790 -0.309378
O88   O     O_R   0.955487 0.314823 0.027067 -0.255575
N19   N     N_R   0.365208 0.001207 0.967093 0.246145
O89   O     O_R   0.352534 0.050788 0.946166 -0.309394
O90   O     O_R   0.315638 0.952367 0.972931 -0.255868
N20   N     N_R   0.634789 0.001120 0.032908 0.246115
O91   O     O_R   0.647494 0.050693 0.053835 -0.309548
O92   O     O_R   0.684329 0.952249 0.027068 -0.255507
N21   N     N_R   0.001073 0.365174 0.967076 0.246059
O93   O     O_R   0.951671 0.351664 0.946168 -0.309396
O94   O     O_R   0.050764 0.316442 0.972894 -0.255806
N22   N     N_R   0.996535 0.634708 0.032895 0.246068
O95   O     O_R   0.946708 0.646547 0.053805 -0.309459
O96   O     O_R   0.044547 0.685091 0.027073 -0.255595
N23   N     N_R   0.634789 0.998827 0.967094 0.246145
O97   O     O_R   0.647465 0.949246 0.946167 -0.309384
O98   O     O_R   0.684359 0.047667 0.972933 -0.255867
N24   N     N_R   0.365206 0.998908 0.032907 0.246117
O99   O     O_R   0.352500 0.949332 0.053833 -0.309535
O100  O     O_R   0.315664 0.047777 0.027067 -0.255498
N25   N     N_R   0.503795 0.134737 0.467110 0.246116
O101  O     O_R   0.553635 0.146462 0.446194 -0.309383
O102  O     O_R   0.455912 0.185238 0.472942 -0.255708
N26   N     N_R   0.498622 0.865199 0.532919 0.246054
O103  O     O_R   0.547991 0.851557 0.553826 -0.309430
O104  O     O_R   0.448810 0.816593 0.527099 -0.255645
N27   N     N_R   0.865181 0.499024 0.467076 0.246052
O105  O     O_R   0.851702 0.548428 0.446165 -0.309484
O106  O     O_R   0.816416 0.449367 0.472896 -0.255578
N28   N     N_R   0.134716 0.503396 0.532896 0.246092
O107  O     O_R   0.146585 0.553214 0.553806 -0.309350
O108  O     O_R   0.185070 0.455352 0.527074 -0.255798
N29   N     N_R   0.496228 0.865249 0.467108 0.246115
O109  O     O_R   0.446382 0.853527 0.446194 -0.309384
O110  O     O_R   0.544112 0.814747 0.472937 -0.255709
N30   N     N_R   0.501415 0.134780 0.532921 0.246049
O111  O     O_R   0.452047 0.148422 0.553829 -0.309449
O112  O     O_R   0.551226 0.183386 0.527100 -0.255652
N31   N     N_R   0.134768 0.501009 0.467086 0.246049
O113  O     O_R   0.148262 0.451607 0.446175 -0.309488
O114  O     O_R   0.183524 0.550670 0.472911 -0.255590
N32   N     N_R   0.865208 0.496601 0.532887 0.246108
O115  O     O_R   0.853329 0.446773 0.553792 -0.309289
O116  O     O_R   0.814859 0.544652 0.527066 -0.255775

loop_
_geom_bond_atom_site_label_1
_geom_bond_atom_site_label_2
_geom_bond_distance
_ccdc_geom_bond_type
Zn12  O21   1.935099 S    
Zn13  O31   1.935102 S    
N13   O78   1.301519 A    
Zn14  O23   1.935084 S    
N11   O73   1.301417 A    
C107  H19   1.083128 S    
Zn1   O51   1.935102 S    
Zn12  O1    1.942078 S    
C9    C37   1.417371 A    
N15   O82   1.301494 A    
Zn13  O12   1.937854 S    
N25   O101  1.301262 A    
O10   C66   1.281837 A    
Zn14  O11   1.937854 S    
C85   C135  1.456684 S    
N8    O67   1.301422 A    
C80   C122  1.456816 S    
C23   C139  1.397179 A    
C107  C124  1.401899 A    
C6    C22   1.398362 A    
C77   C127  1.456700 S    
O37   C87   1.279778 A    
O38   C88   1.279815 A    
C13   N13   1.440771 S    
C93   C104  1.386821 A    
C99   C122  1.401898 A    
C7    C35   1.417406 A    
C94   C103  1.386821 A    
N22   O95   1.301264 A    
C76   C126  1.456816 S    
O39   C85   1.279778 A    
C49   C58   1.412116 A    
C20   H36   1.083648 S    
C22   H38   1.083673 S    
O17   C69   1.281768 A    
C51   C60   1.412128 A    
C87   C129  1.456698 S    
C73   C123  1.456700 S    
Zn5   O1    1.942083 S    
Zn9   O4    1.942075 S    
O15   C71   1.281929 A    
Zn10  O3    1.942074 S    
C89   C100  1.386822 A    
Zn5   O47   1.935102 S    
C90   C99   1.386822 A    
C31   H47   1.083637 S    
C115  H27   1.083128 S    
Zn7   O45   1.935083 S    
N19   O90   1.301185 A    
N24   O99   1.301259 A    
Zn15  O6    1.937857 S    
O5    C65   1.281849 A    
Zn16  O1    1.942078 S    
O42   C84   1.279818 A    
C114  C129  1.401869 A    
C9    C25   1.398452 A    
O43   C81   1.279776 A    
N28   O107  1.301265 A    
C12   C28   1.398379 A    
C13   C29   1.398459 A    
C56   N32   1.437573 S    
C98   H10   1.083144 S    
Zn7   O14   1.937857 S    
N15   O81   1.301426 A    
N16   O83   1.301430 A    
C42   N18   1.437572 S    
N24   O100  1.301186 A    
Zn9   O35   1.935102 S    
C56   C59   1.412124 A    
C22   C138  1.397214 A    
C103  C126  1.401900 A    
N4    O60   1.301507 A    
O20   C72   1.281747 A    
C101  C128  1.401896 A    
N14   O79   1.301430 A    
O23   C75   1.279783 A    
O16   C72   1.281753 A    
O24   C76   1.279820 A    
C32   C144  1.397239 A    
O50   C76   1.279816 A    
C15   C39   1.417375 A    
O51   C73   1.279780 A    
N26   O103  1.301264 A    
C93   C136  1.401899 A    
Zn13  O24   1.935082 S    
C108  H20   1.083142 S    
N9    O70   1.301512 A    
C3    C19   1.398539 A    
O36   C88   1.279817 A    
C14   N14   1.441101 S    
C86   C136  1.456816 S    
C12   C40   1.417245 A    
N30   O111  1.301262 A    
C27   H43   1.083639 S    
C115  C132  1.401895 A    
N7    O66   1.301472 A    
C44   C63   1.412111 A    
C89   C132  1.401894 A    
C102  H14   1.083142 S    
C24   C140  1.397176 A    
C108  C123  1.401873 A    
O28   C80   1.279819 A    
N21   O93   1.301257 A    
C78   C128  1.456831 S    
C106  H18   1.083141 S    
C15   N15   1.441093 S    
C53   N29   1.437586 S    
N10   O72   1.301487 A    
O6    C66   1.281842 A    
C30   C142  1.397189 A    
N31   O113  1.301260 A    
C12   N12   1.440605 S    
C116  C131  1.401871 A    
C84   C134  1.456829 S    
C52   C59   1.412125 A    
C111  C118  1.386829 A    
C82   C132  1.456816 S    
C118  H30   1.083143 S    
C109  C120  1.386821 A    
C36   C66   1.461439 S    
C30   H46   1.083643 S    
N11   O74   1.301533 A    
C90   H2    1.083141 S    
N1    O53   1.301418 A    
O35   C87   1.279779 A    
C44   N20   1.437583 S    
O33   C85   1.279782 A    
N18   O87   1.301262 A    
C110  H22   1.083145 S    
C42   C61   1.412124 A    
C2    C34   1.417377 A    
C112  H24   1.083143 S    
C95   C102  1.386826 A    
C118  C133  1.401872 A    
N20   O92   1.301188 A    
Zn2   O2    1.942074 S    
C105  C116  1.386820 A    
C28   H44   1.083671 S    
N2    O55   1.301437 A    
Zn11  O10   1.937856 S    
O19   C71   1.281930 A    
Zn8   O4    1.942078 S    
C110  C125  1.401867 A    
C19   C139  1.397173 A    
Zn5   O40   1.935082 S    
C13   C37   1.417375 A    
O8    C68   1.281921 A    
N25   O102  1.301190 A    
C47   C64   1.412109 A    
C33   C67   1.461129 S    
O46   C80   1.279813 A    
C45   C62   1.412127 A    
C102  C127  1.401872 A    
C106  C121  1.401866 A    
N23   O98   1.301185 A    
C7    N7    1.441005 S    
Zn7   O42   1.935101 S    
C57   C142  1.474537 S    
O25   C77   1.279778 A    
O40   C86   1.279817 A    
C24   H40   1.083645 S    
C48   N24   1.437582 S    
C49   C54   1.405967 A    
C94   C135  1.401870 A    
C28   C144  1.397211 A    
Zn10  O27   1.935083 S    
O18   C70   1.281904 A    
C93   H5    1.083129 S    
Zn9   O8    1.937858 S    
Zn6   O2    1.942079 S    
C25   C141  1.397192 A    
Zn10  O7    1.937858 S    
C41   C46   1.405962 A    
Zn12  O9    1.937856 S    
Zn6   O19   1.937854 S    
Zn9   O28   1.935085 S    
C90   C131  1.401868 A    
Zn1   O16   1.937858 S    
Zn2   O15   1.937858 S    
C10   C26   1.398566 A    
C3    N3    1.440963 S    
C112  C127  1.401870 A    
C97   C124  1.401898 A    
C14   C30   1.398540 A    
C95   C134  1.401896 A    
N6    O64   1.301575 A    
C5    N5    1.441076 S    
C50   N26   1.437572 S    
N3    O57   1.301435 A    
C96   H8    1.083142 S    
O48   C78   1.279820 A    
N8    O68   1.301526 A    
C18   C138  1.397248 A    
C54   C57   1.412134 A    
C26   C142  1.397197 A    
C88   C130  1.456829 S    
Zn15  O29   1.935083 S    
C21   H37   1.083641 S    
N5    O62   1.301498 A    
C1    N1    1.441077 S    
C9    N9    1.440769 S    
Zn2   O43   1.935083 S    
N6    O63   1.301458 A    
N22   O96   1.301185 A    
N32   O115  1.301258 A    
C99   H11   1.083129 S    
C113  H25   1.083128 S    
Zn8   O41   1.935103 S    
C11   N11   1.441082 S    
C45   N21   1.437578 S    
C17   H33   1.083638 S    
O47   C77   1.279782 A    
C92   C129  1.401871 A    
O9    C65   1.281847 A    
C10   C38   1.417402 A    
C74   C124  1.456830 S    
C16   N16   1.440820 S    
C20   C140  1.397173 A    
C1    C17   1.398540 A    
C29   H45   1.083663 S    
N12   O75   1.301459 A    
N28   O108  1.301185 A    
C116  H28   1.083141 S    
O21   C73   1.279777 A    
C104  H16   1.083143 S    
C55   N31   1.437575 S    
C31   C143  1.397191 A    
N16   O84   1.301534 A    
N7    O65   1.301439 A    
C75   C125  1.456685 S    
C43   C48   1.405994 A    
C50   C57   1.412133 A    
N29   O110  1.301191 A    
C23   H39   1.083644 S    
C52   C55   1.405962 A    
C120  H32   1.083142 S    
N19   O89   1.301261 A    
C15   C31   1.398541 A    
Zn3   O38   1.935101 S    
C16   C32   1.398512 A    
C54   N30   1.437573 S    
Zn5   O20   1.937854 S    
C6    N6    1.440571 S    
C79   C121  1.456684 S    
C108  C113  1.386827 A    
Zn11  O22   1.935101 S    
C60   C143  1.474532 S    
C91   H3    1.083128 S    
Zn8   O46   1.935081 S    
C11   C39   1.417379 A    
C92   H4    1.083141 S    
N26   O104  1.301191 A    
O29   C81   1.279778 A    
Zn3   O3    1.942082 S    
C63   C140  1.474498 S    
O27   C79   1.279780 A    
C98   C123  1.401869 A    
C51   C56   1.405970 A    
C39   C69   1.461138 S    
C120  C135  1.401870 A    
C91   C130  1.401900 A    
C10   N10   1.441153 S    
N9    O69   1.301440 A    
C97   H9    1.083129 S    
C37   C71   1.461775 S    
Zn13  O4    1.942083 S    
Zn3   O49   1.935083 S    
C38   C72   1.461090 S    
Zn14  O3    1.942079 S    
C95   H7    1.083131 S    
N30   O112  1.301191 A    
C92   C97   1.386825 A    
O14   C70   1.281919 A    
C110  C119  1.386820 A    
C26   H42   1.083640 S    
C8    N8    1.441003 S    
Zn1   O44   1.935085 S    
C21   C137  1.397201 A    
O44   C82   1.279815 A    
C46   C61   1.412128 A    
Zn3   O18   1.937856 S    
C4    N4    1.440977 S    
C100  H12   1.083143 S    
C58   C141  1.474489 S    
C113  C130  1.401897 A    
O26   C78   1.279816 A    
C106  C115  1.386821 A    
N31   O114  1.301186 A    
C29   C141  1.397196 A    
C96   C133  1.401870 A    
Zn7   O3    1.942079 S    
N23   O97   1.301262 A    
Zn11  O2    1.942082 S    
C40   C70   1.461723 S    
N3    O58   1.301493 A    
O13   C69   1.281751 A    
O11   C67   1.281757 A    
N18   O88   1.301185 A    
C103  H15   1.083128 S    
C34   C68   1.461723 S    
C101  H13   1.083129 S    
C4    C20   1.398535 A    
C62   C137  1.474541 S    
C11   C27   1.398548 A    
O41   C83   1.279782 A    
Zn15  O26   1.935101 S    
C5    C21   1.398540 A    
N2    O56   1.301536 A    
N4    O59   1.301433 A    
C105  H17   1.083129 S    
Zn4   O50   1.935085 S    
N13   O77   1.301445 A    
C27   C143  1.397196 A    
C83   C133  1.456698 S    
C119  H31   1.083131 S    
N17   O85   1.301260 A    
Zn11  O33   1.935083 S    
C48   C63   1.412115 A    
C117  H29   1.083127 S    
Zn4   O4    1.942078 S    
Zn4   O17   1.937856 S    
O7    C67   1.281751 A    
C111  H23   1.083128 S    
Zn15  O2    1.942079 S    
C109  H21   1.083132 S    
C119  C136  1.401895 A    
C1    C33   1.417364 A    
Zn16  O5    1.937857 S    
O49   C75   1.279778 A    
C64   C139  1.474489 S    
C117  C134  1.401902 A    
C3    C35   1.417391 A    
N27   O105  1.301256 A    
N21   O94   1.301189 A    
Zn14  O32   1.935100 S    
N14   O80   1.301498 A    
C111  C128  1.401901 A    
Zn8   O13   1.937857 S    
Zn6   O48   1.935100 S    
C5    C33   1.417357 A    
C109  C126  1.401895 A    
Zn2   O52   1.935103 S    
C81   C131  1.456683 S    
C14   C38   1.417372 A    
C96   C101  1.386826 A    
C46   N22   1.437573 S    
O22   C74   1.279815 A    
Zn16  O25   1.935103 S    
N1    O54   1.301529 A    
C105  C122  1.401892 A    
Zn4   O37   1.935099 S    
C51   N27   1.437578 S    
Zn6   O39   1.935084 S    
C8    C36   1.417416 A    
C50   C53   1.405968 A    
C2    N2    1.440829 S    
N20   O91   1.301262 A    
C19   H35   1.083643 S    
C43   N19   1.437582 S    
C94   H6    1.083143 S    
N5    O61   1.301430 A    
Zn12  O34   1.935085 S    
C49   N25   1.437588 S    
C2    C18   1.398512 A    
C42   C45   1.405966 A    
C32   H48   1.083661 S    
C47   N23   1.437580 S    
C107  C114  1.386829 A    
N27   O106  1.301190 A    
C25   H41   1.083667 S    
C104  C125  1.401872 A    
N32   O116  1.301189 A    
O30   C82   1.279815 A    
O31   C83   1.279779 A    
O32   C84   1.279817 A    
O12   C68   1.281905 A    
C100  C121  1.401871 A    
C4    C36   1.417397 A    
C6    C34   1.417234 A    
C91   C98   1.386825 A    
N10   O71   1.301430 A    
C17   C137  1.397198 A    
C35   C65   1.461452 S    
C53   C58   1.412118 A    
O52   C74   1.279818 A    
N12   O76   1.301553 A    
C55   C60   1.412120 A    
N17   O86   1.301189 A    
C7    C23   1.398551 A    
Zn10  O36   1.935103 S    
C8    C24   1.398560 A    
O45   C79   1.279774 A    
Zn16  O30   1.935081 S    
C89   H1    1.083130 S    
C112  C117  1.386827 A    
C52   N28   1.437576 S    
O34   C86   1.279819 A    
C43   C64   1.412110 A    
C61   C138  1.474528 S    
C16   C40   1.417370 A    
C41   N17   1.437571 S    
C41   C62   1.412122 A    
C114  H26   1.083145 S    
C59   C144  1.474524 S    
N29   O109  1.301263 A    
Zn1   O1    1.942075 S    
C44   C47   1.405993 A    
C18   H34   1.083662 S    
