data_mof_unit_68073.cif
_audit_creation_date              2012-12-11T14:45:32-0500
_audit_creation_method            fapswitch 2.2
_symmetry_space_group_name_H-M    P1
_symmetry_Int_Tables_number       1
_space_group_crystal_system       triclinic
_cell_length_a                    24.192518
_cell_length_b                    7.209089
_cell_length_c                    15.338566
_cell_angle_alpha                 90.000078
_cell_angle_beta                  100.309673
_cell_angle_gamma                 90.0
_cell_volume                      2631.94763736

loop_
_atom_site_label
_atom_site_type_symbol
_atom_type_description
_atom_site_fract_x
_atom_site_fract_y
_atom_site_fract_z
_atom_type_partial_charge
O1    O     O_R   0.319150 0.364170 0.330530 -0.536088
O2    O     O_R   0.680850 0.635830 0.669470 -0.551227
O3    O     O_R   0.180850 0.864170 0.169470 -0.536089
O4    O     O_R   0.819150 0.135830 0.830530 -0.551228
O5    O     O_R   0.210330 0.696850 0.354180 -0.536186
O6    O     O_R   0.789670 0.303150 0.645820 -0.554319
O7    O     O_R   0.289670 0.196850 0.145820 -0.536186
O8    O     O_R   0.710330 0.803150 0.854180 -0.554319
C1    C     C_R   0.198863 0.525169 0.379106 0.776756
C2    C     C_R   0.801133 0.475770 0.620949 0.770653
C3    C     C_R   0.301137 0.025169 0.120894 0.776756
C4    C     C_R   0.698866 0.975770 0.879051 0.770652
O9    O     O_R   0.320550 0.694110 0.341970 -0.550727
O10   O     O_R   0.679450 0.305890 0.658030 -0.539904
O11   O     O_R   0.179450 0.194110 0.158030 -0.550727
O12   O     O_R   0.820550 0.805890 0.841970 -0.539903
O13   O     O_R   0.291860 0.861000 0.157170 -0.551929
O14   O     O_R   0.708140 0.139000 0.842830 -0.528272
O15   O     O_R   0.208140 0.361000 0.342830 -0.551929
O16   O     O_R   0.791860 0.639000 0.657170 -0.528273
C5    C     C_R   0.342645 0.525633 0.358791 0.747285
C6    C     C_R   0.657117 0.474584 0.641923 0.753649
C7    C     C_R   0.157355 0.025633 0.141209 0.747286
C8    C     C_R   0.842883 0.974584 0.858076 0.753650
O17   O     O_3   0.240460 0.529330 0.189380 -0.387888
O18   O     O_3   0.759540 0.470670 0.810620 -0.389147
O19   O     O_3   0.259540 0.029330 0.310620 -0.387888
O20   O     O_3   0.740460 0.970670 0.689380 -0.389147
V1    V     V_3+5 0.251770 0.805510 0.261240 1.423338
V2    V     V_3+5 0.748230 0.194490 0.738760 1.415464
V3    V     V_3+5 0.248230 0.305510 0.238760 1.423338
V4    V     V_3+5 0.751770 0.694490 0.761240 1.415465
C9    C     C_R   0.103078 0.016367 0.077418 -0.205959
C10   C     C_R   0.897397 0.985031 0.921249 -0.208962
C11   C     C_R   0.396922 0.516368 0.422582 -0.205959
C12   C     C_R   0.602603 0.485030 0.578751 -0.208962
C13   C     C_R   0.947293 0.997356 0.073621 0.375223
C14   C     C_R   0.053397 0.003719 0.924807 0.371835
C15   C     C_R   0.552707 0.497356 0.426379 0.375222
C16   C     C_R   0.446603 0.503719 0.575192 0.371836
C17   C     C_R   0.897497 0.021396 0.011141 0.334095
C18   C     C_R   0.102342 0.044891 0.986638 0.332281
C19   C     C_R   0.602503 0.521395 0.488859 0.334095
C20   C     C_R   0.397658 0.544892 0.513362 0.332281
C21   C     C_R   0.949433 0.964427 0.892779 -0.307049
C22   C     C_R   0.051655 0.984885 0.106239 -0.300588
C23   C     C_R   0.550566 0.464427 0.607221 -0.307049
C24   C     C_R   0.448345 0.484885 0.393761 -0.300589
C25   C     C_R   0.000962 0.982996 0.953331 -0.056578
C26   C     C_R   0.999989 0.986470 0.045338 -0.057245
C27   C     C_R   0.499038 0.482996 0.546669 -0.056577
C28   C     C_R   0.500011 0.486469 0.454662 -0.057245
C29   C     C_R   0.664006 0.990903 0.947202 -0.220240
C30   C     C_R   0.336414 0.023084 0.052980 -0.209745
C31   C     C_R   0.835994 0.490902 0.552798 -0.220239
C32   C     C_R   0.163586 0.523085 0.447020 -0.209746
C33   C     C_R   0.657361 0.029945 0.102297 0.452355
C34   C     C_R   0.343796 0.056362 0.897716 0.456767
C35   C     C_R   0.842639 0.529944 0.397703 0.452354
C36   C     C_R   0.156204 0.556364 0.602284 0.456767
C37   C     C_R   0.687810 0.976740 0.036802 -0.341469
C38   C     C_R   0.312208 0.013304 0.963284 -0.351431
C39   C     C_R   0.812190 0.476740 0.463198 -0.341470
C40   C     C_R   0.187792 0.513305 0.536716 -0.351429
C41   C     C_R   0.608032 0.045932 0.921150 0.369128
C42   C     C_R   0.393407 0.065924 0.078961 0.368124
C43   C     C_R   0.891968 0.545931 0.578850 0.369128
C44   C     C_R   0.106593 0.565925 0.421039 0.368125
C45   C     C_R   0.575277 0.086295 0.986744 -0.051996
C46   C     C_R   0.426772 0.098682 0.013310 -0.053574
C47   C     C_R   0.924723 0.586295 0.513256 -0.051997
C48   C     C_R   0.073228 0.598683 0.486690 -0.053574
C49   C     C_R   0.600954 0.086556 0.077585 -0.085613
C50   C     C_R   0.401137 0.100833 0.922415 -0.083275
C51   C     C_R   0.899045 0.586555 0.422415 -0.085613
C52   C     C_R   0.098863 0.600835 0.577585 -0.083275
C53   C     C_R   0.516959 0.123283 0.965920 -0.112902
C54   C     C_R   0.485558 0.126933 0.034098 -0.110822
C55   C     C_R   0.983041 0.623283 0.534080 -0.112902
C56   C     C_R   0.014442 0.626933 0.465902 -0.110822
C57   C     C_R   0.513553 0.203865 0.113877 0.508812
C58   C     C_R   0.490117 0.201964 0.885883 0.505709
C59   C     C_R   0.986447 0.703865 0.386123 0.508812
C60   C     C_R   0.009883 0.701965 0.614117 0.505709
C61   C     C_R   0.570595 0.162346 0.139851 -0.289218
C62   C     C_R   0.432609 0.168444 0.859872 -0.282477
C63   C     C_R   0.929405 0.662345 0.360149 -0.289217
C64   C     C_R   0.067391 0.668445 0.640128 -0.282479
H1    H     H_    0.051942 0.968976 0.176231 0.192738
H2    H     H_    0.949454 0.942228 0.823265 0.198016
H3    H     H_    0.448058 0.468976 0.323769 0.192738
H4    H     H_    0.550546 0.442229 0.676735 0.198015
O21   O     O_3   0.149525 0.112969 0.957666 -0.558890
C65   C     C_3   0.149215 0.309872 0.964388 0.094109
H5    H     H_    0.136502 0.360750 0.026426 0.129511
H6    H     H_    0.119942 0.372232 0.908690 0.118530
C66   C     C_3   0.206957 0.387770 0.960369 -0.685652
H7    H     H_    0.214423 0.382547 0.891466 0.198542
H8    H     H_    0.209424 0.534521 0.982768 0.186163
H9    H     H_    0.239903 0.307474 0.003154 0.238593
O22   O     O_3   0.849007 0.082846 0.038365 -0.558987
C67   C     C_3   0.845241 0.278230 0.025443 0.087559
H10   H     H_    0.854699 0.322959 0.960258 0.136479
H11   H     H_    0.874811 0.352166 0.077007 0.114098
C68   C     C_3   0.786789 0.346607 0.031614 -0.683959
H12   H     H_    0.779549 0.332568 0.100384 0.197771
H13   H     H_    0.782628 0.494978 0.012093 0.186786
H14   H     H_    0.754755 0.266477 0.986951 0.235553
O23   O     O_3   0.350475 0.612970 0.542334 -0.558889
C69   C     C_3   0.350785 0.809872 0.535612 0.094109
H15   H     H_    0.363498 0.860750 0.473574 0.129510
H16   H     H_    0.380058 0.872233 0.591310 0.118531
C70   C     C_3   0.293043 0.887771 0.539632 -0.685648
H17   H     H_    0.285577 0.882545 0.608535 0.198543
H18   H     H_    0.290577 0.034523 0.517234 0.186162
H19   H     H_    0.260097 0.807477 0.496846 0.238592
O24   O     O_3   0.650993 0.582846 0.461635 -0.558987
C71   C     C_3   0.654759 0.778230 0.474557 0.087558
H20   H     H_    0.645300 0.822959 0.539741 0.136479
H21   H     H_    0.625189 0.852165 0.422993 0.114098
C72   C     C_3   0.713211 0.846607 0.468386 -0.683959
H22   H     H_    0.720451 0.832568 0.399617 0.197770
H23   H     H_    0.717372 0.994978 0.487909 0.186786
H24   H     H_    0.745245 0.766476 0.513050 0.235554
O25   O     O_3   0.942949 0.976993 0.161484 -0.540313
C73   C     C_3   0.951498 0.149027 0.205174 0.148649
H25   H     H_    0.950768 0.272124 0.161438 0.066647
H26   H     H_    0.993718 0.146561 0.245482 0.135949
C74   C     C_3   0.907884 0.174030 0.264399 -0.663850
H27   H     H_    0.918001 0.299633 0.305490 0.184397
H28   H     H_    0.865391 0.189376 0.223538 0.239348
H29   H     H_    0.907841 0.052832 0.308935 0.216390
O26   O     O_3   0.058562 0.978054 0.837537 -0.543685
C75   C     C_3   0.045444 0.143850 0.789948 0.147827
H30   H     H_    0.045126 0.270387 0.830978 0.069286
H31   H     H_    0.002558 0.130108 0.752984 0.139707
C76   C     C_3   0.086352 0.172502 0.726414 -0.675193
H32   H     H_    0.086768 0.049630 0.683115 0.216954
H33   H     H_    0.073287 0.294655 0.683995 0.177629
H34   H     H_    0.129416 0.195999 0.764070 0.239424
O27   O     O_3   0.557051 0.476994 0.338516 -0.540313
C77   C     C_3   0.548502 0.649027 0.294826 0.148649
H35   H     H_    0.549231 0.772125 0.338562 0.066647
H36   H     H_    0.506282 0.646561 0.254518 0.135949
C78   C     C_3   0.592116 0.674032 0.235601 -0.663852
H37   H     H_    0.581998 0.799635 0.194510 0.184398
H38   H     H_    0.634608 0.689377 0.276461 0.239348
H39   H     H_    0.592158 0.552834 0.191064 0.216390
O28   O     O_3   0.441438 0.478053 0.662462 -0.543685
C79   C     C_3   0.454556 0.643849 0.710052 0.147826
H40   H     H_    0.454874 0.770386 0.669023 0.069286
H41   H     H_    0.497441 0.630107 0.747017 0.139707
C80   C     C_3   0.413647 0.672500 0.773586 -0.675191
H42   H     H_    0.413231 0.549627 0.816884 0.216954
H43   H     H_    0.426712 0.794653 0.816005 0.177629
H44   H     H_    0.370583 0.695996 0.735929 0.239425
H45   H     H_    0.591158 0.199894 0.205766 0.194953
H46   H     H_    0.412573 0.206499 0.793709 0.197963
H47   H     H_    0.908841 0.699893 0.294234 0.194953
H48   H     H_    0.087427 0.706501 0.706291 0.197964
O29   O     O_3   0.412216 0.114324 0.166667 -0.526273
C81   C     C_3   0.431124 0.956647 0.216899 0.102792
H49   H     H_    0.467424 0.895766 0.192151 0.093210
H50   H     H_    0.397147 0.852805 0.214629 0.111272
C82   C     C_3   0.449319 0.014128 0.313224 -0.678187
H51   H     H_    0.414599 0.089260 0.336504 0.231116
H52   H     H_    0.459737 0.889708 0.355512 0.146554
H53   H     H_    0.486750 0.105807 0.320075 0.246793
O30   O     O_3   0.590192 0.096611 0.833475 -0.525194
C83   C     C_3   0.569701 0.941660 0.782495 0.107839
H54   H     H_    0.532532 0.886145 0.806636 0.092055
H55   H     H_    0.602479 0.833758 0.784673 0.105321
C84   C     C_3   0.552706 0.001236 0.686255 -0.685516
H56   H     H_    0.588073 0.074898 0.664215 0.233914
H57   H     H_    0.542224 0.877894 0.643221 0.147768
H58   H     H_    0.515625 0.094539 0.678866 0.242035
O31   O     O_3   0.087784 0.614324 0.333333 -0.526273
C85   C     C_3   0.068876 0.456647 0.283100 0.102792
H59   H     H_    0.032577 0.395766 0.307849 0.093210
H60   H     H_    0.102854 0.352805 0.285371 0.111272
C86   C     C_3   0.050681 0.514128 0.186776 -0.678188
H61   H     H_    0.085401 0.589259 0.163496 0.231117
H62   H     H_    0.040262 0.389707 0.144487 0.146554
H63   H     H_    0.013250 0.605807 0.179924 0.246793
O32   O     O_3   0.909807 0.596610 0.666525 -0.525195
C87   C     C_3   0.930299 0.441660 0.717505 0.107839
H64   H     H_    0.967468 0.386147 0.693364 0.092055
H65   H     H_    0.897521 0.333758 0.715326 0.105321
C88   C     C_3   0.947294 0.501237 0.813745 -0.685515
H66   H     H_    0.911926 0.574898 0.835785 0.233915
H67   H     H_    0.957775 0.377894 0.856778 0.147768
H68   H     H_    0.984375 0.594540 0.821134 0.242034
H69   H     H_    0.267786 0.986152 0.944984 0.171322
H70   H     H_    0.731402 0.938412 0.054962 0.172270
H71   H     H_    0.232213 0.486154 0.555016 0.171323
H72   H     H_    0.768598 0.438412 0.445037 0.172269
O33   O     O_3   0.682226 0.019247 0.190598 -0.568082
C89   C     C_3   0.707378 0.191542 0.218099 0.069254
H73   H     H_    0.688454 0.312236 0.177517 0.112529
H74   H     H_    0.752745 0.184888 0.214676 0.154650
C90   C     C_3   0.701753 0.227819 0.313814 -0.656907
H75   H     H_    0.661914 0.170138 0.328649 0.233643
H76   H     H_    0.737483 0.163069 0.358971 0.194854
H77   H     H_    0.701756 0.379521 0.325800 0.214881
O34   O     O_3   0.318730 0.053120 0.809315 -0.567171
C91   C     C_3   0.294432 0.228425 0.785356 0.061611
H78   H     H_    0.314769 0.345285 0.827285 0.114039
H79   H     H_    0.249309 0.223616 0.790230 0.154993
C92   C     C_3   0.298767 0.271312 0.689726 -0.646518
H80   H     H_    0.339216 0.221695 0.673768 0.238840
H81   H     H_    0.263644 0.203834 0.644385 0.196668
H82   H     H_    0.296442 0.423434 0.679175 0.212908
O35   O     O_3   0.817774 0.519247 0.309402 -0.568083
C93   C     C_3   0.792621 0.691540 0.281902 0.069254
H83   H     H_    0.811544 0.812234 0.322485 0.112529
H84   H     H_    0.747254 0.684883 0.285326 0.154650
C94   C     C_3   0.798246 0.727820 0.186187 -0.656905
H85   H     H_    0.838085 0.670142 0.171351 0.233643
H86   H     H_    0.762516 0.663069 0.141030 0.194854
H87   H     H_    0.798242 0.879522 0.174202 0.214880
O36   O     O_3   0.181270 0.553121 0.690685 -0.567171
C95   C     C_3   0.205565 0.728429 0.714646 0.061610
H88   H     H_    0.185226 0.845289 0.672718 0.114038
H89   H     H_    0.250689 0.723630 0.709771 0.154994
C96   C     C_3   0.201230 0.771308 0.810277 -0.646519
H90   H     H_    0.160782 0.721681 0.826235 0.238838
H91   H     H_    0.236354 0.703835 0.855617 0.196668
H92   H     H_    0.203552 0.923430 0.820829 0.212910
O37   O     O_3   0.489411 0.342901 0.157703 -0.517762
C97   C     C_3   0.465924 0.487102 0.098102 0.120204
H93   H     H_    0.463751 0.459509 0.026432 0.080609
H94   H     H_    0.492444 0.612712 0.110525 0.091348
C98   C     C_3   0.406475 0.534047 0.110770 -0.645217
H95   H     H_    0.403978 0.541214 0.182013 0.200397
H96   H     H_    0.393739 0.668880 0.078697 0.147259
H97   H     H_    0.376151 0.429122 0.078628 0.224559
O38   O     O_3   0.516150 0.335353 0.841507 -0.522005
C99   C     C_3   0.542894 0.475561 0.900695 0.107514
H98   H     H_    0.546230 0.448030 0.972561 0.084732
H99   H     H_    0.518200 0.605346 0.890241 0.087648
C100  C     C_3   0.602284 0.512514 0.884887 -0.626957
H100  H     H_    0.603356 0.520278 0.813153 0.197980
H101  H     H_    0.617610 0.644340 0.917422 0.150013
H102  H     H_    0.631543 0.402747 0.914974 0.224709
O39   O     O_3   0.010589 0.842901 0.342297 -0.517762
C101  C     C_3   0.034076 0.987103 0.401898 0.120203
H103  H     H_    0.036249 0.959510 0.473569 0.080609
H104  H     H_    0.007555 0.112711 0.389475 0.091348
C102  C     C_3   0.093524 0.034048 0.389230 -0.645219
H105  H     H_    0.096021 0.041215 0.317987 0.200398
H106  H     H_    0.106260 0.168882 0.421303 0.147259
H107  H     H_    0.123849 0.929124 0.421372 0.224559
O40   O     O_3   0.983850 0.835354 0.658493 -0.522005
C103  C     C_3   0.957105 0.975561 0.599305 0.107512
H108  H     H_    0.953769 0.948030 0.527439 0.084732
H109  H     H_    0.981799 0.105346 0.609760 0.087648
C104  C     C_3   0.897715 0.012513 0.615113 -0.626957
H110  H     H_    0.896643 0.020277 0.686847 0.197981
H111  H     H_    0.882389 0.144338 0.582578 0.150014
H112  H     H_    0.868457 0.902745 0.585026 0.224710

loop_
_geom_bond_atom_site_label_1
_geom_bond_atom_site_label_2
_ccdc_geom_bond_type
C34   C38   A    
C59   C63   A    
C58   O38   S    
O1    C5    A    
C73   H25   S    
O19   V1    S    
C18   O21   S    
O13   V1    S    
C23   H4    S    
C68   H12   S    
O3    C7    A    
C54   C57   A    
C53   C54   A    
C48   C52   A    
O15   V3    S    
C36   O36   S    
C92   H82   S    
C75   C76   S    
C47   C55   A    
C66   H7    S    
C22   H1    S    
C42   C46   A    
C86   H61   S    
C94   H87   S    
O7    C3    A    
C76   H33   S    
C99   C100  S    
C102  H105  S    
O36   C95   S    
O25   C73   S    
C83   H55   S    
C97   C98   S    
C9    C18   A    
O9    V1    S    
C96   H90   S    
C14   C18   A    
C55   C60   A    
O4    C8    A    
C91   H79   S    
C85   H60   S    
C84   H58   S    
C43   C47   A    
C46   C54   A    
C83   H54   S    
C40   H71   S    
C44   O31   S    
O1    V3    S    
C96   H92   S    
C67   C68   S    
O2    V4    S    
C100  H100  S    
C90   H75   S    
C14   O26   S    
C33   C49   A    
C33   C37   A    
O3    V1    S    
C71   H20   S    
C72   H24   S    
C103  H109  S    
C66   H8    S    
C69   H15   S    
C29   C37   A    
C1    O15   A    
C15   O27   S    
C2    O16   A    
C7    C9    S    
C24   H3    S    
C31   C39   A    
C46   C50   A    
C32   C40   A    
C45   C49   A    
C89   H73   S    
O14   V2    S    
C80   H43   S    
C29   C41   A    
C98   H95   S    
C52   C64   A    
C94   H86   S    
C13   O25   S    
C4    C29   S    
O8    C4    A    
C79   H40   S    
C74   H29   S    
C20   O23   S    
O11   C7    A    
C15   C28   A    
C76   H32   S    
O30   C83   S    
O12   C8    A    
C84   H56   S    
O38   C99   S    
C13   C17   A    
C9    C22   A    
C90   H76   S    
C77   C78   S    
C67   H10   S    
C10   C17   A    
C61   H45   S    
C57   O37   S    
O10   V2    S    
C56   C59   A    
C11   C24   A    
C78   H38   S    
O37   C97   S    
C57   C61   A    
C78   H37   S    
O5    V1    S    
C84   H57   S    
C76   H34   S    
C101  H104  S    
C102  H106  S    
O7    V3    S    
O24   C71   S    
C27   C28   A    
O8    V4    S    
O22   C67   S    
C85   H59   S    
C99   H98   S    
C86   H62   S    
C99   H99   S    
C14   C25   A    
C91   H78   S    
C15   C19   A    
C30   C38   A    
C34   O34   S    
C94   H85   S    
O35   C93   S    
C79   C80   S    
C8    C10   S    
C42   O29   S    
C41   O30   S    
C104  H111  S    
C71   C72   S    
C88   H68   S    
C95   H89   S    
O5    C1    A    
C103  H108  S    
C11   C20   A    
C97   H94   S    
C81   C82   S    
C68   H13   S    
C31   C43   A    
O33   C89   S    
C21   C25   A    
C44   C48   A    
C59   O39   S    
C89   C90   S    
C4    O14   A    
C92   H80   S    
O9    C5    A    
C1    C32   S    
C68   H14   S    
C50   C62   A    
C80   H44   S    
C65   H6    S    
C21   H2    S    
C62   H46   S    
C69   C70   S    
C49   C61   A    
C72   H22   S    
C3    C30   S    
C10   C21   A    
C19   O24   S    
C30   C42   A    
C71   H21   S    
C51   C63   A    
O6    V2    S    
C16   C20   A    
O31   C85   S    
C82   H53   S    
C36   C52   A    
O26   C75   S    
C90   H77   S    
C77   H36   S    
C12   C23   A    
O12   V4    S    
C87   H65   S    
C35   C51   A    
C104  H110  S    
C66   H9    S    
C78   H39   S    
C34   C50   A    
C70   H17   S    
O16   V4    S    
C86   H63   S    
C88   H66   S    
O34   C91   S    
C101  H103  S    
C3    O13   A    
C102  H107  S    
C73   H26   S    
C103  C104  S    
C100  H102  S    
C33   O33   S    
C75   H31   S    
C93   H83   S    
O17   V3    S    
C60   C64   A    
O39   C101  S    
C93   C94   S    
C95   C96   S    
C23   C27   A    
C35   O35   S    
O11   V3    S    
C75   H30   S    
C5    C11   S    
C81   H49   S    
C16   C27   A    
C6    C12   S    
O21   C65   S    
C22   C26   A    
C35   C39   A    
C73   C74   S    
C45   C53   A    
C67   H11   S    
C36   C40   A    
C104  H112  S    
C32   C44   A    
C70   H19   S    
C87   C88   S    
O20   V2    S    
C74   H27   S    
C93   H84   S    
C97   H93   S    
C48   C56   A    
C81   H50   S    
C58   C62   A    
O28   C79   S    
C47   C51   A    
C13   C26   A    
C65   C66   S    
C91   C92   S    
O10   C6    A    
O32   C87   S    
O40   C103  S    
O29   C81   S    
C53   C58   A    
C63   H47   S    
C41   C45   A    
C37   H70   S    
C74   H28   S    
O2    C6    A    
C96   H91   S    
C17   O22   S    
C16   O28   S    
C79   H41   S    
C64   H48   S    
C2    C31   S    
C65   H5    S    
C98   H97   S    
C69   H16   S    
C87   H64   S    
C72   H23   S    
C85   C86   S    
O6    C2    A    
C55   C56   A    
O23   C69   S    
C82   H51   S    
C24   C28   A    
C82   H52   S    
C25   C26   A    
C98   H96   S    
C60   O40   S    
C77   H35   S    
C92   H81   S    
C39   H72   S    
C12   C19   A    
C89   H74   S    
C38   H69   S    
C100  H101  S    
C80   H42   S    
O27   C77   S    
C95   H88   S    
C83   C84   S    
O18   V4    S    
O4    V2    S    
C43   O32   S    
C88   H67   S    
C70   H18   S    
C101  C102  S    
