data_mof_unit_56866.cif
_audit_creation_date              2012-12-11T15:30:41-0500
_audit_creation_method            fapswitch 2.2
_symmetry_space_group_name_H-M    P1
_symmetry_Int_Tables_number       1
_space_group_crystal_system       triclinic
_cell_length_a                    6.967895
_cell_length_b                    20.488473
_cell_length_c                    24.318458
_cell_angle_alpha                 89.986434
_cell_angle_beta                  90.392603
_cell_angle_gamma                 89.196095
_cell_volume                      3471.31682547

loop_
_atom_site_label
_atom_site_type_symbol
_atom_type_description
_atom_site_fract_x
_atom_site_fract_y
_atom_site_fract_z
_atom_type_partial_charge
O1    O     O_R   0.507310 0.423620 0.460450 -0.538321
O2    O     O_R   0.170760 0.556060 0.437190 -0.542307
O3    O     O_R   0.004040 0.576380 0.539550 -0.521384
C1    C     C_R   0.338435 0.576180 0.421298 0.725745
O4    O     O_R   0.177350 0.422870 0.454070 -0.540691
O5    O     O_R   0.010680 0.442240 0.556560 -0.531614
C2    C     C_R   0.346943 0.399095 0.443107 0.679360
O6    O     O_R   0.500670 0.557760 0.443440 -0.536997
O7    O     O_3   0.340380 0.506510 0.533610 -0.357092
V1    V     V_3+5 0.064130 0.498790 0.493770 1.449828
O8    O     O_R   0.681170 0.443940 0.562810 -0.538271
C3    C     C_R   0.850944 0.423998 0.578677 0.739726
O9    O     O_R   0.674570 0.577130 0.545930 -0.540169
C4    C     C_R   0.842064 0.601317 0.556474 0.773473
V2    V     V_3+5 0.564560 0.501210 0.506230 1.453720
O10   O     O_3   0.838170 0.493490 0.466390 -0.377694
C5    C     C_R   0.973178 0.838031 0.911037 -0.048880
C6    C     C_R   0.842388 0.663951 0.587051 -0.193637
C7    C     C_R   0.978595 0.720125 0.908722 -0.134139
C8    C     C_R   0.991381 0.778274 0.938063 -0.184937
C9    C     C_R   0.940387 0.839209 0.853986 -0.215146
C10   C     C_R   0.912531 0.780627 0.823605 0.034630
C11   C     C_R   0.941526 0.720322 0.851605 0.131919
C12   C     C_R   0.861939 0.780010 0.766182 -0.038746
C13   C     C_R   0.882389 0.720603 0.735583 0.009483
C14   C     C_R   0.901452 0.661922 0.765493 -0.216375
C15   C     C_R   0.929841 0.661105 0.822517 0.169718
C16   C     C_R   0.780745 0.835245 0.738652 0.317591
C17   C     C_R   0.750913 0.833928 0.682132 -0.107945
C18   C     C_R   0.787046 0.777804 0.650764 -0.049826
C19   C     C_R   0.862186 0.720706 0.676538 -0.050874
C20   C     C_R   0.739421 0.777689 0.594211 0.199119
C21   C     C_R   0.760426 0.720648 0.562833 0.242115
C22   C     C_R   0.908887 0.665840 0.641961 0.253304
H1    H     H_    0.687339 0.877101 0.663323 0.189925
H2    H     H_    0.996716 0.674905 0.931318 0.153039
H3    H     H_    0.016647 0.776637 0.982065 0.110122
H4    H     H_    0.941502 0.886272 0.834017 0.160002
H5    H     H_    0.884412 0.615451 0.745354 0.178038
C23   C     C_3   0.791593 0.266334 0.807490 -0.058085
C24   C     C_3   0.120151 0.236653 0.777361 -0.442334
C25   C     C_3   0.099188 0.289834 0.731881 -0.351009
H6    H     H_    0.875804 0.295696 0.837613 0.180447
H7    H     H_    0.222020 0.197907 0.763614 0.200298
H8    H     H_    0.183503 0.258937 0.814924 0.151772
H9    H     H_    0.137829 0.338198 0.749203 0.190976
H10   H     H_    0.202273 0.278907 0.698239 0.147068
C26   C     C_1   0.863254 0.378671 0.624440 -0.180206
C27   C     C_3   0.922017 0.206641 0.790983 0.189141
C28   C     C_3   0.749350 0.310777 0.756148 0.176389
C29   C     C_3   0.890624 0.292668 0.708756 0.187497
C30   C     C_3   0.841326 0.223173 0.688203 -0.468753
C31   C     C_3   0.848664 0.172005 0.736627 0.541897
C32   C     C_1   0.874991 0.340258 0.662440 0.011761
C33   C     C_1   0.945161 0.159619 0.837633 0.049757
C34   C     C_1   0.960166 0.121399 0.875674 -0.155379
H11   H     H_    0.698199 0.224173 0.667610 0.134382
H12   H     H_    0.600177 0.303205 0.740645 0.075506
H13   H     H_    0.945249 0.208772 0.655638 0.170417
C35   C     C_3   0.591829 0.701451 0.268074 -0.380779
C36   C     C_3   0.243288 0.691476 0.241795 0.285781
C37   C     C_3   0.268543 0.742047 0.193735 0.120889
H14   H     H_    0.623648 0.650270 0.255329 0.167097
H15   H     H_    0.279672 0.641990 0.225205 0.032778
H16   H     H_    0.308365 0.713986 0.156321 0.080682
C38   C     C_1   0.476972 0.878000 0.124399 -0.192244
C39   C     C_3   0.383845 0.706439 0.290276 0.115289
C40   C     C_3   0.622753 0.749756 0.219222 0.071505
C41   C     C_3   0.434792 0.790602 0.207415 0.090037
C42   C     C_3   0.387862 0.827004 0.262098 -0.384999
C43   C     C_3   0.347839 0.777875 0.309347 -0.314596
C44   C     C_1   0.461822 0.839043 0.161959 -0.076829
C45   C     C_1   0.360626 0.659677 0.337056 -0.053739
C46   C     C_1   0.347033 0.621547 0.375270 -0.181030
H17   H     H_    0.442045 0.789089 0.345161 0.158768
H18   H     H_    0.196945 0.784094 0.323275 0.185495
H19   H     H_    0.511568 0.857836 0.274112 0.157365
H20   H     H_    0.694602 0.712929 0.301844 0.180192
H21   H     H_    0.735503 0.784434 0.232177 0.173171
H22   H     H_    0.264674 0.861487 0.257134 0.160366
C47   C     C_R   0.465012 0.163619 0.087182 -0.169009
C48   C     C_R   0.356832 0.337937 0.411124 -0.038349
C49   C     C_R   0.430212 0.282373 0.088883 0.354132
C50   C     C_R   0.468674 0.224031 0.059453 0.264303
C51   C     C_R   0.438675 0.162310 0.144182 -0.239380
C52   C     C_R   0.405557 0.220157 0.175244 0.018965
C53   C     C_R   0.386091 0.280236 0.146148 -0.064358
C54   C     C_R   0.388157 0.219802 0.234195 -0.013541
C55   C     C_R   0.340148 0.278581 0.263023 -0.054800
C56   C     C_R   0.276598 0.333129 0.231301 0.200204
C57   C     C_R   0.311754 0.335693 0.174671 0.222748
C58   C     C_R   0.415744 0.162150 0.265275 -0.158095
C59   C     C_R   0.394741 0.160781 0.322087 0.317516
C60   C     C_R   0.371994 0.219717 0.351513 0.044530
C61   C     C_R   0.351267 0.279616 0.322247 0.059041
C62   C     C_R   0.380320 0.220304 0.409585 -0.150187
C63   C     C_R   0.368482 0.278572 0.438823 -0.164756
C64   C     C_R   0.355145 0.338512 0.353369 -0.205529
H23   H     H_    0.365027 0.385397 0.333750 0.101232
H24   H     H_    0.373284 0.277407 0.483366 0.103372
H25   H     H_    0.438310 0.114544 0.162599 0.116947
H26   H     H_    0.450141 0.115855 0.246700 0.144824
H27   H     H_    0.400984 0.176112 0.433300 0.127707
O11   O     O_R   0.323590 0.942280 0.056590 -0.537188
O12   O     O_R   0.647030 0.077140 0.045940 -0.539919
O13   O     O_R   0.813570 0.057750 0.943430 -0.534674
C65   C     C_R   0.477354 0.101166 0.056640 0.706051
O14   O     O_R   0.653510 0.943950 0.062820 -0.538246
O15   O     O_R   0.820100 0.923600 0.960440 -0.535043
C66   C     C_R   0.485810 0.923872 0.078739 0.720836
O16   O     O_R   0.317060 0.076430 0.039590 -0.530972
O17   O     O_3   0.483830 0.993520 0.966410 -0.365261
V3    V     V_3+5 0.760140 0.001200 0.006230 1.437059
O18   O     O_R   0.149560 0.922820 0.954030 -0.538404
C67   C     C_R   0.981513 0.898974 0.943193 0.696546
O19   O     O_R   0.143080 0.056020 0.937150 -0.534222
C68   C     C_R   0.973269 0.076087 0.921395 0.732735
V4    V     V_3+5 0.259690 0.998730 0.993720 1.447928
O20   O     O_3   0.986120 0.006480 0.033580 -0.369051
N1    N     N_3   0.949627 0.599763 0.850997 -0.667341
H28   H     H_    0.912737 0.560917 0.825311 0.246049
H29   H     H_    0.094915 0.593326 0.860906 0.230754
N2    N     N_3   0.662715 0.835728 0.568660 -0.663124
H30   H     H_    0.526486 0.825469 0.552858 0.262514
H31   H     H_    0.751561 0.848120 0.535902 0.259174
O21   O     O_3   0.769284 0.376803 0.770571 -0.640374
H32   H     H_    0.656248 0.388639 0.793313 0.292064
N3    N     N_3   0.659174 0.141927 0.743350 -0.655168
H33   H     H_    0.547525 0.175465 0.736708 0.200252
H34   H     H_    0.644949 0.121429 0.782418 0.252915
O22   O     O_3   0.980951 0.121912 0.723177 -0.632845
H35   H     H_    0.929710 0.098579 0.690537 0.318675
O23   O     O_3   0.027656 0.615253 0.658948 -0.648248
H36   H     H_    0.126203 0.633862 0.683776 0.296833
N4    N     N_3   0.617032 0.247119 0.836366 -0.675650
H37   H     H_    0.510618 0.234262 0.808534 0.217980
H38   H     H_    0.563350 0.287839 0.857504 0.245087
N5    N     N_3   0.695825 0.714405 0.170920 -0.606710
H39   H     H_    0.707653 0.746137 0.137520 0.242614
H40   H     H_    0.604294 0.676652 0.159769 0.216905
O24   O     O_3   0.052494 0.691787 0.260397 -0.625288
H41   H     H_    0.027318 0.647776 0.275597 0.285535
N6    N     N_3   0.086895 0.775738 0.180106 -0.597265
H42   H     H_    0.048093 0.808308 0.211137 0.243227
H43   H     H_    0.102144 0.802333 0.143741 0.216965
O25   O     O_3   0.701122 0.723079 0.508385 -0.646363
H44   H     H_    0.751027 0.684678 0.488115 0.279288
N7    N     N_3   0.251809 0.394397 0.146743 -0.617208
H45   H     H_    0.158385 0.383033 0.114419 0.270946
H46   H     H_    0.372051 0.419201 0.132780 0.271477
O26   O     O_3   0.407643 0.100583 0.347382 -0.642622
H47   H     H_    0.315233 0.100090 0.378102 0.285805
O27   O     O_3   0.438414 0.342198 0.062605 -0.658721
H48   H     H_    0.478346 0.337122 0.023882 0.340125
O28   O     O_3   0.502352 0.228198 0.003453 -0.654221
H49   H     H_    0.545120 0.185550 0.988609 0.291924
N8    N     N_3   0.147417 0.382094 0.252856 -0.638944
H50   H     H_    0.222365 0.424771 0.261399 0.230256
H51   H     H_    0.072398 0.365418 0.287033 0.235143
O29   O     O_3   0.703264 0.888274 0.765808 -0.643324
H52   H     H_    0.636126 0.871551 0.798650 0.292662

loop_
_geom_bond_atom_site_label_1
_geom_bond_atom_site_label_2
_ccdc_geom_bond_type
C13   C19   A    
C49   C53   A    
C33   C34   T    
C47   C65   S    
C59   C60   A    
C53   C57   A    
C36   H15   S    
C24   C25   S    
C4    C6    S    
C40   N5    S    
C7    C8    A    
C37   N6    S    
C1    O6    A    
N3    H33   S    
C63   H24   S    
O18   C67   A    
C61   C64   A    
N2    H30   S    
C15   N1    S    
N1    H28   S    
C26   C32   T    
O12   C65   A    
C35   H20   S    
C14   C15   A    
N8    H50   S    
C35   H14   S    
O12   V3    S    
C16   C17   A    
C30   H13   S    
N7    H46   S    
C7    H2    S    
C5    C67   S    
O5    C3    A    
C43   H18   S    
C50   O28   S    
C52   C54   A    
C14   H5    S    
N2    H31   S    
N6    H42   S    
C16   O29   S    
C5    C8    A    
O19   C68   A    
N6    H43   S    
C45   C46   T    
V4    O20   S    
C57   N7    S    
V3    O20   S    
O8    V2    S    
C23   H6    S    
C38   C44   T    
C9    H4    S    
C54   C58   A    
C35   C39   S    
O19   V4    S    
C40   C41   S    
O26   H47   S    
C12   C13   A    
C42   C43   S    
C28   O21   S    
C11   C15   A    
O7    V1    S    
C1    C46   S    
C3    C26   S    
C25   C29   S    
C40   H21   S    
N8    H51   S    
O9    C4    A    
C42   H19   S    
C48   C64   A    
C20   N2    S    
C60   C61   A    
C24   C27   S    
O17   V3    S    
N1    H29   S    
O11   V4    S    
C23   N4    S    
C43   H17   S    
V2    O10   S    
O13   V3    S    
C42   H22   S    
C29   C30   S    
C28   H12   S    
N4    H37   S    
N7    H45   S    
N5    H39   S    
O4    C2    A    
C52   C53   A    
C22   O23   S    
C13   C14   A    
C51   C52   A    
C5    C9    A    
C37   C41   S    
O14   V3    S    
C55   C61   A    
C41   C44   S    
O2    C1    A    
C17   C18   A    
C31   N3    S    
O17   V4    S    
C36   C39   S    
C49   C50   A    
C62   C63   A    
C28   C29   S    
C19   C22   A    
C34   C68   S    
C38   C66   S    
C60   C62   A    
O15   V3    S    
C6    C22   A    
O18   V4    S    
O3    C4    A    
N5    H40   S    
O1    V2    S    
C39   C45   S    
C36   O24   S    
O6    V2    S    
O16   V4    S    
O13   C68   A    
C25   H9    S    
O23   H36   S    
C48   C63   A    
C10   C12   A    
C59   O26   S    
O22   H35   S    
O2    V1    S    
C47   C50   A    
C51   H25   S    
C30   C31   S    
O11   C66   A    
O25   H44   S    
N4    H38   S    
C37   H16   S    
O1    C2    A    
C65   O16   A    
C31   O22   S    
C12   C16   A    
N3    H34   S    
O5    V1    S    
C30   H11   S    
O8    C3    A    
C49   O27   S    
C58   H26   S    
C17   H1    S    
C29   C32   S    
O29   H52   S    
C56   N8    S    
O9    V2    S    
O7    V2    S    
O4    V1    S    
O3    V1    S    
C27   C33   S    
O24   H41   S    
C20   C21   A    
C18   C20   A    
C8    H3    S    
C56   C57   A    
C18   C19   A    
O21   H32   S    
C23   C28   S    
C58   C59   A    
C24   H7    S    
O14   C66   A    
C39   C43   S    
C25   H10   S    
C36   C37   S    
C6    C21   A    
C41   C42   S    
C27   C31   S    
C21   O25   S    
O15   C67   A    
C7    C11   A    
C2    C48   S    
C54   C55   A    
C35   C40   S    
C64   H23   S    
C62   H27   S    
O28   H49   S    
C24   H8    S    
C10   C11   A    
V1    O10   S    
C55   C56   A    
C9    C10   A    
C47   C51   A    
C23   C27   S    
O27   H48   S    
