data_mof_unit_58691.cif
_audit_creation_date              2012-12-10T19:47:22-0500
_audit_creation_method            fapswitch 2.2
_symmetry_space_group_name_H-M    P1
_symmetry_Int_Tables_number       1
_space_group_crystal_system       triclinic
_cell_length_a                    10.815843
_cell_length_b                    10.816162
_cell_length_c                    12.733672
_cell_angle_alpha                 92.851004
_cell_angle_beta                  93.03013
_cell_angle_gamma                 89.281881
_cell_volume                      1485.66298203

loop_
_atom_site_label
_atom_site_type_symbol
_atom_type_description
_atom_site_fract_x
_atom_site_fract_y
_atom_site_fract_z
_atom_type_partial_charge
C1    C     C_R   0.262020 0.497191 0.500471 0.798136
C2    C     C_R   0.737980 0.502809 0.499529 0.798136
C3    C     C_R   0.496345 0.871506 0.497290 -0.083637
C4    C     C_R   0.503656 0.128494 0.502709 -0.083640
C5    C     C_R   0.422339 0.936325 0.423353 -0.007520
C6    C     C_R   0.577662 0.063675 0.576645 -0.007519
C7    C     C_R   0.262763 0.184714 0.703123 -0.205415
C8    C     C_R   0.737233 0.815263 0.296845 -0.205400
C9    C     C_R   0.204257 0.258211 0.627892 -0.134839
C10   C     C_R   0.795743 0.741782 0.372087 -0.134845
C11   C     C_R   0.133095 0.361679 0.659437 0.034964
C12   C     C_R   0.866905 0.638306 0.340554 0.034966
C13   C     C_R   0.120880 0.390220 0.767191 -0.158555
C14   C     C_R   0.879117 0.609745 0.232801 -0.158549
C15   C     C_R   0.179217 0.316872 0.843053 0.473950
C16   C     C_R   0.820776 0.683078 0.156929 0.473935
C17   C     C_R   0.250648 0.213588 0.810275 -0.190890
C18   C     C_R   0.749343 0.786367 0.189695 -0.190870
C19   C     C_R   0.938769 0.444489 0.578743 -0.240194
C20   C     C_R   0.061231 0.555509 0.421257 -0.240196
C21   C     C_R   0.871647 0.505165 0.499325 -0.077565
C22   C     C_R   0.128353 0.494835 0.500675 -0.077566
C23   C     C_R   0.504017 0.261992 0.500932 0.796639
C24   C     C_R   0.495984 0.738008 0.499068 0.796637
C25   C     C_R   0.932895 0.563009 0.420351 0.025215
C26   C     C_R   0.067106 0.436989 0.579648 0.025221
C27   C     C_2   0.486046 0.453027 0.030928 0.300992
C28   C     C_2   0.513948 0.546973 0.969072 0.300989
C29   C     C_1   0.517754 0.529342 0.852577 0.162826
C30   C     C_1   0.482244 0.470658 0.147423 0.162835
C31   C     C_R   0.880228 0.160150 0.716279 -0.156044
C32   C     C_R   0.119767 0.839857 0.283726 -0.156042
C33   C     C_R   0.794327 0.113252 0.639094 -0.170344
C34   C     C_R   0.205673 0.886747 0.360910 -0.170344
C35   C     C_R   0.666939 0.124261 0.654166 0.096397
C36   C     C_R   0.333060 0.875739 0.345835 0.096400
C37   C     C_R   0.626793 0.181605 0.747946 -0.075107
C38   C     C_R   0.373201 0.818404 0.252051 -0.075112
C39   C     C_R   0.713043 0.230716 0.823992 -0.122379
C40   C     C_R   0.286946 0.769300 0.176007 -0.122383
C41   C     C_R   0.839659 0.219778 0.808276 -0.134875
C42   C     C_R   0.160331 0.780238 0.191726 -0.134874
C43   C     C_R   0.572982 0.935384 0.572789 -0.247910
C44   C     C_R   0.427020 0.064615 0.427209 -0.247910
Cu1   Cu    Cu3+1 0.492140 0.492110 0.395880 0.988208
Cu2   Cu    Cu3+1 0.507860 0.507890 0.604120 0.988206
H1    H     H_    0.906258 0.256550 0.867782 0.165258
H2    H     H_    0.093728 0.743473 0.132221 0.165242
H3    H     H_    0.065341 0.469254 0.792285 0.158981
H4    H     H_    0.934655 0.530706 0.207716 0.158981
H5    H     H_    0.890506 0.399036 0.638261 0.173805
H6    H     H_    0.109493 0.600958 0.361736 0.173808
H7    H     H_    0.978195 0.149792 0.704847 0.152969
H8    H     H_    0.021801 0.850215 0.295162 0.152967
H9    H     H_    0.529164 0.187641 0.762384 0.154496
H10   H     H_    0.470827 0.812371 0.237608 0.154487
H11   H     H_    0.681951 0.275776 0.895766 0.172145
H12   H     H_    0.318033 0.724247 0.104230 0.172147
H13   H     H_    0.631125 0.884783 0.628335 0.157658
H14   H     H_    0.368877 0.115216 0.371663 0.157660
H15   H     H_    0.296426 0.155339 0.867457 0.138545
H16   H     H_    0.703562 0.844604 0.132504 0.138557
H17   H     H_    0.317022 0.104778 0.678301 0.155933
H18   H     H_    0.682972 0.895203 0.321659 0.155924
H19   H     H_    0.213263 0.233787 0.545096 0.116927
H20   H     H_    0.786740 0.766220 0.454881 0.116927
N1    N     N_1   0.480320 0.480250 0.239400 -0.161513
N2    N     N_1   0.519680 0.519750 0.760600 -0.161515
O1    O     O_R   0.313000 0.493330 0.412070 -0.579520
O2    O     O_R   0.687000 0.506670 0.587930 -0.579520
O3    O     O_R   0.326280 0.506660 0.587930 -0.562745
O4    O     O_R   0.673720 0.493340 0.412070 -0.562746
O5    O     O_R   0.493370 0.312980 0.412070 -0.583647
O6    O     O_R   0.506630 0.687020 0.587930 -0.583647
O7    O     O_R   0.506650 0.326310 0.587930 -0.570066
O8    O     O_R   0.493350 0.673690 0.412070 -0.570065
O9    O     O_3   0.163646 0.347660 0.947930 -0.735016
H21   H     H_    0.207415 0.285226 0.991051 0.322960
O10   O     O_3   0.836346 0.652270 0.052053 -0.735019
H22   H     H_    0.792570 0.714693 0.008922 0.322957
O11   O     O_3   0.537358 0.662450 0.016664 -0.788612
H23   H     H_    0.554120 0.720017 0.960969 0.309715
O12   O     O_3   0.462628 0.337550 0.983334 -0.788595
H24   H     H_    0.445874 0.279983 0.039030 0.309725
H25   H     H_    0.826950 0.066530 0.568410 0.129663
H26   H     H_    0.173054 0.933463 0.431596 0.129664

loop_
_geom_bond_atom_site_label_1
_geom_bond_atom_site_label_2
_ccdc_geom_bond_type
O11   H23   S    
C39   C41   A    
C14   H4    S    
Cu1   Cu2   S    
C3    C43   A    
C1    O3    A    
Cu1   O8    S    
Cu1   O5    S    
C28   C29   S    
C19   C21   A    
C20   C25   A    
C39   H11   S    
C5    C36   S    
C6    C35   S    
C7    C9    A    
C34   H26   S    
C19   C26   A    
C33   H25   S    
C17   H15   S    
C7    C17   A    
Cu1   N1    S    
C31   C33   A    
C30   N1    T    
C43   H13   S    
C40   C42   A    
C1    C22   S    
Cu1   O4    S    
C3    C24   S    
C23   O5    A    
C2    O4    A    
C32   H8    S    
Cu2   O7    S    
C9    H19   S    
C10   H20   S    
C40   H12   S    
Cu1   O1    S    
C4    C6    A    
C23   O7    A    
C4    C23   S    
C24   O8    A    
C4    C44   A    
C11   C26   S    
O9    H21   S    
C8    C18   A    
C32   C34   A    
Cu2   N2    S    
C29   N2    T    
O12   H24   S    
C2    C21   S    
C41   H1    S    
C16   C18   A    
C42   H2    S    
C31   H7    S    
C9    C11   A    
C7    H17   S    
Cu2   O3    S    
C10   C12   A    
C8    H18   S    
C13   H3    S    
C8    C10   A    
C5    C44   A    
C20   C22   A    
C6    C43   A    
C13   C15   A    
C14   C16   A    
Cu2   O6    S    
C15   C17   A    
C21   C25   A    
C31   C41   A    
C35   C37   A    
C28   O11   S    
C18   H16   S    
C12   C14   A    
C3    C5    A    
C12   C25   S    
C16   O10   S    
C27   O12   S    
C37   C39   A    
C38   C40   A    
C11   C13   A    
C24   O6    A    
C15   O9    S    
C44   H14   S    
C36   C38   A    
C33   C35   A    
C34   C36   A    
C1    O1    A    
Cu2   O2    S    
O10   H22   S    
C37   H9    S    
C19   H5    S    
C38   H10   S    
C20   H6    S    
C22   C26   A    
C27   C28   D    
C32   C42   A    
C2    O2    A    
C27   C30   S    
