data_mof_unit_34488.cif
_audit_creation_date              2013-03-05T15:42:40-0500
_audit_creation_method            fapswitch 2.2
_symmetry_space_group_name_H-M    P1
_symmetry_Int_Tables_number       1
_space_group_crystal_system       triclinic
_cell_length_a                    7.730225
_cell_length_b                    8.725123
_cell_length_c                    27.747333
_cell_angle_alpha                 88.837221
_cell_angle_beta                  84.585581
_cell_angle_gamma                 95.105679
_cell_volume                      1854.95948617

loop_
_atom_site_label
_atom_site_type_symbol
_atom_site_description
_atom_site_fract_x
_atom_site_fract_y
_atom_site_fract_z
_atom_type_partial_charge
O1    O     O_R   0.389250 0.738570 0.503220 -0.620533
O2    O     O_R   0.610750 0.261430 0.496780 -0.616735
O3    O     O_R   0.678390 0.711630 0.494810 -0.591990
O4    O     O_R   0.321610 0.288370 0.505190 -0.593341
C1    C     C_R   0.546594 0.795026 0.498640 0.961968
C2    C     C_R   0.453505 0.204976 0.501457 0.961207
O5    O     O_R   0.355440 0.513440 0.575450 -0.589727
O6    O     O_R   0.644560 0.486560 0.424550 -0.586203
O7    O     O_R   0.644590 0.486500 0.567040 -0.595975
O8    O     O_R   0.355410 0.513500 0.432960 -0.596774
C3    C     C_R   0.500543 0.499040 0.594087 1.002450
C4    C     C_R   0.499509 0.500782 0.405928 1.013251
Zn1   Zn    Zn3+2 0.306940 0.517990 0.505620 1.072624
Zn2   Zn    Zn3+2 0.693060 0.482010 0.494380 1.074461
C5    C     C_R   0.537626 0.611299 0.820967 0.637785
C6    C     C_R   0.490417 0.380471 0.178295 0.622892
O9    O     O_2   0.506936 0.739214 0.796228 -0.478621
O10   O     O_2   0.518908 0.253287 0.203744 -0.458110
N1    N     N_R   0.533223 0.472644 0.798661 -0.317259
N2    N     N_R   0.490736 0.519304 0.200380 -0.324048
C7    C     C_R   0.545330 0.339240 0.824325 0.652985
C8    C     C_R   0.482646 0.652348 0.174164 0.656976
C9    C     C_R   0.376551 0.397526 0.727398 0.409143
C10   C     C_R   0.635944 0.597818 0.273211 0.425845
C11   C     C_R   0.374354 0.400581 0.676498 0.023491
C12   C     C_R   0.629923 0.598668 0.324186 0.042257
C13   C     C_R   0.637255 0.582632 0.668435 0.269616
C14   C     C_R   0.367823 0.415844 0.330678 0.345367
C15   C     C_R   0.658277 0.554181 0.717179 0.132127
C16   C     C_R   0.354700 0.440330 0.281193 0.165685
C17   C     C_R   0.523740 0.470909 0.747254 0.003163
C18   C     C_R   0.493077 0.522207 0.252033 -0.019961
C19   C     C_R   0.547862 0.483192 0.897789 -0.075980
C20   C     C_R   0.489079 0.507422 0.100801 -0.074281
C21   C     C_R   0.571814 0.619795 0.869543 -0.131837
C22   C     C_R   0.462555 0.371125 0.129234 -0.134905
C23   C     C_R   0.643443 0.755070 0.889627 0.181947
C24   C     C_R   0.393649 0.235412 0.108816 0.180432
C25   C     C_R   0.535238 0.340741 0.874956 -0.036841
C26   C     C_R   0.499326 0.650170 0.123512 -0.022636
C27   C     C_R   0.502257 0.496433 0.647088 -0.316773
C28   C     C_R   0.499505 0.503651 0.352905 -0.342618
C29   C     C_R   0.542073 0.638953 0.021527 0.092456
C30   C     C_R   0.500215 0.351128 0.976961 0.090995
C31   C     C_R   0.468649 0.357557 0.028007 -0.030877
C32   C     C_R   0.573213 0.632392 0.970484 -0.029839
C33   C     C_R   0.501735 0.500944 0.049887 0.067390
C34   C     C_R   0.539075 0.489208 0.948650 0.066474
C35   C     C_R   0.535292 0.779815 0.045177 -0.133672
C36   C     C_R   0.507246 0.210542 0.953154 -0.138642
C37   C     C_R   0.520041 0.785730 0.095296 -0.083670
C38   C     C_R   0.518264 0.204956 0.903025 -0.094590
O11   O     O_2   0.462022 0.785256 0.196980 -0.451982
O12   O     O_2   0.564037 0.206789 0.801061 -0.463882
C39   C     C_R   0.651997 0.758807 0.940180 0.059940
C40   C     C_R   0.388662 0.231162 0.058139 0.062206
H1    H     H_    0.527947 0.896973 0.111684 0.200623
H2    H     H_    0.509179 0.093878 0.886559 0.206412
H3    H     H_    0.536356 0.887023 0.025291 0.168626
H4    H     H_    0.508289 0.103383 0.972927 0.170214
C41   C     C_2   0.569571 0.958015 0.493806 -0.045738
C42   C     C_2   0.431103 0.042069 0.506682 -0.057741
N3    N     N_2   0.950320 0.457960 0.486880 -0.152717
N4    N     N_2   0.049680 0.542040 0.513120 -0.154556
H5    H     H_    0.014495 0.379600 0.466527 0.259241
H6    H     H_    0.985589 0.620897 0.533245 0.258267
S1    S     S_3+6 0.772793 0.735507 0.636747 0.083878
O13   O     O_2   0.947796 0.679675 0.622021 -0.248214
O14   O     O_2   0.695799 0.791298 0.592722 -0.329430
O15   O     O_3   0.800752 0.886117 0.673024 -0.439294
H7    H     H_    0.681090 0.910115 0.684465 0.377532
S2    S     S_3+6 0.226629 0.266636 0.362389 0.073779
O16   O     O_2   0.299698 0.212035 0.407212 -0.334253
O17   O     O_2   0.052266 0.325907 0.375660 -0.283681
O18   O     O_3   0.200342 0.114628 0.326598 -0.460689
H8    H     H_    0.121848 0.037137 0.346561 0.405412
I1    I     I_    0.898826 0.631084 0.745911 0.019261
I2    I     I_    0.120154 0.361190 0.249808 0.017156
I3    I     I_    0.790583 0.929226 0.842294 -0.058642
I4    I     I_    0.244457 0.060992 0.155524 -0.089452
I5    I     I_    0.806287 0.755577 0.358262 -0.093781
I6    I     I_    0.189140 0.249422 0.643341 -0.034116
S3    S     S_3+6 0.817203 0.695343 0.236229 0.098987
O19   O     O_2   0.984039 0.692810 0.259748 -0.232725
O20   O     O_2   0.842697 0.621827 0.187840 -0.319236
O21   O     O_3   0.778243 0.880216 0.228095 -0.445983
H9    H     H_    0.860050 0.919294 0.200029 0.400616
S4    S     S_3+6 0.200615 0.298802 0.766130 0.101498
O22   O     O_2   0.029538 0.298090 0.744648 -0.223870
O23   O     O_2   0.239092 0.134609 0.773576 -0.207491
O24   O     O_3   0.177190 0.382937 0.820112 -0.567248
H10   H     H_    0.116558 0.301977 0.842789 0.389097
I7    I     I_    0.839622 0.924967 0.965806 -0.287811
I8    I     I_    0.203647 0.063878 0.031798 -0.287918
I9    I     I_    0.822500 0.037853 0.457551 -0.123186
I10   I     I_    0.180131 0.962513 0.543987 -0.075658

loop_
_geom_bond_atom_site_label_1
_geom_bond_atom_site_label_2
_geom_bond_distance
_ccdc_geom_bond_type
N3    H5    1.027443 S    
C42   I10   2.160860 S    
C13   C15   1.397275 A    
O18   H8    0.990200 S    
C23   C39   1.411389 A    
N1    C17   1.435508 S    
C14   S2    1.783173 S    
C40   I8    2.139871 S    
C23   I3    2.158024 S    
C19   C25   1.406324 A    
O1    C1    1.264850 A    
C6    N2    1.368477 A    
C21   C23   1.406715 A    
C10   S3    1.794812 S    
C10   C12   1.410979 A    
C7    O12   1.347410 S    
O4    Zn1   2.016933 S    
C4    C28   1.470966 S    
C31   C40   1.428690 A    
C35   C37   1.386948 A    
C32   C39   1.428526 A    
C36   C38   1.387619 A    
C24   C40   1.411455 A    
O15   H7    0.990975 S    
C37   H1    1.079437 S    
C39   I7    2.138511 S    
C25   C38   1.393933 A    
O2    C2    1.264147 A    
S2    O18   1.682317 S    
C5    C21   1.399933 A    
O5    C3    1.293551 A    
C8    O11   1.347077 S    
C31   C33   1.415040 A    
C38   H2    1.079303 S    
C32   C34   1.414096 A    
S1    O13   1.501809 D    
O4    C2    1.301872 A    
C11   C27   1.419780 A    
O24   H10   0.990929 S    
O21   H9    0.990214 S    
C29   C35   1.407700 A    
S1    O14   1.499378 D    
C9    C17   1.418106 A    
C5    N1    1.369254 A    
O7    Zn2   2.017403 S    
C10   C18   1.417304 A    
C13   C27   1.414399 A    
S3    O19   1.500980 D    
C7    C25   1.400072 A    
S4    O24   1.682960 S    
O6    C4    1.292727 A    
C8    C26   1.399853 A    
C1    C41   1.419406 S    
O7    C3    1.297078 A    
O3    Zn2   2.016933 S    
O8    C4    1.297472 A    
S2    O17   1.502637 D    
S3    O20   1.503518 D    
N2    C8    1.366682 A    
C12   I5    2.142566 S    
C9    S4    1.795760 S    
C11   I6    2.144180 S    
C20   C26   1.406537 A    
O1    Zn1   1.970322 S    
C22   C24   1.406682 A    
C30   C31   1.417501 A    
C12   C28   1.418278 A    
N2    C18   1.435770 S    
C30   C36   1.407802 A    
C5    O9    1.349030 S    
O6    Zn2   2.008242 S    
N1    C7    1.367103 A    
S4    O23   1.502973 D    
S2    O16   1.499741 D    
O3    C1    1.301296 A    
O8    Zn1   2.017403 S    
C41   I9    2.162871 S    
C26   C37   1.393781 A    
C35   H3    1.075326 S    
S1    O15   1.682546 S    
C36   H4    1.075459 S    
C2    C42   1.419311 S    
C14   C16   1.399831 A    
C15   C17   1.408190 A    
C6    C22   1.401055 A    
C16   C18   1.409408 A    
Zn1   N4    2.010006 S    
C24   I4    2.156673 S    
Zn2   N3    2.010005 S    
C14   C28   1.415032 A    
C19   C21   1.401627 A    
C3    C27   1.471698 S    
C20   C22   1.402370 A    
C9    C11   1.413788 A    
C41   C42   1.374556 D    
O2    Zn2   1.970322 S    
C29   C32   1.417215 A    
C13   S1    1.783199 S    
N3    N4    1.298137 D    
C16   I2    2.149897 S    
O5    Zn1   2.008242 S    
S3    O21   1.681681 S    
C15   I1    2.150111 S    
S4    O22   1.500569 D    
C6    O10   1.348924 S    
C19   C34   1.408741 A    
C20   C33   1.409523 A    
C29   C33   1.419454 A    
C30   C34   1.418256 A    
N4    H6    1.027006 S    
