data_mof_unit_61167.cif
_audit_creation_date              2012-12-10T18:10:41-0500
_audit_creation_method            fapswitch 2.2
_symmetry_space_group_name_H-M    P1
_symmetry_Int_Tables_number       1
_space_group_crystal_system       triclinic
_cell_length_a                    18.361945
_cell_length_b                    18.358864
_cell_length_c                    47.184508
_cell_angle_alpha                 90.000092
_cell_angle_beta                  89.99993
_cell_angle_gamma                 89.999978
_cell_volume                      15906.1076664

loop_
_atom_site_label
_atom_site_type_symbol
_atom_type_description
_atom_site_fract_x
_atom_site_fract_y
_atom_site_fract_z
_atom_type_partial_charge
C1    C     C_R   0.999904 0.860126 0.000000 0.844224
C2    C     C_R   0.139876 0.000036 0.999998 0.844160
C3    C     C_R   0.000096 0.139874 0.000000 0.844224
C4    C     C_R   0.860124 0.999964 0.999998 0.844160
C5    C     C_R   0.500096 0.360126 0.500000 0.843576
C6    C     C_R   0.639876 0.499964 0.500002 0.843511
C7    C     C_R   0.499904 0.639874 0.500000 0.843576
C8    C     C_R   0.360124 0.500036 0.500002 0.843511
C9    C     C_R   0.459833 0.052243 0.869342 -0.191609
C10   C     C_R   0.021864 0.437767 0.869860 -0.195386
C11   C     C_R   0.540166 0.947755 0.869342 -0.191609
C12   C     C_R   0.978136 0.562234 0.869861 -0.195385
C13   C     C_R   0.454643 0.952162 0.130519 -0.188373
C14   C     C_R   0.951899 0.545080 0.130520 -0.188630
C15   C     C_R   0.545356 0.047840 0.130519 -0.188372
C16   C     C_R   0.048100 0.454920 0.130520 -0.188627
C17   C     C_R   0.954617 0.547816 0.369484 -0.191310
C18   C     C_R   0.451912 0.954906 0.369482 -0.191566
C19   C     C_R   0.045383 0.452183 0.369484 -0.191303
C20   C     C_R   0.548087 0.045099 0.369483 -0.191531
C21   C     C_R   0.959834 0.447756 0.630658 -0.191660
C22   C     C_R   0.521862 0.062234 0.630139 -0.195440
C23   C     C_R   0.040165 0.552245 0.630658 -0.191660
C24   C     C_R   0.478137 0.937766 0.630139 -0.195444
C25   C     C_R   0.458361 0.051771 0.899032 0.351501
C26   C     C_R   0.023845 0.437973 0.899617 0.330179
C27   C     C_R   0.541639 0.948228 0.899032 0.351501
C28   C     C_R   0.976154 0.562027 0.899618 0.330178
C29   C     C_R   0.453498 0.952554 0.100829 0.357095
C30   C     C_R   0.952280 0.546225 0.100831 0.356984
C31   C     C_R   0.546502 0.047446 0.100828 0.357095
C32   C     C_R   0.047719 0.453774 0.100831 0.356983
C33   C     C_R   0.953439 0.547396 0.399174 0.352985
C34   C     C_R   0.452320 0.953727 0.399172 0.352899
C35   C     C_R   0.046561 0.452603 0.399174 0.352983
C36   C     C_R   0.547679 0.046278 0.399172 0.352888
C37   C     C_R   0.958362 0.448228 0.600968 0.351411
C38   C     C_R   0.523844 0.062027 0.600382 0.330139
C39   C     C_R   0.041638 0.551773 0.600968 0.351411
C40   C     C_R   0.476156 0.937972 0.600382 0.330141
C41   C     C_R   0.500000 1.000000 0.914142 -0.243775
C42   C     C_R   1.000000 0.500000 0.914473 -0.201805
C43   C     C_R   0.500000 0.000000 0.085763 -0.245719
C44   C     C_R   1.000000 0.500000 0.085764 -0.244144
C45   C     C_R   1.000000 0.500000 0.414240 -0.242685
C46   C     C_R   0.500000 0.000002 0.414239 -0.241126
C47   C     C_R   1.000000 0.500000 0.585858 -0.243838
C48   C     C_R   0.500000 1.000000 0.585527 -0.201941
C49   C     C_R   0.500000 0.999999 0.854366 0.229989
C50   C     C_R   0.000000 0.500000 0.854881 0.243342
C51   C     C_R   0.500000 0.000001 0.145473 0.222958
C52   C     C_R   1.000000 0.500000 0.145474 0.223082
C53   C     C_R   1.000000 0.499999 0.354556 0.232685
C54   C     C_R   0.500000 0.000002 0.354555 0.232795
C55   C     C_R   1.000000 0.500000 0.645634 0.230025
C56   C     C_R   0.500000 1.000000 0.645119 0.243357
C57   C     C_1   0.782621 0.999940 0.999986 -0.181596
C58   C     C_1   0.999887 0.782624 0.999997 -0.175346
C59   C     C_1   0.217379 0.000060 0.999986 -0.181596
C60   C     C_1   0.000113 0.217376 0.999997 -0.175347
C61   C     C_1   0.282621 0.500060 0.500014 -0.181116
C62   C     C_1   0.500113 0.282624 0.500003 -0.174864
C63   C     C_1   0.717379 0.499940 0.500014 -0.181114
C64   C     C_1   0.499887 0.717376 0.500003 -0.174854
C65   C     C_1   0.717345 0.999951 0.999971 -0.184311
C66   C     C_1   0.999939 0.717344 0.999990 -0.170591
C67   C     C_1   0.282654 0.000049 0.999970 -0.184311
C68   C     C_1   0.000061 0.282656 0.999990 -0.170591
C69   C     C_1   0.217345 0.500049 0.500029 -0.184426
C70   C     C_1   0.500061 0.217344 0.500009 -0.170716
C71   C     C_1   0.782655 0.499951 0.500029 -0.184427
C72   C     C_1   0.499939 0.782656 0.500010 -0.170722
C73   C     C_R   0.500000 1.000000 0.945446 0.845551
C74   C     C_R   0.000000 0.500000 0.945560 0.928366
C75   C     C_R   0.500000 1.000000 0.054520 0.850631
C76   C     C_R   1.000000 0.500000 0.054520 0.847976
C77   C     C_R   1.000000 0.500000 0.445480 0.851505
C78   C     C_R   0.500000 1.000000 0.445481 0.848853
C79   C     C_R   1.000000 0.500000 0.554554 0.846004
C80   C     C_R   0.500000 0.000000 0.554440 0.928831
C81   C     C_R   0.639864 0.999990 0.999975 0.819570
C82   C     C_R   0.999988 0.639861 0.999989 0.849650
C83   C     C_R   0.360136 0.000010 0.999975 0.819571
C84   C     C_R   0.000012 0.360139 0.999989 0.849650
C85   C     C_R   0.139864 0.500010 0.500024 0.820180
C86   C     C_R   0.500012 0.139860 0.500010 0.850243
C87   C     C_R   0.860136 0.499990 0.500024 0.820183
C88   C     C_R   0.499988 0.860139 0.500010 0.850254
C89   C     C_R   0.939361 0.476436 0.190304 0.549151
C90   C     C_R   0.523197 0.939212 0.190303 0.549139
C91   C     C_R   0.060639 0.523565 0.190304 0.549152
C92   C     C_R   0.476803 0.060790 0.190303 0.549139
C93   C     C_R   0.935717 0.509986 0.810001 0.549375
C94   C     C_R   0.564093 0.011141 0.809492 0.551028
C95   C     C_R   0.064284 0.490014 0.810001 0.549376
C96   C     C_R   0.435906 0.988857 0.809492 0.551028
C97   C     C_R   0.435716 0.990013 0.689999 0.549360
C98   C     C_R   0.064093 0.488858 0.690508 0.550996
C99   C     C_R   0.564283 0.009985 0.689999 0.549359
C100  C     C_R   0.935906 0.511142 0.690508 0.550996
C101  C     C_R   0.477199 0.060943 0.309777 0.551909
C102  C     C_R   0.060793 0.523168 0.309778 0.551897
C103  C     C_R   0.522801 0.939061 0.309777 0.551908
C104  C     C_R   0.939207 0.476831 0.309778 0.551896
C105  C     C_R   0.061974 0.523776 0.220099 -0.025388
C106  C     C_R   0.476599 0.062127 0.220098 -0.025375
C107  C     C_R   0.938026 0.476224 0.220099 -0.025389
C108  C     C_R   0.523401 0.937875 0.220098 -0.025376
C109  C     C_R   0.065510 0.489395 0.780202 -0.022084
C110  C     C_R   0.434545 0.989045 0.779694 -0.022346
C111  C     C_R   0.934490 0.510606 0.780202 -0.022084
C112  C     C_R   0.565454 0.010953 0.779694 -0.022346
C113  C     C_R   0.565510 0.010605 0.719798 -0.022069
C114  C     C_R   0.934545 0.510954 0.720306 -0.022348
C115  C     C_R   0.434489 0.989394 0.719798 -0.022069
C116  C     C_R   0.065454 0.489047 0.720306 -0.022347
C117  C     C_R   0.523232 0.937801 0.279983 -0.023370
C118  C     C_R   0.937949 0.476392 0.279984 -0.023351
C119  C     C_R   0.476768 0.062203 0.279983 -0.023371
C120  C     C_R   0.062050 0.523607 0.279984 -0.023350
C121  C     C_R   1.000000 0.500000 0.235052 -0.014451
C122  C     C_R   0.500000 0.000001 0.235051 -0.014453
C123  C     C_R   0.000000 0.500000 0.765247 -0.015382
C124  C     C_R   0.500000 0.999999 0.764738 -0.015609
C125  C     C_R   0.500000 0.999999 0.734753 -0.015380
C126  C     C_R   1.000000 0.500000 0.735262 -0.015610
C127  C     C_R   0.500000 0.000002 0.265029 -0.015104
C128  C     C_R   1.000000 0.500000 0.265031 -0.015104
C129  C     C_R   0.123547 0.547331 0.235241 -0.157241
C130  C     C_R   0.453417 0.123851 0.235240 -0.157246
C131  C     C_R   0.876453 0.452669 0.235241 -0.157241
C132  C     C_R   0.546583 0.876152 0.235240 -0.157246
C133  C     C_R   0.130551 0.478670 0.765055 -0.158365
C134  C     C_R   0.369500 0.978355 0.764547 -0.158254
C135  C     C_R   0.869449 0.521331 0.765055 -0.158365
C136  C     C_R   0.630499 0.021643 0.764547 -0.158254
C137  C     C_R   0.630550 0.021330 0.734945 -0.158388
C138  C     C_R   0.869500 0.521644 0.735453 -0.158271
C139  C     C_R   0.369449 0.978668 0.734945 -0.158389
C140  C     C_R   0.130500 0.478357 0.735453 -0.158271
C141  C     C_R   0.546450 0.876097 0.264841 -0.158060
C142  C     C_R   0.876396 0.452802 0.264842 -0.158061
C143  C     C_R   0.453551 0.123907 0.264841 -0.158059
C144  C     C_R   0.123604 0.547197 0.264842 -0.158062
Cu1   Cu    Cu3+1 1.000000 0.000000 0.028150 0.949407
Cu2   Cu    Cu3+1 0.000000 0.000000 0.971850 0.975740
Cu3   Cu    Cu3+1 0.500000 0.500000 0.528150 0.975601
Cu4   Cu    Cu3+1 0.500000 0.500000 0.471850 0.955866
Cu5   Cu    Cu3+1 0.500000 0.072590 0.000000 1.010734
Cu6   Cu    Cu3+1 0.927410 0.500000 0.000000 1.000344
Cu7   Cu    Cu3+1 0.500000 0.927410 0.000000 1.010734
Cu8   Cu    Cu3+1 0.072590 0.500000 0.000000 1.000344
Cu9   Cu    Cu3+1 0.000000 0.572590 0.500000 1.008499
Cu10  Cu    Cu3+1 0.427410 0.000000 0.500000 0.998113
Cu11  Cu    Cu3+1 1.000000 0.427410 0.500000 1.008498
Cu12  Cu    Cu3+1 0.572590 0.000000 0.500000 0.998109
H1    H     H_    0.171929 0.565907 0.224281 0.190669
H2    H     H_    0.435133 0.172351 0.224280 0.190667
H3    H     H_    0.828070 0.434092 0.224281 0.190669
H4    H     H_    0.564867 0.827652 0.224280 0.190667
H5    H     H_    0.181710 0.470364 0.776012 0.189249
H6    H     H_    0.318378 0.969823 0.775504 0.189117
H7    H     H_    0.818290 0.529637 0.776012 0.189248
H8    H     H_    0.681621 0.030176 0.775504 0.189116
H9    H     H_    0.681710 0.029636 0.723988 0.189226
H10   H     H_    0.818378 0.530176 0.724496 0.189117
H11   H     H_    0.318289 0.970362 0.723988 0.189226
H12   H     H_    0.181622 0.469824 0.724496 0.189117
H13   H     H_    0.564634 0.827560 0.275803 0.189245
H14   H     H_    0.827977 0.434325 0.275804 0.189240
H15   H     H_    0.435366 0.172443 0.275803 0.189245
H16   H     H_    0.172023 0.565674 0.275804 0.189240
H17   H     H_    0.428999 0.093042 0.857898 0.174997
H18   H     H_    0.036973 0.389047 0.858339 0.165523
H19   H     H_    0.571000 0.906957 0.857898 0.174997
H20   H     H_    0.963027 0.610953 0.858339 0.165524
H21   H     H_    0.419325 0.915210 0.141979 0.174992
H22   H     H_    0.914741 0.580180 0.141980 0.175012
H23   H     H_    0.580674 0.084791 0.141979 0.174993
H24   H     H_    0.085258 0.419820 0.141980 0.175013
H25   H     H_    0.919671 0.585079 0.358004 0.172617
H26   H     H_    0.414439 0.920187 0.358002 0.172621
H27   H     H_    0.080329 0.414920 0.358004 0.172619
H28   H     H_    0.585560 0.079818 0.358003 0.172634
H29   H     H_    0.929000 0.406957 0.642102 0.174970
H30   H     H_    0.536970 0.110953 0.641661 0.165519
H31   H     H_    0.070999 0.593044 0.642102 0.174971
H32   H     H_    0.463030 0.889046 0.641661 0.165517
N1    N     N_R   1.000000 0.500000 0.176011 -0.444027
N2    N     N_R   0.500000 0.000001 0.176010 -0.444043
N3    N     N_R   0.000000 0.500000 0.824317 -0.441638
N4    N     N_R   0.500000 0.999999 0.823806 -0.440738
N5    N     N_R   0.500000 0.999999 0.675683 -0.441626
N6    N     N_R   1.000000 0.500000 0.676194 -0.440738
N7    N     N_R   0.500000 0.000002 0.324046 -0.442148
N8    N     N_R   1.000000 0.499999 0.324047 -0.442157
O1    O     O_R   0.999960 0.894270 0.023780 -0.590356
O2    O     O_R   0.105730 0.999960 0.023780 -0.588442
O3    O     O_R   0.000040 0.105730 0.023780 -0.590357
O4    O     O_R   0.894270 0.000040 0.023780 -0.588442
O5    O     O_R   0.999960 0.105730 0.976220 -0.576741
O6    O     O_R   0.105730 0.000040 0.976220 -0.582483
O7    O     O_R   0.000040 0.894270 0.976220 -0.576742
O8    O     O_R   0.894270 0.999960 0.976220 -0.582483
O9    O     O_R   0.499960 0.394270 0.523780 -0.577117
O10   O     O_R   0.605730 0.499960 0.523780 -0.582856
O11   O     O_R   0.500040 0.605730 0.523780 -0.577119
O12   O     O_R   0.394270 0.500040 0.523780 -0.582856
O13   O     O_R   0.499960 0.605730 0.476220 -0.589251
O14   O     O_R   0.605730 0.500040 0.476220 -0.587344
O15   O     O_R   0.500040 0.394270 0.476220 -0.589253
O16   O     O_R   0.394270 0.499960 0.476220 -0.587345
O17   O     O_R   0.500020 0.061320 0.958950 -0.549288
O18   O     O_R   0.938680 0.500020 0.958950 -0.585837
O19   O     O_R   0.499980 0.938680 0.958950 -0.549289
O20   O     O_R   0.061320 0.499980 0.958950 -0.585837
O21   O     O_R   0.500020 0.938680 0.041050 -0.551620
O22   O     O_R   0.938680 0.499980 0.041050 -0.552710
O23   O     O_R   0.499980 0.061320 0.041050 -0.551620
O24   O     O_R   0.061320 0.500020 0.041050 -0.552711
O25   O     O_R   0.000020 0.561320 0.458950 -0.552650
O26   O     O_R   0.438680 0.000020 0.458950 -0.553729
O27   O     O_R   0.999980 0.438680 0.458950 -0.552651
O28   O     O_R   0.561320 0.999980 0.458950 -0.553736
O29   O     O_R   0.000020 0.438680 0.541050 -0.549313
O30   O     O_R   0.438680 0.999980 0.541050 -0.585856
O31   O     O_R   0.999980 0.561320 0.541050 -0.549313
O32   O     O_R   0.561320 0.000020 0.541050 -0.585860
O33   O     O_R   0.605800 0.061300 0.000010 -0.582561
O34   O     O_R   0.938700 0.605800 0.000010 -0.592855
O35   O     O_R   0.394200 0.938700 0.000010 -0.582561
O36   O     O_R   0.061300 0.394200 0.000010 -0.592855
O37   O     O_R   0.605800 0.938700 0.999990 -0.587922
O38   O     O_R   0.938700 0.394200 0.999990 -0.580261
O39   O     O_R   0.394200 0.061300 0.999990 -0.587922
O40   O     O_R   0.061300 0.605800 0.999990 -0.580261
O41   O     O_R   0.105800 0.561300 0.500010 -0.588110
O42   O     O_R   0.438700 0.105800 0.500010 -0.580520
O43   O     O_R   0.894200 0.438700 0.500010 -0.588109
O44   O     O_R   0.561300 0.894200 0.500010 -0.580515
O45   O     O_R   0.105800 0.438700 0.499990 -0.582642
O46   O     O_R   0.438700 0.894200 0.499990 -0.592879
O47   O     O_R   0.894200 0.561300 0.499990 -0.582642
O48   O     O_R   0.561300 0.105800 0.499990 -0.592875
O49   O     O_2   0.880761 0.452657 0.175738 -0.530909
O50   O     O_2   0.546620 0.880461 0.175737 -0.530956
O51   O     O_2   0.119238 0.547343 0.175738 -0.530910
O52   O     O_2   0.453380 0.119541 0.175737 -0.530956
O53   O     O_2   0.873024 0.518594 0.824540 -0.545999
O54   O     O_2   0.626234 0.023065 0.824036 -0.545879
O55   O     O_2   0.126976 0.481407 0.824540 -0.545999
O56   O     O_2   0.373765 0.976933 0.824036 -0.545879
O57   O     O_2   0.373024 0.981405 0.675460 -0.546081
O58   O     O_2   0.126234 0.476935 0.675964 -0.545916
O59   O     O_2   0.626976 0.018593 0.675459 -0.546081
O60   O     O_2   0.873765 0.523066 0.675964 -0.545917
O61   O     O_2   0.454452 0.119913 0.324372 -0.543446
O62   O     O_2   0.119615 0.546272 0.324373 -0.543514
O63   O     O_2   0.545548 0.880092 0.324372 -0.543450
O64   O     O_2   0.880385 0.453727 0.324373 -0.543513
O65   O     O_3   0.417449 0.103485 0.913173 -0.551982
C145  C     C_3   0.346241 0.075980 0.916828 0.090563
H33   H     H_    0.346843 0.023991 0.929041 0.126552
H34   H     H_    0.319459 0.066753 0.895941 0.158122
C146  C     C_3   0.301137 0.131025 0.933338 -0.754385
H35   H     H_    0.298012 0.183144 0.921453 0.244351
H36   H     H_    0.245143 0.109673 0.936538 0.201878
H37   H     H_    0.326318 0.141180 0.954368 0.261262
O66   O     O_3   0.042184 0.375497 0.914410 -0.577796
C147  C     C_3   0.117740 0.362979 0.911758 0.093959
H38   H     H_    0.149679 0.412113 0.917993 0.157084
H39   H     H_    0.131949 0.347338 0.889652 0.154812
C148  C     C_3   0.139475 0.300695 0.931277 -0.761512
H40   H     H_    0.109244 0.250468 0.925462 0.253050
H41   H     H_    0.198800 0.290098 0.929326 0.197365
H42   H     H_    0.126935 0.315006 0.953615 0.256209
O67   O     O_3   0.582551 0.896515 0.913173 -0.551982
C149  C     C_3   0.653759 0.924020 0.916828 0.090564
H43   H     H_    0.653157 0.976009 0.929041 0.126552
H44   H     H_    0.680541 0.933247 0.895941 0.158122
C150  C     C_3   0.698862 0.868974 0.933338 -0.754386
H45   H     H_    0.701989 0.816855 0.921453 0.244351
H46   H     H_    0.754857 0.890327 0.936537 0.201878
H47   H     H_    0.673682 0.858820 0.954368 0.261262
O68   O     O_3   0.957815 0.624503 0.914410 -0.577797
C151  C     C_3   0.882259 0.637019 0.911759 0.093959
H48   H     H_    0.850321 0.587885 0.917994 0.157085
H49   H     H_    0.868048 0.652659 0.889652 0.154813
C152  C     C_3   0.860523 0.699304 0.931278 -0.761513
H50   H     H_    0.890754 0.749532 0.925462 0.253050
H51   H     H_    0.801198 0.709900 0.929327 0.197366
H52   H     H_    0.873066 0.684994 0.953616 0.256209
O69   O     O_3   0.407956 0.904970 0.086641 -0.546376
C153  C     C_3   0.339974 0.939419 0.082636 0.071044
H53   H     H_    0.346022 0.990293 0.069955 0.126239
H54   H     H_    0.314139 0.952651 0.103380 0.144378
C154  C     C_3   0.289524 0.888304 0.066572 -0.732708
H55   H     H_    0.280585 0.837752 0.079022 0.251032
H56   H     H_    0.236227 0.915316 0.062909 0.201028
H57   H     H_    0.313853 0.873863 0.045773 0.259462
O70   O     O_3   0.904399 0.591463 0.086646 -0.546194
C155  C     C_3   0.938448 0.659632 0.082579 0.074001
H58   H     H_    0.989413 0.653809 0.069942 0.124541
H59   H     H_    0.951416 0.685703 0.103303 0.144648
C156  C     C_3   0.887111 0.709646 0.066414 -0.740540
H60   H     H_    0.836447 0.718368 0.078813 0.252005
H61   H     H_    0.913805 0.763091 0.062709 0.200589
H62   H     H_    0.872934 0.685065 0.045632 0.256943
O71   O     O_3   0.592044 0.095031 0.086641 -0.546376
C157  C     C_3   0.660026 0.060581 0.082635 0.071044
H63   H     H_    0.653977 0.009707 0.069954 0.126239
H64   H     H_    0.685860 0.047348 0.103379 0.144378
C158  C     C_3   0.710475 0.111696 0.066571 -0.732706
H65   H     H_    0.719415 0.162248 0.079022 0.251031
H66   H     H_    0.763773 0.084683 0.062909 0.201028
H67   H     H_    0.686146 0.126137 0.045773 0.259463
O72   O     O_3   0.095600 0.408536 0.086646 -0.546194
C159  C     C_3   0.061549 0.340368 0.082577 0.074003
H68   H     H_    0.010586 0.346194 0.069940 0.124539
H69   H     H_    0.048577 0.314297 0.103301 0.144647
C160  C     C_3   0.112886 0.290353 0.066413 -0.740538
H70   H     H_    0.163548 0.281627 0.078814 0.252003
H71   H     H_    0.086191 0.236909 0.062707 0.200589
H72   H     H_    0.127068 0.314935 0.045632 0.256945
O73   O     O_3   0.907864 0.594940 0.413364 -0.551946
C161  C     C_3   0.839828 0.560523 0.417271 0.077923
H73   H     H_    0.845765 0.509559 0.429907 0.126243
H74   H     H_    0.814108 0.547449 0.396490 0.158100
C162  C     C_3   0.789324 0.611567 0.433343 -0.738004
H75   H     H_    0.780494 0.662208 0.420935 0.251061
H76   H     H_    0.735986 0.584570 0.436931 0.203317
H77   H     H_    0.813544 0.625852 0.454176 0.259273
O74   O     O_3   0.404473 0.908464 0.413360 -0.551767
C163  C     C_3   0.438468 0.840227 0.417318 0.080891
H78   H     H_    0.489544 0.845913 0.429897 0.124568
H79   H     H_    0.451235 0.814271 0.396552 0.158309
C164  C     C_3   0.387205 0.790174 0.433499 -0.745817
H80   H     H_    0.336425 0.781593 0.421156 0.252035
H81   H     H_    0.413863 0.736672 0.437118 0.202885
H82   H     H_    0.373235 0.814639 0.454323 0.256751
O75   O     O_3   0.092136 0.405058 0.413364 -0.551945
C165  C     C_3   0.160170 0.439479 0.417273 0.077927
H83   H     H_    0.154229 0.490440 0.429911 0.126237
H84   H     H_    0.185892 0.452559 0.396492 0.158097
C166  C     C_3   0.210674 0.388432 0.433343 -0.737996
H85   H     H_    0.219509 0.337795 0.420934 0.251059
H86   H     H_    0.264010 0.415432 0.436935 0.203315
H87   H     H_    0.186452 0.374141 0.454177 0.259273
O76   O     O_3   0.595525 0.091542 0.413359 -0.551766
C167  C     C_3   0.561513 0.159767 0.417330 0.080914
H88   H     H_    0.510460 0.154057 0.429922 0.124548
H89   H     H_    0.548703 0.185728 0.396569 0.158298
C168  C     C_3   0.612785 0.209830 0.433503 -0.745809
H90   H     H_    0.663537 0.218441 0.421146 0.252024
H91   H     H_    0.586110 0.263317 0.437136 0.202884
H92   H     H_    0.626805 0.185355 0.454320 0.256761
O77   O     O_3   0.917450 0.396514 0.586827 -0.552096
C169  C     C_3   0.846242 0.424018 0.583171 0.090710
H93   H     H_    0.846844 0.476007 0.570959 0.126551
H94   H     H_    0.819459 0.433246 0.604059 0.158112
C170  C     C_3   0.801139 0.368972 0.566662 -0.754840
H95   H     H_    0.798013 0.316853 0.578548 0.244299
H96   H     H_    0.745145 0.390323 0.563462 0.201951
H97   H     H_    0.826321 0.358816 0.545632 0.261155
O78   O     O_3   0.542182 0.124504 0.585590 -0.577769
C171  C     C_3   0.617738 0.137021 0.588242 0.094006
H98   H     H_    0.649676 0.087888 0.582005 0.156925
H99   H     H_    0.631949 0.152659 0.610348 0.154799
C172  C     C_3   0.639471 0.199308 0.568723 -0.761884
H100  H     H_    0.609241 0.249535 0.574540 0.253122
H101  H     H_    0.698797 0.209904 0.570673 0.197235
H102  H     H_    0.626928 0.185000 0.546385 0.256169
O79   O     O_3   0.082549 0.603486 0.586827 -0.552096
C173  C     C_3   0.153757 0.575981 0.583171 0.090711
H103  H     H_    0.153154 0.523993 0.570958 0.126550
H104  H     H_    0.180540 0.566752 0.604058 0.158112
C174  C     C_3   0.198861 0.631027 0.566662 -0.754841
H105  H     H_    0.201988 0.683145 0.578548 0.244299
H106  H     H_    0.254855 0.609674 0.563462 0.201951
H107  H     H_    0.173680 0.641183 0.545632 0.261155
O80   O     O_3   0.457819 0.875495 0.585590 -0.577770
C175  C     C_3   0.382264 0.862975 0.588242 0.094009
H108  H     H_    0.350323 0.912107 0.582008 0.156924
H109  H     H_    0.368057 0.847332 0.610349 0.154798
C176  C     C_3   0.360530 0.800690 0.568723 -0.761887
H110  H     H_    0.390764 0.750464 0.574538 0.253124
H111  H     H_    0.301205 0.790091 0.570674 0.197235
H112  H     H_    0.373068 0.815003 0.546385 0.256168

loop_
_geom_bond_atom_site_label_1
_geom_bond_atom_site_label_2
_ccdc_geom_bond_type
C10   H18   S    
O77   C169  S    
C174  H106  S    
C33   C45   A    
C120  C144  A    
C164  H80   S    
C27   O67   S    
O74   C163  S    
C150  H47   S    
C112  C124  A    
Cu2   O5    S    
Cu4   O16   S    
C22   C38   A    
C148  H42   S    
C119  C143  A    
C62   C70   T    
C169  C170  S    
C106  C130  A    
C154  H56   S    
C97   N5    A    
Cu3   O9    S    
C174  H107  S    
C13   C51   A    
C77   O27   A    
C14   C52   A    
C101  O61   S    
C161  H73   S    
C15   C51   A    
C97   C115  A    
C159  C160  S    
C162  H75   S    
C20   H28   S    
C172  H102  S    
Cu12  O32   S    
C81   O33   A    
C74   O18   A    
C37   O77   S    
C103  C117  A    
C40   O80   S    
C168  H91   S    
Cu1   Cu2   S    
C43   C75   S    
C170  H97   S    
C157  H64   S    
C109  C133  A    
C108  C122  A    
C121  C128  A    
C20   C54   A    
C95   C109  A    
C25   C41   A    
C21   C55   A    
C2    C59   S    
C123  C126  A    
C22   C56   A    
Cu6   O38   S    
C6    C63   S    
Cu10  O26   S    
C11   C49   A    
C66   C82   S    
C26   O66   S    
C11   C27   A    
C161  C162  S    
C141  H13   S    
C100  C114  A    
C166  H87   S    
C23   C55   A    
C50   N3    S    
C51   N2    S    
C92   C106  A    
Cu10  O30   S    
O80   C175  S    
C81   O37   A    
C35   C45   A    
C164  H82   S    
C39   C47   A    
C136  H8    S    
C40   C48   A    
C151  C152  S    
C135  H7    S    
Cu9   O31   S    
C165  C166  S    
C145  H34   S    
Cu1   O3    S    
Cu8   O40   S    
C24   C56   A    
C99   N5    A    
Cu6   O34   S    
C130  H2    S    
C19   C35   A    
O78   C171  S    
C151  H49   S    
C163  C164  S    
C86   O42   A    
C89   O49   S    
C52   N1    S    
C167  H88   S    
C84   O36   A    
Cu5   O17   S    
C160  H70   S    
C53   N8    S    
C115  C139  A    
C78   O28   A    
C176  H111  S    
Cu7   O37   S    
C67   C83   S    
O76   C167  S    
C15   H23   S    
C91   C105  A    
Cu11  O27   S    
Cu3   Cu4   S    
C92   O52   S    
C129  C144  A    
Cu8   O20   S    
Cu2   O7    S    
C31   C43   A    
Cu5   Cu7   S    
O65   C145  S    
C114  C126  A    
C158  H66   S    
C75   O21   A    
Cu5   O23   S    
C122  C127  A    
C44   C76   S    
C173  H103  S    
Cu2   O8    S    
Cu12  O48   S    
C59   C67   T    
C98   C116  A    
Cu7   O35   S    
C156  H61   S    
Cu7   O21   S    
C9    H17   S    
C34   C46   A    
C37   C47   A    
C38   C48   A    
C12   H20   S    
O67   C149  S    
C162  H76   S    
C112  C136  A    
C94   O54   S    
Cu6   O22   S    
Cu3   O11   S    
C155  H59   S    
C87   O43   A    
C9    C49   A    
C7    O11   A    
C29   O69   S    
C134  C139  A    
C163  H78   S    
C109  C123  A    
C102  O62   S    
C173  C174  S    
C22   H30   S    
C84   O38   A    
O69   C153  S    
C160  H72   S    
C106  C122  A    
C152  H50   S    
C169  H94   S    
C146  H36   S    
C171  C172  S    
C14   H22   S    
C78   O26   A    
C32   O72   S    
Cu9   O47   S    
C110  C134  A    
C166  H86   S    
C164  H81   S    
C69   C85   S    
C26   C42   A    
C97   O57   S    
C90   N2    A    
C132  C141  A    
C131  H3    S    
C1    O1    A    
C136  C137  A    
C12   C50   A    
C15   C31   A    
C145  H33   S    
C150  H46   S    
Cu10  O42   S    
C33   O73   S    
Cu12  O28   S    
Cu5   O33   S    
C96   N4    A    
C90   C108  A    
Cu1   O2    S    
Cu2   O6    S    
C100  O60   S    
Cu4   O13   S    
C23   H31   S    
C83   O35   A    
C94   C112  A    
C148  H41   S    
C149  H44   S    
C114  C138  A    
Cu3   O12   S    
C6    O10   A    
C41   C73   S    
C17   H25   S    
C4    O4    A    
C55   N6    S    
C149  H43   S    
C161  H74   S    
C80   O30   A    
C8    O16   A    
C16   H24   S    
Cu8   O36   S    
C119  C127  A    
C175  H108  S    
C82   O40   A    
C73   O17   A    
C145  C146  S    
C137  H9    S    
C168  H90   S    
C9    C25   A    
C49   N4    S    
C31   O71   S    
C170  H96   S    
Cu5   O39   S    
C103  N7    A    
C12   C28   A    
C13   C29   A    
C88   O46   A    
C153  H53   S    
C165  H84   S    
C88   O44   A    
C152  H52   S    
C98   N6    A    
C104  O64   S    
C159  H69   S    
C171  H98   S    
C110  C124  A    
Cu11  O29   S    
C76   O22   A    
C149  C150  S    
Cu9   Cu11  S    
Cu10  Cu12  S    
C3    C60   S    
C82   O34   A    
Cu11  O43   S    
O66   C147  S    
C29   C43   A    
C147  C148  S    
C30   C44   A    
C17   C33   A    
C7    O13   A    
C92   N2    A    
C104  C118  A    
C93   N3    A    
C5    O15   A    
C91   O51   S    
C42   C74   S    
C111  C123  A    
C68   C84   S    
C153  C154  S    
Cu4   O15   S    
C95   O55   S    
C46   C78   S    
C167  C168  S    
O75   C165  S    
C96   C110  A    
C102  N8    A    
Cu3   O10   S    
C117  C141  A    
Cu9   O25   S    
O68   C151  S    
C91   N1    A    
C30   O70   S    
C65   C81   S    
C89   C107  A    
C85   O45   A    
C104  N8    A    
C80   O32   A    
C167  H89   S    
C117  C127  A    
C63   C71   T    
Cu1   O4    S    
C71   C87   S    
Cu11  O45   S    
C3    O5    A    
C16   C32   A    
C107  C121  A    
C10   C50   A    
C17   C53   A    
C168  H92   S    
C102  C120  A    
C176  H110  S    
C157  H63   S    
C54   N7    S    
C165  H83   S    
C103  O63   S    
C36   O76   S    
O70   C155  S    
C16   C52   A    
C57   C65   T    
C99   C113  A    
C120  C128  A    
C21   H29   S    
C144  H16   S    
C11   H19   S    
C175  C176  S    
C138  H10   S    
C24   H32   S    
C113  C137  A    
C143  H15   S    
C162  H77   S    
C111  C135  A    
C158  H65   S    
C76   O24   A    
C13   H21   S    
C90   O50   S    
C85   O41   A    
O73   C161  S    
C173  H104  S    
C20   C36   A    
C21   C37   A    
C60   C68   T    
C133  C140  A    
C156  H60   S    
C89   N1    A    
C147  H38   S    
C73   O19   A    
C1    C58   S    
C142  H14   S    
C101  N7    A    
C157  C158  S    
C140  H12   S    
C135  C138  A    
Cu10  O46   S    
C154  H55   S    
C47   C79   S    
C129  H1    S    
O71   C157  S    
Cu12  O44   S    
C38   O78   S    
C155  C156  S    
C132  H4    S    
C151  H48   S    
C163  H79   S    
C4    O8    A    
C113  C125  A    
C18   H26   S    
C25   O65   S    
C8    O12   A    
C99   O59   S    
C24   C40   A    
C58   C66   T    
C160  H71   S    
C4    C57   S    
C3    O3    A    
C75   O23   A    
C146  H35   S    
C95   N3    A    
C8    C61   S    
C176  H112  S    
C19   C53   A    
C64   C72   T    
C116  C126  A    
C35   O75   S    
O72   C159  S    
C118  C128  A    
C14   C30   A    
C79   O31   A    
C72   C88   S    
C93   O53   S    
C94   N4    A    
C108  C132  A    
C101  C119  A    
C107  C131  A    
C19   H27   S    
C158  H67   S    
C105  C129  A    
C150  H45   S    
C134  H6    S    
C139  H11   S    
Cu1   O1    S    
C159  H68   S    
Cu4   O14   S    
C27   C41   A    
C87   O47   A    
C156  H62   S    
C148  H40   S    
C32   C44   A    
C105  C121  A    
C36   C46   A    
C130  C143  A    
C18   C34   A    
C174  H105  S    
C131  C142  A    
C77   O25   A    
C28   O68   S    
C93   C111  A    
C34   O74   S    
C154  H57   S    
Cu6   Cu8   S    
C39   O79   S    
C70   C86   S    
C98   O58   S    
Cu7   O19   S    
C172  H100  S    
C61   C69   T    
C155  H58   S    
C175  H109  S    
C74   O20   A    
C2    O2    A    
C83   O39   A    
C118  C142  A    
C133  H5    S    
C45   C77   S    
C6    O14   A    
C100  N6    A    
C170  H95   S    
C115  C125  A    
Cu9   O41   S    
C48   C80   S    
O79   C173  S    
C153  H54   S    
C10   C26   A    
C23   C39   A    
Cu8   O24   S    
C28   C42   A    
C2    O6    A    
C152  H51   S    
C5    C62   S    
C147  H39   S    
Cu6   O18   S    
C169  H93   S    
C146  H37   S    
C171  H99   S    
C7    C64   S    
C18   C54   A    
C5    O9    A    
C56   N5    S    
C86   O48   A    
C96   O56   S    
C172  H101  S    
C166  H85   S    
C79   O29   A    
C124  C125  A    
C116  C140  A    
C1    O7    A    
