data_mof_unit_38844.cif
_audit_creation_date              2012-12-10T19:09:32-0500
_audit_creation_method            fapswitch 2.2
_symmetry_space_group_name_H-M    P1
_symmetry_Int_Tables_number       1
_space_group_crystal_system       triclinic
_cell_length_a                    15.450705
_cell_length_b                    14.874641
_cell_length_c                    10.004728
_cell_angle_alpha                 90.446189
_cell_angle_beta                  90.38613
_cell_angle_gamma                 89.938
_cell_volume                      2299.20035499

loop_
_atom_site_label
_atom_site_type_symbol
_atom_type_description
_atom_site_fract_x
_atom_site_fract_y
_atom_site_fract_z
_atom_type_partial_charge
C1    C     C_R   0.118632 0.377298 0.499923 0.869223
C2    C     C_R   0.880254 0.621972 0.499721 0.903810
C3    C     C_R   0.381381 0.876900 0.499570 0.900533
C4    C     C_R   0.382328 0.124325 0.500671 0.909649
C5    C     C_3   0.808274 0.259885 0.640867 -0.297089
C6    C     C_3   0.833651 0.225256 0.403109 -0.348249
C7    C     C_3   0.801502 0.732293 0.358158 -0.390736
C8    C     C_3   0.832270 0.765396 0.601190 -0.324597
C9    C     C_3   0.322795 0.746179 0.622477 -0.366029
C10   C     C_3   0.316435 0.749864 0.371508 -0.355691
C11   C     C_3   0.336561 0.275019 0.417428 -0.331805
C12   C     C_R   0.120715 0.620812 0.500657 0.850763
C13   C     C_3   0.296175 0.228815 0.644374 -0.327394
C14   C     C_3   0.247285 0.679760 0.627601 -0.413244
C15   C     C_3   0.248461 0.675307 0.378360 -0.419063
C16   C     C_3   0.261061 0.340970 0.409908 -0.420532
C17   C     C_3   0.225732 0.300400 0.643533 -0.386890
C18   C     C_3   0.740868 0.184669 0.637243 -0.360004
C19   C     C_3   0.754198 0.164583 0.392406 -0.428753
C20   C     C_3   0.728736 0.801359 0.357980 -0.397883
C21   C     C_3   0.762283 0.838629 0.595789 -0.431002
C22   C     C_3   0.732246 0.352583 0.466266 -0.451566
C23   C     C_R   0.620429 0.878936 0.499948 0.850921
C24   C     C_3   0.724573 0.643835 0.534509 -0.445501
C25   C     C_3   0.224147 0.857218 0.507065 -0.429026
C26   C     C_3   0.230209 0.147122 0.449458 -0.433859
C27   C     C_3   0.816926 0.303700 0.501991 0.051301
C28   C     C_3   0.811168 0.689775 0.498765 0.093228
C29   C     C_3   0.312681 0.808721 0.499608 0.081414
C30   C     C_3   0.312933 0.192550 0.502557 0.025461
C31   C     C_3   0.188307 0.690606 0.501805 0.041104
C32   C     C_3   0.186273 0.308099 0.500042 0.020229
C33   C     C_3   0.688593 0.190046 0.503709 0.006352
C34   C     C_R   0.619396 0.122138 0.501199 0.850782
C35   C     C_3   0.687609 0.808775 0.499821 0.044591
C36   C     C_3   0.147716 0.788847 0.496932 -0.071086
C37   C     C_3   0.151307 0.211473 0.455638 -0.102974
C38   C     C_3   0.653109 0.289408 0.479275 -0.094405
C39   C     C_3   0.649738 0.714083 0.544166 -0.064753
C40   C     C_3   0.076621 0.455178 0.078419 -0.255865
C41   C     C_3   0.083116 0.469139 0.921978 -0.264848
C42   C     C_3   0.991316 0.592729 0.921986 -0.239308
C43   C     C_3   0.004634 0.593087 0.081458 -0.273884
C44   C     C_3   0.508033 0.907289 0.079361 -0.265805
C45   C     C_3   0.916821 0.458768 0.079607 -0.159436
C46   C     C_3   0.496235 0.907149 0.920028 -0.231310
C47   C     C_3   0.580804 0.036923 0.922967 -0.252784
C48   C     C_3   0.575627 0.046864 0.080756 -0.262570
C49   C     C_2   0.085172 0.812695 0.610181 0.865026
C50   C     C_2   0.097202 0.799990 0.365760 0.902076
C51   C     C_2   0.108027 0.205243 0.318309 0.960326
C52   C     C_2   0.085053 0.179012 0.556924 0.908478
C53   C     C_2   0.598216 0.327598 0.594457 0.883130
C54   C     C_2   0.598901 0.291474 0.351275 0.928359
C55   C     C_2   0.575025 0.679996 0.455556 0.847831
C56   C     C_3   0.925169 0.442957 0.917374 -0.121342
C57   C     C_2   0.616686 0.718423 0.688520 0.896800
C58   C     C_2   0.896761 0.367142 0.136429 0.972567
C59   C     C_2   0.939614 0.342002 0.876595 0.860521
C60   C     C_2   0.835517 0.465026 0.857988 0.905549
C61   C     C_2   0.838288 0.520030 0.121109 0.949307
C62   C     C_2   0.339311 0.976749 0.122192 0.957057
C63   C     C_2   0.332888 0.025556 0.859333 0.902874
C64   C     C_2   0.429932 0.153436 0.873664 0.869660
C65   C     C_2   0.394941 0.132822 0.135911 1.002777
C66   C     C_3   0.415825 0.039590 0.080199 -0.165965
C67   C     C_3   0.422084 0.052936 0.917455 -0.114280
C68   C     C_R   0.885281 0.373089 0.500060 0.927910
H1    H     H_    0.787781 0.311154 0.713782 0.265577
H2    H     H_    0.890145 0.184410 0.433860 0.238424
H3    H     H_    0.862600 0.765351 0.328226 0.239780
H4    H     H_    0.896219 0.795576 0.578468 0.199844
H5    H     H_    0.384670 0.708308 0.615297 0.227542
H6    H     H_    0.381462 0.719033 0.360597 0.205005
H7    H     H_    0.392258 0.310233 0.463312 0.247889
H8    H     H_    0.356341 0.260412 0.682590 0.209138
H9    H     H_    0.273342 0.609978 0.632193 0.170517
H10   H     H_    0.281455 0.608904 0.386356 0.167237
H11   H     H_    0.283579 0.408506 0.444441 0.155155
H12   H     H_    0.846808 0.249158 0.304936 0.238102
H13   H     H_    0.253836 0.366081 0.676083 0.179271
H14   H     H_    0.774312 0.118401 0.643751 0.162970
H15   H     H_    0.774924 0.093086 0.401821 0.166665
H16   H     H_    0.755400 0.867726 0.327882 0.178386
H17   H     H_    0.791476 0.902418 0.559869 0.169325
H18   H     H_    0.210853 0.690939 0.721530 0.229878
H19   H     H_    0.211696 0.673762 0.282453 0.213275
H20   H     H_    0.240955 0.350035 0.304366 0.241735
H21   H     H_    0.176129 0.282682 0.718854 0.229450
H22   H     H_    0.699723 0.188707 0.727505 0.246303
H23   H     H_    0.786566 0.680249 0.281601 0.216166
H24   H     H_    0.724437 0.171303 0.291360 0.227886
H25   H     H_    0.680623 0.782438 0.279868 0.226218
H26   H     H_    0.738695 0.853107 0.698396 0.210104
H27   H     H_    0.725399 0.414180 0.529909 0.162827
H28   H     H_    0.739015 0.378477 0.364387 0.284699
H29   H     H_    0.710652 0.591648 0.456995 0.164893
H30   H     H_    0.731297 0.605359 0.628256 0.249110
H31   H     H_    0.222431 0.895421 0.603241 0.216480
H32   H     H_    0.219055 0.909709 0.429800 0.201834
H33   H     H_    0.242639 0.127639 0.345276 0.263020
H34   H     H_    0.836120 0.737776 0.704101 0.238537
H35   H     H_    0.219315 0.082332 0.501256 0.206462
H36   H     H_    0.079188 0.382995 0.098076 0.261325
H37   H     H_    0.111579 0.409740 0.873295 0.220225
H38   H     H_    0.929623 0.625480 0.894591 0.235736
H39   H     H_    0.959466 0.640208 0.131628 0.205724
H40   H     H_    0.464342 0.858589 0.127885 0.208326
H41   H     H_    0.436665 0.870737 0.891172 0.235256
H42   H     H_    0.602700 0.100486 0.879549 0.221764
H43   H     H_    0.579949 0.118005 0.110417 0.232381
H44   H     H_    0.136263 0.481971 0.127313 0.158162
H45   H     H_    0.324332 0.785187 0.717692 0.239883
H46   H     H_    0.134777 0.519678 0.902784 0.141134
H47   H     H_    0.040829 0.637350 0.877510 0.199195
H48   H     H_    0.069004 0.623121 0.105583 0.165594
H49   H     H_    0.573040 0.879106 0.104044 0.160676
H50   H     H_    0.548819 0.865861 0.875690 0.180476
H51   H     H_    0.636035 0.991607 0.898144 0.138530
H52   H     H_    0.635832 0.018351 0.125305 0.149468
H53   H     H_    0.007637 0.907731 0.691302 0.337959
H54   H     H_    0.097561 0.833021 0.170418 0.352819
H55   H     H_    0.037783 0.126156 0.192961 0.347031
H56   H     H_    0.304364 0.791510 0.281454 0.252709
H57   H     H_    0.052047 0.093354 0.703837 0.345618
H58   H     H_    0.492950 0.398850 0.651461 0.343109
H59   H     H_    0.589214 0.317481 0.153285 0.372150
H60   H     H_    0.489765 0.579823 0.418284 0.345974
H61   H     H_    0.644738 0.716419 0.886111 0.348193
H62   H     H_    0.946269 0.243279 0.159205 0.336929
H63   H     H_    0.018514 0.245542 0.807320 0.351284
H64   H     H_    0.707024 0.440120 0.861966 0.379825
H65   H     H_    0.732296 0.536740 0.235831 0.334787
H66   H     H_    0.228952 0.964742 0.224775 0.373700
H67   H     H_    0.354720 0.256034 0.316498 0.247282
H68   H     H_    0.203695 0.048841 0.858908 0.366120
H69   H     H_    0.493399 0.250963 0.778989 0.351390
H70   H     H_    0.436593 0.261489 0.140161 0.354577
H71   H     H_    0.275422 0.173243 0.708830 0.257853
H72   H     H_    0.871096 0.230904 0.672700 0.237415
N1    N     N_3   0.998760 0.500000 0.138610 -0.115264
N2    N     N_3   0.998760 0.500000 0.861390 -0.086913
N3    N     N_3   0.498760 0.000000 0.138610 -0.117763
N4    N     N_3   0.498760 0.000000 0.861390 -0.090226
O1    O     O_R   0.092530 0.407440 0.616040 -0.591439
O2    O     O_R   0.907330 0.407420 0.383960 -0.594862
O3    O     O_R   0.907330 0.592580 0.383960 -0.612429
O4    O     O_R   0.907330 0.592580 0.616040 -0.570384
O5    O     O_R   0.407330 0.907420 0.616040 -0.570985
O6    O     O_R   0.407330 0.907420 0.383960 -0.611179
O7    O     O_R   0.407330 0.092580 0.383960 -0.586670
O8    O     O_R   0.407330 0.092580 0.616040 -0.625770
O9    O     O_2   0.067568 0.759495 0.698127 -0.664508
O10   O     O_R   0.047571 0.898365 0.612392 -0.777740
O11   O     O_2   0.021182 0.777601 0.359328 -0.678163
O12   O     O_R   0.092530 0.407440 0.383960 -0.602328
O13   O     O_R   0.137916 0.830969 0.250669 -0.825788
O14   O     O_2   0.131269 0.252975 0.226762 -0.593415
O15   O     O_R   0.051397 0.133721 0.291620 -0.802518
O16   O     O_2   0.015594 0.217503 0.563779 -0.698045
O17   O     O_R   0.102331 0.107262 0.642828 -0.795592
O18   O     O_2   0.625890 0.327407 0.709007 -0.640033
O19   O     O_R   0.520844 0.373244 0.567959 -0.805702
O20   O     O_2   0.524688 0.264681 0.355261 -0.631182
O21   O     O_R   0.632835 0.320031 0.229248 -0.751619
O22   O     O_2   0.545823 0.724919 0.363992 -0.676940
O23   O     O_R   0.092530 0.592560 0.383960 -0.633120
O24   O     O_R   0.539013 0.595655 0.481660 -0.775002
O25   O     O_2   0.539364 0.727441 0.710764 -0.662554
O26   O     O_R   0.674611 0.712500 0.796334 -0.792273
O27   O     O_2   0.822256 0.339003 0.129817 -0.534207
O28   O     O_R   0.963169 0.308445 0.172059 -0.804961
O29   O     O_2   0.885810 0.284872 0.904270 -0.625377
O30   O     O_R   0.011679 0.313260 0.805761 -0.772793
O31   O     O_2   0.822781 0.532435 0.793723 -0.595141
O32   O     O_R   0.763696 0.413905 0.895302 -0.736572
O33   O     O_2   0.820576 0.588448 0.059567 -0.660492
O34   O     O_R   0.092530 0.592560 0.616040 -0.599228
O35   O     O_R   0.785670 0.497412 0.228596 -0.778561
O36   O     O_2   0.325063 0.905742 0.063538 -0.649993
O37   O     O_R   0.284374 0.000615 0.226196 -0.793477
O38   O     O_2   0.321652 0.955133 0.800088 -0.613182
O39   O     O_R   0.259571 0.075731 0.894740 -0.762089
O40   O     O_2   0.373797 0.207950 0.904072 -0.621221
O41   O     O_R   0.497208 0.184017 0.794333 -0.771797
O42   O     O_2   0.319368 0.157427 0.141981 -0.563977
O43   O     O_R   0.459528 0.197707 0.145560 -0.806087
O44   O     O_R   0.592530 0.907440 0.616040 -0.635575
O45   O     O_R   0.592530 0.907440 0.383960 -0.608605
O46   O     O_R   0.592530 0.092560 0.383960 -0.611403
O47   O     O_R   0.592530 0.092560 0.616040 -0.595345
O48   O     O_R   0.907330 0.407420 0.616040 -0.620305
Zn1   Zn    Zn3+2 0.999890 0.500000 0.654960 1.000817
Zn2   Zn    Zn3+2 0.999890 0.500000 0.345040 0.984917
Zn3   Zn    Zn3+2 0.499890 0.000000 0.654960 0.987958
Zn4   Zn    Zn3+2 0.499890 0.000000 0.345040 0.986735

loop_
_geom_bond_atom_site_label_1
_geom_bond_atom_site_label_2
_ccdc_geom_bond_type
C52   O16   D    
C12   O34   A    
C20   H25   S    
C65   O43   S    
C61   O33   D    
C7    C20   S    
C22   H27   S    
C1    O1    A    
O45   Zn4   S    
C14   C31   S    
C59   O30   S    
C12   O23   A    
C68   O2    A    
C48   H52   S    
N4    Zn3   S    
C6    C19   S    
C41   H37   S    
C24   H30   S    
C13   H71   S    
C49   O9    D    
C34   O47   A    
C10   H56   S    
C10   C15   S    
C26   H33   S    
C62   O36   D    
C23   O44   A    
C37   C51   S    
C53   O18   D    
C15   H10   S    
C21   H26   S    
C68   O48   A    
C2    O4    A    
C39   C57   S    
H60   O24   S    
C24   C39   S    
C46   H50   S    
O3    Zn2   S    
H64   O32   S    
C14   H9    S    
N3    Zn4   S    
C3    C29   S    
C5    H1    S    
C27   C68   S    
C5    C27   S    
C20   C35   S    
C25   H31   S    
C39   C55   S    
C47   C48   S    
C11   C30   S    
H62   O28   S    
C42   N2    S    
C19   H24   S    
O2    Zn2   S    
C41   H46   S    
O1    Zn1   S    
C64   O41   S    
C45   C56   S    
O46   Zn4   S    
C52   O17   S    
C56   N2    S    
C47   H51   S    
C66   C67   S    
C63   O38   D    
C40   N1    S    
C45   N1    S    
C51   O15   S    
C9    H5    S    
C55   O24   S    
C19   H15   S    
C67   N4    S    
C44   C46   S    
C8    C21   S    
C57   O25   D    
C44   H40   S    
C50   O13   S    
C25   C29   S    
C4    O8    A    
O34   Zn1   S    
C63   C67   S    
C45   C58   S    
C3    O5    A    
C63   O39   S    
H53   O10   S    
C62   C66   S    
H65   O35   S    
C24   H29   S    
C18   H22   S    
C64   C67   S    
C49   O10   S    
C34   O46   A    
C17   H21   S    
C14   H18   S    
C40   H44   S    
C19   C33   S    
C37   C52   S    
C53   O19   S    
C46   N4    S    
C66   N3    S    
C2    O3    A    
C47   N4    S    
O44   Zn3   S    
C21   H17   S    
C4    C30   S    
C7    C28   S    
C56   C60   S    
C48   N3    S    
O7    Zn4   S    
C1    O12   A    
O12   Zn2   S    
C9    C14   S    
O4    Zn1   S    
C11   H67   S    
C26   H35   S    
C40   H36   S    
C11   C16   S    
C13   C30   S    
C25   H32   S    
C6    H12   S    
C6    C27   S    
C38   C54   S    
C13   H8    S    
C50   O11   D    
H59   O21   S    
C7    H23   S    
C33   C34   S    
C43   H39   S    
C32   C37   S    
C60   O31   D    
C15   C31   S    
C42   H38   S    
O6    Zn4   S    
C40   C41   S    
H69   O41   S    
C61   O35   S    
C23   C35   S    
C22   C27   S    
C20   H16   S    
C12   C31   S    
C60   O32   S    
O23   Zn2   S    
C43   N1    S    
C42   C43   S    
H66   O37   S    
H58   O19   S    
C23   O45   A    
C36   C50   S    
C5    H72   S    
C15   H19   S    
C57   O26   S    
C6    H2    S    
C4    O7    A    
C65   O42   D    
C3    O6    A    
H63   O30   S    
O8    Zn3   S    
C8    H4    S    
C22   H28   S    
H57   O17   S    
C24   C28   S    
C59   O29   D    
C26   C37   S    
C26   C30   S    
C58   O28   S    
C21   C35   S    
C9    C29   S    
C16   C32   S    
C47   H42   S    
C43   H48   S    
C51   O14   D    
C33   C38   S    
C56   C59   S    
C13   C17   S    
C16   H11   S    
C9    H45   S    
O48   Zn1   S    
H70   O43   S    
C41   N2    S    
C11   H7    S    
O5    Zn3   S    
C62   O37   S    
C7    H3    S    
C10   H6    S    
C10   C29   S    
C38   C53   S    
H55   O15   S    
C44   H49   S    
C5    C18   S    
C44   N3    S    
C8    C28   S    
C35   C39   S    
H68   O39   S    
C45   C61   S    
C18   H14   S    
N2    Zn1   S    
C58   O27   D    
C17   H13   S    
N1    Zn2   S    
C1    C32   S    
C18   C33   S    
O47   Zn3   S    
C25   C36   S    
C64   O40   D    
C42   H47   S    
C48   H43   S    
C65   C66   S    
C46   H41   S    
C16   H20   S    
C17   C32   S    
C31   C36   S    
C2    C28   S    
H61   O26   S    
C54   O21   S    
C55   O22   D    
C54   O20   D    
C8    H34   S    
H54   O13   S    
C36   C49   S    
C22   C38   S    
