data_mof_unit_28151.cif
_audit_creation_date              2012-12-10T19:48:43-0500
_audit_creation_method            fapswitch 2.2
_symmetry_space_group_name_H-M    P1
_symmetry_Int_Tables_number       1
_space_group_crystal_system       triclinic
_cell_length_a                    13.083782
_cell_length_b                    14.173335
_cell_length_c                    14.996434
_cell_angle_alpha                 89.945615
_cell_angle_beta                  89.857637
_cell_angle_gamma                 69.875741
_cell_volume                      2611.16224101

loop_
_atom_site_label
_atom_site_type_symbol
_atom_type_description
_atom_site_fract_x
_atom_site_fract_y
_atom_site_fract_z
_atom_type_partial_charge
C1    C     C_R   0.500418 0.499877 0.672243 0.860640
C2    C     C_R   0.822793 0.407690 0.511317 -0.092070
C3    C     C_R   0.543712 0.407939 0.905772 -0.091975
C4    C     C_R   0.704464 0.444269 0.504148 0.863485
C5    C     C_R   0.541922 0.408093 0.813731 -0.229830
C6    C     C_R   0.502069 0.499559 0.768024 -0.025617
C7    C     C_R   0.464351 0.590844 0.814223 -0.205664
C8    C     C_R   0.464535 0.590508 0.906260 -0.205768
C9    C     C_R   0.503670 0.499047 0.951881 0.137456
C10   C     C_R   0.546866 0.560613 0.094037 -0.246787
C11   C     C_R   0.545267 0.561870 0.186032 -0.191554
C12   C     C_R   0.984515 0.452993 0.521185 0.098782
C13   C     C_R   0.499865 0.500058 0.232088 -0.094434
C14   C     C_R   0.454294 0.438205 0.186500 -0.298709
C15   C     C_R   0.452244 0.439180 0.094141 0.484991
C16   C     C_R   0.500031 0.500015 0.327804 0.897483
C17   C     C_R   0.501319 0.498965 0.048059 -0.015208
C18   C     C_R   0.426898 0.917874 0.553431 -0.281081
C19   C     C_R   0.427844 0.818337 0.552153 -0.002359
C20   C     C_R   0.572661 0.772386 0.448207 0.001564
C21   C     C_R   0.575189 0.870767 0.448149 -0.295735
C22   C     C_R   0.501344 0.946073 0.500989 0.146522
C23   C     C_R   0.875958 0.471588 0.544527 0.035502
C24   C     C_R   0.531386 0.095025 0.424307 -0.275686
C25   C     C_R   0.530498 0.194547 0.425424 0.005579
C26   C     C_R   0.470280 0.213828 0.575071 0.017848
C27   C     C_R   0.470897 0.114394 0.577033 -0.289176
C28   C     C_R   0.295267 0.555772 0.500730 0.886585
C29   C     C_R   0.501407 0.052757 0.500853 0.136601
C30   C     C_R   0.014442 0.699257 0.587272 0.196787
C31   C     C_R   0.178100 0.589998 0.514077 -0.089400
C32   C     C_R   0.883324 0.314540 0.474053 -0.197164
C33   C     C_R   0.995309 0.287763 0.465030 -0.153279
C34   C     C_R   0.027138 0.531266 0.532834 -0.022743
C35   C     C_R   0.045729 0.356738 0.486403 -0.170710
C36   C     C_3   0.294157 0.434288 0.036442 0.093148
C37   C     C_3   0.244184 0.372864 0.979446 -0.806168
C38   C     C_3   0.704129 0.736008 0.683660 0.114167
C39   C     C_3   0.659641 0.840231 0.725028 -0.842863
C40   C     C_3   0.953754 0.805232 0.620385 -0.349156
C41   C     C_3   0.863661 0.862465 0.555568 -0.839620
C42   C     C_R   0.968005 0.621137 0.580674 0.037814
C43   C     C_R   0.866763 0.628193 0.620144 0.442429
C44   C     C_R   0.823019 0.552497 0.601302 -0.337457
C45   C     C_R   0.126771 0.522442 0.494643 -0.229095
C46   C     C_R   0.121760 0.679594 0.557571 -0.262860
H1    H     H_    0.162089 0.733700 0.568968 0.146621
H2    H     H_    0.629929 0.715415 0.407408 0.131544
H3    H     H_    0.635812 0.886964 0.407817 0.137153
H4    H     H_    0.553937 0.052298 0.363200 0.136576
H5    H     H_    0.554167 0.225392 0.366132 0.132767
H6    H     H_    0.446312 0.259937 0.634135 0.132464
H7    H     H_    0.448923 0.085934 0.638418 0.135148
H8    H     H_    0.169068 0.460540 0.451316 0.151146
H9    H     H_    0.843835 0.263739 0.449942 0.154115
H10   H     H_    0.132789 0.331732 0.477163 0.133910
H11   H     H_    0.042616 0.215075 0.437784 0.142711
H12   H     H_    0.572616 0.337183 0.778417 0.151150
H13   H     H_    0.748517 0.554120 0.633521 0.158540
H14   H     H_    0.575950 0.337117 0.941030 0.156904
H15   H     H_    0.282317 0.506592 0.001182 0.141463
H16   H     H_    0.250525 0.450009 0.101622 0.136771
H17   H     H_    0.253039 0.300664 0.013136 0.254537
H18   H     H_    0.156311 0.415368 0.969047 0.205139
H19   H     H_    0.285563 0.357052 0.913545 0.257620
H20   H     H_    0.675341 0.684908 0.724990 0.155402
H21   H     H_    0.670700 0.741019 0.615056 0.157906
H22   H     H_    0.683283 0.894754 0.684160 0.259023
H23   H     H_    0.433111 0.661996 0.779329 0.147341
H24   H     H_    0.569404 0.865333 0.728175 0.209165
H25   H     H_    0.691962 0.838690 0.793624 0.257943
H26   H     H_    0.899540 0.869880 0.489854 0.246760
H27   H     H_    0.804279 0.823425 0.545624 0.270990
H28   H     H_    0.819713 0.938914 0.582003 0.242769
H29   H     H_    0.922358 0.805696 0.689019 0.251993
H30   H     H_    0.009740 0.848842 0.625703 0.173114
H31   H     H_    0.432927 0.661145 0.941908 0.136745
H32   H     H_    0.584399 0.606949 0.058621 0.157428
H33   H     H_    0.581275 0.609457 0.221125 0.158011
H34   H     H_    0.418273 0.390897 0.222275 0.165177
H35   H     H_    0.366972 0.972424 0.594334 0.133036
H36   H     H_    0.370399 0.797692 0.592786 0.116172
N1    N     N_R   0.500000 0.747530 0.500020 -0.093069
N2    N     N_R   0.499940 0.252470 0.500020 -0.090738
O1    O     O_R   0.499990 0.420530 0.630930 -0.626805
O2    O     O_3   0.819316 0.702513 0.683520 -0.628404
O3    O     O_R   0.499990 0.579480 0.630940 -0.638606
O4    O     O_R   0.653620 0.381060 0.499970 -0.610803
O5    O     O_R   0.653620 0.540010 0.499980 -0.623247
O6    O     O_R   0.500010 0.420520 0.369060 -0.630404
O7    O     O_R   0.500010 0.579470 0.369070 -0.615609
O8    O     O_R   0.346380 0.459990 0.500020 -0.611695
O9    O     O_R   0.346380 0.618940 0.500030 -0.615078
O10   O     O_3   0.405639 0.379136 0.049211 -0.625450
Zn1   Zn    Zn3+2 0.500000 0.393860 0.499990 0.935542
Zn2   Zn    Zn3+2 0.500000 0.606140 0.500010 0.923895

loop_
_geom_bond_atom_site_label_1
_geom_bond_atom_site_label_2
_ccdc_geom_bond_type
C1    O3    A    
C16   O6    A    
C22   C29   S    
C27   C29   A    
C11   C13   A    
C39   H22   S    
C34   C42   A    
C15   O10   S    
C21   H3    S    
C10   H32   S    
C7    C8    A    
C12   C23   A    
C26   C27   A    
C5    H12   S    
C38   O2    S    
C36   C37   S    
C38   C39   S    
C19   N1    A    
C44   H13   S    
C18   H35   S    
C2    C32   A    
C18   C19   A    
C24   C29   A    
O7    Zn2   S    
C38   H20   S    
C8    C9    A    
C31   C46   A    
C37   H19   S    
C25   N2    A    
C33   H11   S    
C14   H34   S    
C19   H36   S    
C32   H9    S    
C3    H14   S    
C41   H28   S    
O4    Zn1   S    
C21   C22   A    
C24   H4    S    
C36   H16   S    
C37   H17   S    
C1    O1    A    
C1    C6    S    
O6    Zn1   S    
C24   C25   A    
O8    Zn1   S    
C23   C44   A    
C40   H30   S    
C28   O9    A    
N2    Zn1   S    
C2    C4    S    
C43   C44   A    
C25   H5    S    
C3    C9    A    
C26   H6    S    
O3    Zn2   S    
C30   C40   S    
C28   O8    A    
C34   C45   A    
C38   H21   S    
C12   C35   A    
C20   H2    S    
C11   H33   S    
C41   H26   S    
C9    C17   S    
C40   C41   S    
C45   H8    S    
O9    Zn2   S    
C8    H31   S    
C13   C16   S    
C42   C43   A    
C12   C34   A    
C36   H15   S    
C37   H18   S    
C4    O5    A    
C15   C17   A    
C46   H1    S    
C26   N2    A    
C35   H10   S    
C18   C22   A    
C43   O2    S    
C30   C46   A    
C28   C31   S    
C3    C5    A    
C7    H23   S    
C27   H7    S    
C6    C7    A    
C4    O4    A    
C40   H29   S    
C32   C33   A    
O5    Zn2   S    
O1    Zn1   S    
C5    C6    A    
N1    Zn2   S    
C33   C35   A    
C39   H24   S    
C10   C11   A    
C41   H27   S    
C36   O10   S    
C20   C21   A    
C16   O7    A    
C31   C45   A    
C20   N1    A    
C2    C23   A    
C39   H25   S    
C14   C15   A    
C30   C42   A    
C10   C17   A    
C13   C14   A    
