data_mof_unit_47446.cif
_audit_creation_date              2012-12-10T17:18:58-0500
_audit_creation_method            fapswitch 2.2
_symmetry_space_group_name_H-M    P1
_symmetry_Int_Tables_number       1
_space_group_crystal_system       triclinic
_cell_length_a                    10.18119
_cell_length_b                    10.822797
_cell_length_c                    13.574891
_cell_angle_alpha                 92.15929
_cell_angle_beta                  100.382355
_cell_angle_gamma                 96.049296
_cell_volume                      1460.66182777

loop_
_atom_site_label
_atom_site_type_symbol
_atom_type_description
_atom_site_fract_x
_atom_site_fract_y
_atom_site_fract_z
_atom_type_partial_charge
C1    C     C_R   0.052205 0.732174 0.491024 0.954913
C2    C     C_R   0.945524 0.267317 0.503930 0.944987
C3    C     C_R   0.427530 0.473932 0.130275 -0.305577
C4    C     C_R   0.504440 0.343486 0.893705 -0.350360
C5    C     C_R   0.296385 0.502353 0.100992 0.442035
C6    C     C_R   0.640077 0.322455 0.921180 0.458027
C7    C     C_2   0.078481 0.863411 0.477994 -0.394954
C8    C     C_2   0.910606 0.134273 0.497518 -0.386408
C9    C     C_2   0.975383 0.931134 0.471075 -0.148902
C10   C     C_2   0.998485 0.063380 0.469395 -0.141635
C11   C     C_2   0.430907 0.512045 0.508010 -0.174961
C12   C     C_2   0.568885 0.489856 0.490360 -0.148763
C13   C     C_R   0.093067 0.510768 0.686084 0.869578
C14   C     C_R   0.905486 0.484548 0.313957 0.873328
C15   C     C_R   0.137895 0.502784 0.793681 -0.063531
C16   C     C_R   0.848595 0.455630 0.208074 -0.065643
C17   C     C_R   0.110593 0.532142 0.965846 -0.196791
C18   C     C_R   0.845944 0.347989 0.048273 -0.177599
C19   C     C_R   0.060462 0.536255 0.863663 -0.204842
C20   C     C_R   0.913951 0.390043 0.144264 -0.205885
C21   C     C_R   0.260271 0.457295 0.825831 -0.233506
C22   C     C_R   0.716773 0.478932 0.175475 -0.239865
C23   C     C_R   0.311060 0.449084 0.927513 0.066738
C24   C     C_R   0.642343 0.426041 0.084766 0.054706
C25   C     C_R   0.238155 0.493526 0.998768 0.044367
C26   C     C_R   0.709589 0.365182 0.017370 0.072793
C27   C     C_R   0.439085 0.409279 0.959079 0.009224
C28   C     C_R   0.503748 0.437170 0.058952 0.000181
H1    H     H_    0.672621 0.538408 0.222939 0.154811
H2    H     H_    0.319109 0.434999 0.770358 0.158789
H3    H     H_    0.015897 0.369114 0.169029 0.201231
H4    H     H_    0.963449 0.568925 0.839659 0.157298
H5    H     H_    0.466783 0.478674 0.209882 0.157259
H6    H     H_    0.448732 0.303129 0.822693 0.157136
H7    H     H_    0.093160 0.102738 0.450708 0.188741
H8    H     H_    0.873663 0.890167 0.473145 0.190355
H9    H     H_    0.816395 0.094416 0.516464 0.152163
H10   H     H_    0.180005 0.904896 0.476327 0.153502
H11   H     H_    0.577734 0.417361 0.435288 0.171174
H12   H     H_    0.421859 0.585772 0.561957 0.170782
N1    N     N_2   0.322180 0.446120 0.460900 -0.193650
N2    N     N_2   0.677820 0.553880 0.539100 -0.194701
O1    O     O_R   0.935190 0.693030 0.507870 -0.606882
O2    O     O_R   0.064810 0.306970 0.492130 -0.607142
O3    O     O_R   0.142080 0.658430 0.482770 -0.615287
O4    O     O_R   0.857920 0.341570 0.517230 -0.620924
O5    O     O_R   0.969700 0.527180 0.651960 -0.614950
O6    O     O_R   0.030300 0.472820 0.348040 -0.587012
O7    O     O_R   0.176600 0.492580 0.626860 -0.612825
O8    O     O_R   0.823400 0.507420 0.373140 -0.616848
Zn1   Zn    Zn3+2 0.861850 0.523100 0.516760 0.918745
Zn2   Zn    Zn3+2 0.138150 0.476900 0.483240 0.937341
O9    O     O_3   0.226409 0.539270 0.173408 -0.659680
C29   C     C_3   0.244292 0.670745 0.188074 0.072683
H13   H     H_    0.145135 0.701138 0.194579 0.161450
H14   H     H_    0.277564 0.720241 0.124422 0.124893
C30   C     C_3   0.343233 0.710506 0.285744 -0.319978
H15   H     H_    0.306888 0.663918 0.348778 0.260616
H16   H     H_    0.443536 0.681874 0.280835 0.208179
C31   C     C_3   0.357487 0.851172 0.307157 -0.976038
H17   H     H_    0.399654 0.899596 0.247126 0.269412
H18   H     H_    0.426426 0.876536 0.379948 0.262467
H19   H     H_    0.258225 0.882698 0.311403 0.263525
O10   O     O_3   0.705084 0.253050 0.859938 -0.661562
C32   C     C_3   0.673524 0.277349 0.756952 0.098996
H20   H     H_    0.769604 0.293245 0.728898 0.172172
H21   H     H_    0.623949 0.363584 0.741884 0.125328
C33   C     C_3   0.590026 0.162971 0.698218 -0.342069
H22   H     H_    0.653422 0.085263 0.699377 0.222022
H23   H     H_    0.503344 0.132368 0.734208 0.225511
C34   C     C_3   0.537237 0.189805 0.589652 -0.975842
H24   H     H_    0.467140 0.262030 0.587052 0.274907
H25   H     H_    0.481973 0.103685 0.548598 0.259464
H26   H     H_    0.621625 0.222052 0.551929 0.279005
H27   H     H_    0.051301 0.563233 0.018629 0.174094
H28   H     H_    0.899601 0.299867 0.999471 0.193729
H29   H     H_    0.665342 0.621501 0.591060 0.160157
H30   H     H_    0.334812 0.377250 0.410028 0.175799

loop_
_geom_bond_atom_site_label_1
_geom_bond_atom_site_label_2
_ccdc_geom_bond_type
C22   H1    S    
C18   C26   A    
O1    Zn1   S    
C14   O8    A    
O9    C29   S    
C2    O4    A    
C15   C19   A    
C31   H19   S    
C5    O9    S    
C3    C28   A    
C24   C26   A    
C30   H16   S    
C3    H5    S    
C31   H18   S    
C6    O10   S    
C12   N2    D    
C1    O1    A    
C2    O2    A    
C33   H22   S    
C32   H21   S    
C9    H8    S    
C18   H28   S    
C10   H7    S    
C14   C16   S    
C23   C27   A    
C9    C10   S    
N1    Zn2   S    
C18   C20   A    
N2    Zn1   S    
O2    Zn2   S    
C19   H4    S    
C4    H6    S    
C29   H14   S    
C4    C6    A    
N1    H30   S    
C34   H25   S    
C30   C31   S    
C14   O6    A    
O3    Zn2   S    
O4    Zn1   S    
C31   H17   S    
O6    Zn2   S    
C16   C20   A    
C32   C33   S    
O8    Zn1   S    
C13   O7    A    
C8    C10   D    
C21   C23   A    
C5    C25   A    
C8    H9    S    
C4    C27   A    
C13   O5    A    
C7    C9    D    
C29   H13   S    
C16   C22   A    
C1    C7    S    
C2    C8    S    
C24   C28   A    
O7    Zn2   S    
C3    C5    A    
C34   H26   S    
O5    Zn1   S    
C11   C12   S    
C21   H2    S    
C17   C25   A    
O10   C32   S    
C12   H11   S    
C13   C15   S    
C34   H24   S    
C1    O3    A    
C30   H15   S    
C6    C26   A    
C33   C34   S    
C17   C19   A    
C7    H10   S    
C11   N1    D    
C22   C24   A    
C23   C25   A    
C11   H12   S    
C15   C21   A    
N2    H29   S    
C33   H23   S    
C32   H20   S    
C27   C28   A    
C17   H27   S    
C20   H3    S    
C29   C30   S    
