data_mof_unit_47616.cif
_audit_creation_date              2012-12-10T16:52:08-0500
_audit_creation_method            fapswitch 2.2
_symmetry_space_group_name_H-M    P1
_symmetry_Int_Tables_number       1
_space_group_crystal_system       triclinic
_cell_length_a                    7.923703
_cell_length_b                    8.571472
_cell_length_c                    14.953945
_cell_angle_alpha                 93.719164
_cell_angle_beta                  85.666756
_cell_angle_gamma                 92.650654
_cell_volume                      1009.73015962

loop_
_atom_site_label
_atom_site_type_symbol
_atom_type_description
_atom_site_fract_x
_atom_site_fract_y
_atom_site_fract_z
_atom_type_partial_charge
C1    C     C_R   0.544297 0.793831 0.498528 0.957580
C2    C     C_R   0.648762 0.546897 0.810495 -0.270214
C3    C     C_R   0.497929 0.501526 0.231372 -0.056636
C4    C     C_R   0.502071 0.498474 0.768628 -0.056636
C5    C     C_R   0.645719 0.549276 0.181668 -0.259677
C6    C     C_R   0.354280 0.450725 0.818332 -0.259678
C7    C     C_R   0.647685 0.549181 0.089127 0.112409
C8    C     C_R   0.352314 0.450819 0.910873 0.112408
C9    C     C_R   0.499555 0.500486 0.046532 0.062703
C10   C     C_R   0.500445 0.499514 0.953468 0.062703
C11   C     C_R   0.350640 0.452455 0.097011 0.122688
C12   C     C_R   0.455703 0.206169 0.501471 0.957580
C13   C     C_R   0.649360 0.547544 0.902988 0.122688
C14   C     C_R   0.794925 0.596838 0.038681 -0.222859
C15   C     C_R   0.205075 0.403162 0.961319 -0.222859
C16   C     C_3   0.021458 0.377230 0.394328 -0.147850
C17   C     C_3   0.921503 0.226099 0.370616 -0.874659
C18   C     C_3   0.978542 0.622770 0.605672 -0.147850
C19   C     C_3   0.078497 0.773901 0.629384 -0.874659
C20   C     C_R   0.795751 0.596082 0.945708 -0.226558
C21   C     C_R   0.204250 0.403917 0.054292 -0.226558
C22   C     C_2   0.567589 0.957179 0.500393 -0.377682
C23   C     C_2   0.432411 0.042821 0.499607 -0.377682
C24   C     C_R   0.501151 0.500047 0.672780 0.874034
C25   C     C_R   0.498849 0.499953 0.327220 0.874034
C26   C     C_R   0.351238 0.453102 0.189505 -0.270214
H1    H     H_    0.239003 0.413017 0.228520 0.142158
H2    H     H_    0.304223 0.993463 0.496214 0.176723
H3    H     H_    0.911357 0.150766 0.428485 0.254134
H4    H     H_    0.794478 0.248126 0.349820 0.293565
H5    H     H_    0.989777 0.161506 0.313099 0.213818
H6    H     H_    0.024095 0.455830 0.338109 0.163648
H7    H     H_    0.146788 0.337056 0.402876 0.232306
H8    H     H_    0.205522 0.751875 0.650179 0.293565
H9    H     H_    0.088642 0.849233 0.571515 0.254134
H10   H     H_    0.010223 0.838494 0.686901 0.213818
H11   H     H_    0.853212 0.662944 0.597124 0.232306
H12   H     H_    0.760998 0.586982 0.771479 0.142158
H13   H     H_    0.975905 0.544169 0.661891 0.163648
H14   H     H_    0.758812 0.587295 0.215033 0.159411
H15   H     H_    0.241188 0.412706 0.784968 0.159411
H16   H     H_    0.908969 0.634530 0.071089 0.156897
H17   H     H_    0.091031 0.365470 0.928911 0.156897
H18   H     H_    0.910460 0.633099 0.907273 0.152867
H19   H     H_    0.089541 0.366899 0.092727 0.152867
H20   H     H_    0.695777 0.006537 0.503786 0.176723
N1    N     N_2   0.950330 0.457950 0.475660 -0.030598
N2    N     N_2   0.049670 0.542050 0.524340 -0.030598
O1    O     O_R   0.389250 0.738570 0.505970 -0.606350
O2    O     O_R   0.610750 0.261430 0.494030 -0.606350
O3    O     O_R   0.678390 0.711620 0.490370 -0.647073
O4    O     O_R   0.321610 0.288380 0.509630 -0.647073
O5    O     O_R   0.355420 0.513510 0.639950 -0.626811
O6    O     O_R   0.644580 0.486490 0.360050 -0.626811
O7    O     O_R   0.644560 0.486560 0.624350 -0.656680
O8    O     O_R   0.355440 0.513440 0.375650 -0.656680
Zn1   Zn    Zn3+2 0.306940 0.517990 0.510420 0.928707
Zn2   Zn    Zn3+2 0.693060 0.482010 0.489580 0.928707

loop_
_geom_bond_atom_site_label_1
_geom_bond_atom_site_label_2
_ccdc_geom_bond_type
C2    C4    A    
C18   H13   S    
C5    C7    A    
C16   H7    S    
C16   H6    S    
C3    C26   A    
C17   H3    S    
C9    C10   A    
C2    H12   S    
C12   O2    A    
N1    N2    D    
C11   C26   A    
C25   O8    A    
C15   C21   A    
C14   H16   S    
C3    C5    A    
C15   H17   S    
C1    C22   S    
O3    Zn2   S    
C19   H9    S    
C23   H2    S    
C25   O6    A    
N1    Zn2   S    
C17   H4    S    
C1    O3    A    
C12   C23   S    
C26   H1    S    
C22   H20   S    
C4    C24   S    
C16   N1    S    
C8    C10   A    
C12   O4    A    
C18   H11   S    
C11   C21   A    
C10   C13   A    
C8    C15   A    
C21   H19   S    
C19   H10   S    
C9    C11   A    
C17   H5    S    
O7    Zn2   S    
O4    Zn1   S    
O2    Zn2   S    
C14   C20   A    
C3    C25   S    
N2    Zn1   S    
O1    Zn1   S    
O8    Zn1   S    
C4    C6    A    
C18   C19   S    
O6    Zn2   S    
C5    H14   S    
C7    C9    A    
C2    C13   A    
O5    Zn1   S    
C22   C23   D    
C6    C8    A    
C13   C20   A    
C20   H18   S    
C24   O5    A    
C1    O1    A    
C6    H15   S    
C7    C14   A    
C16   C17   S    
C24   O7    A    
C19   H8    S    
C18   N2    S    
