data_mof_unit_57691.cif
_audit_creation_date              2012-12-10T20:38:17-0500
_audit_creation_method            fapswitch 2.2
_symmetry_space_group_name_H-M    P1
_symmetry_Int_Tables_number       1
_space_group_crystal_system       triclinic
_cell_length_a                    9.891204
_cell_length_b                    10.711604
_cell_length_c                    16.979959
_cell_angle_alpha                 92.92925
_cell_angle_beta                  86.712224
_cell_angle_gamma                 91.872715
_cell_volume                      1792.93145178

loop_
_atom_site_label
_atom_site_type_symbol
_atom_type_description
_atom_site_fract_x
_atom_site_fract_y
_atom_site_fract_z
_atom_type_partial_charge
C1    C     C_R   0.502122 0.740625 0.501056 0.936604
C2    C     C_R   0.381077 0.565126 0.782670 -0.221014
C3    C     C_R   0.378505 0.459392 0.149140 -0.112170
C4    C     C_R   0.392806 0.500004 0.226458 -0.156384
C5    C     C_R   0.632833 0.454714 0.213625 0.380084
C6    C     C_R   0.614930 0.402439 0.137596 0.208083
C7    C     C_R   0.488870 0.410343 0.104825 0.058524
C8    C     C_2   0.491238 0.516660 0.984780 0.463285
C9    C     C_2   0.482995 0.407479 0.020095 -0.186770
C10   C     C_R   0.517704 0.491841 0.260957 -0.220533
C11   C     C_R   0.382940 0.933574 0.501402 -0.007115
C12   C     C_R   0.483206 0.499660 0.652167 0.867529
C13   C     C_R   0.503962 0.874364 0.509843 -0.219865
C14   C     C_R   0.617657 0.945294 0.535828 0.412682
C15   C     C_R   0.605689 0.074411 0.550561 0.125435
C16   C     C_R   0.492868 0.132195 0.522640 -0.207514
C17   C     C_R   0.377778 0.060393 0.506419 0.025031
C18   C     C_3   0.280965 0.063806 0.442319 -0.419618
C19   C     C_3   0.285274 0.922011 0.437164 0.115871
C20   C     C_R   0.923984 0.533980 0.567104 0.113527
C21   C     C_R   0.930188 0.437708 0.440792 0.419417
C22   C     C_R   0.074837 0.438380 0.440726 0.184591
C23   C     C_R   0.497785 0.261319 0.506297 0.943077
C24   C     C_R   0.065858 0.536471 0.566355 0.107927
C25   C     C_3   0.071779 0.657810 0.612701 -0.540383
C26   C     C_3   0.917333 0.653644 0.615470 0.290876
C27   C     C_R   0.516805 0.503008 0.347151 0.923777
C28   C     C_R   0.479174 0.498990 0.736891 -0.097580
C29   C     C_R   0.582437 0.439635 0.772074 -0.224040
C30   C     C_R   0.590507 0.448591 0.853352 0.439457
C31   C     C_R   0.490304 0.513188 0.899203 -0.071886
C32   C     C_R   0.386888 0.572422 0.864124 -0.239737
H1    H     H_    0.657800 0.387796 0.736390 0.205428
H2    H     H_    0.180653 0.098928 0.464636 0.188738
H3    H     H_    0.326498 0.109232 0.389222 0.252925
H4    H     H_    0.188887 0.875533 0.457921 0.128424
H5    H     H_    0.114604 0.648873 0.671106 0.215171
H6    H     H_    0.304820 0.536891 0.259512 0.225191
H7    H     H_    0.117957 0.734666 0.577583 0.165154
H8    H     H_    0.874945 0.727941 0.583074 0.135684
H9    H     H_    0.482595 0.318146 0.986691 0.170762
H10   H     H_    0.310515 0.623035 0.899902 0.175128
H11   H     H_    0.282845 0.471002 0.122607 0.168074
H12   H     H_    0.302505 0.612986 0.755480 0.157190
N1    N     N_R   0.857140 0.500860 0.500530 -0.203151
N2    N     N_R   0.142780 0.500820 0.500530 -0.141939
O1    O     O_R   0.385310 0.683210 0.499990 -0.609216
O2    O     O_R   0.614650 0.683240 0.500000 -0.619526
O3    O     O_R   0.371780 0.500000 0.615800 -0.617605
O4    O     O_R   0.601120 0.500040 0.615800 -0.599812
O5    O     O_R   0.385350 0.316760 0.500000 -0.589171
O6    O     O_R   0.614690 0.316790 0.500010 -0.598576
O7    O     O_R   0.398880 0.499960 0.384200 -0.566960
O8    O     O_R   0.628220 0.500000 0.384200 -0.565190
Zn1   Zn    Zn3+2 0.346870 0.499980 0.499990 0.995871
Zn2   Zn    Zn3+2 0.653130 0.500020 0.500010 0.993919
Br1   Br    Br    0.762640 0.322248 0.078490 -0.551168
O9    O     O_3   0.736906 0.888396 0.549748 -0.645964
C33   C     C_3   0.841066 0.919897 0.492296 0.089696
H13   H     H_    0.939757 0.915212 0.519943 0.150895
H14   H     H_    0.836308 0.016939 0.472704 0.150328
C34   C     C_3   0.840888 0.827226 0.420381 -0.381294
H15   H     H_    0.847785 0.730387 0.439600 0.240575
H16   H     H_    0.744115 0.833482 0.390914 0.236980
C35   C     C_3   0.959367 0.852527 0.360993 -0.971533
H17   H     H_    0.997678 0.951141 0.365905 0.279106
H18   H     H_    0.925771 0.833836 0.300448 0.268329
H19   H     H_    0.042922 0.788820 0.369481 0.285540
Br2   Br    Br    0.741824 0.165846 0.609585 -0.592077
Br3   Br    Br    0.363352 0.856118 0.336108 -0.586463
O10   O     O_3   0.864824 0.387839 0.375895 -0.557628
C36   C     C_3   0.843931 0.256577 0.379475 0.161140
H20   H     H_    0.814842 0.228009 0.440085 0.152802
H21   H     H_    0.937184 0.206997 0.359433 0.157160
C37   C     C_3   0.733255 0.214340 0.323292 -0.264552
H22   H     H_    0.639145 0.265143 0.339672 0.230664
H23   H     H_    0.768293 0.235846 0.262104 0.281031
C38   C     C_3   0.699537 0.074973 0.323589 -0.998902
H24   H     H_    0.790197 0.021617 0.303677 0.283707
H25   H     H_    0.618883 0.051149 0.282007 0.303613
H26   H     H_    0.661735 0.048671 0.383213 0.271486
Br4   Br    Br    0.170220 0.344936 0.357258 -0.535190
O11   O     O_3   0.860984 0.633463 0.692543 -0.628491
C39   C     C_3   0.764780 0.724579 0.716700 0.108380
H27   H     H_    0.702411 0.688688 0.767536 0.142672
H28   H     H_    0.692844 0.739092 0.670101 0.175441
C40   C     C_3   0.834271 0.848091 0.743972 -0.377684
H29   H     H_    0.905860 0.829915 0.789910 0.218366
H30   H     H_    0.892594 0.889669 0.693381 0.247390
C41   C     C_3   0.730518 0.941434 0.778133 -0.852397
H31   H     H_    0.657316 0.960346 0.733280 0.290539
H32   H     H_    0.783075 0.030718 0.796056 0.281171
H33   H     H_    0.674448 0.904042 0.830830 0.235491
O12   O     O_3   0.761330 0.463594 0.241750 -0.584449
C42   C     C_3   0.815728 0.586796 0.234418 0.181257
H34   H     H_    0.891424 0.602697 0.279992 0.197147
H35   H     H_    0.738560 0.660133 0.246571 0.103058
C43   C     C_3   0.888239 0.601213 0.152805 -0.379895
H36   H     H_    0.960255 0.524199 0.140481 0.272757
H37   H     H_    0.812564 0.595816 0.106841 0.230975
C44   C     C_3   0.966705 0.725610 0.147366 -0.962637
H38   H     H_    0.897643 0.804696 0.160110 0.271503
H39   H     H_    0.013431 0.733236 0.086696 0.274088
H40   H     H_    0.048797 0.731238 0.189495 0.291086
O13   O     O_3   0.487822 0.629083 0.029887 -0.636941
C45   C     C_3   0.587062 0.715190 0.000424 0.066102
H41   H     H_    0.552613 0.756203 0.946372 0.146920
H42   H     H_    0.686102 0.669686 0.986497 0.125886
C46   C     C_3   0.607674 0.820159 0.063367 -0.313733
H43   H     H_    0.510139 0.867075 0.077884 0.248623
H44   H     H_    0.640597 0.779843 0.117945 0.230545
C47   C     C_3   0.713940 0.916941 0.035258 -0.912244
H45   H     H_    0.812367 0.872079 0.020145 0.261074
H46   H     H_    0.728430 0.990162 0.082984 0.294714
H47   H     H_    0.680380 0.962070 0.982551 0.273949
O14   O     O_3   0.691805 0.389192 0.888643 -0.632237
C48   C     C_3   0.817861 0.453870 0.876138 0.082092
H48   H     H_    0.857117 0.480225 0.934893 0.181005
H49   H     H_    0.812646 0.542677 0.844931 0.132034
C49   C     C_3   0.918147 0.367380 0.830558 -0.279240
H50   H     H_    0.926002 0.280356 0.862772 0.242095
H51   H     H_    0.881217 0.341531 0.771190 0.243209
C50   C     C_3   0.058280 0.430253 0.820758 -0.920751
H52   H     H_    0.052850 0.517365 0.788496 0.278545
H53   H     H_    0.128225 0.366093 0.786519 0.276315
H54   H     H_    0.099392 0.453196 0.879448 0.260307

loop_
_geom_bond_atom_site_label_1
_geom_bond_atom_site_label_2
_ccdc_geom_bond_type
C10   C27   S    
C40   H29   S    
C44   H38   S    
C48   H48   S    
C42   H34   S    
C39   C40   S    
C8    O13   S    
C47   H46   S    
C12   O3    A    
C41   H31   S    
C27   O8    A    
C50   H52   S    
C30   O14   S    
C3    H11   S    
C29   C30   A    
C45   H42   S    
C21   O10   S    
C26   O11   S    
C22   Br4   S    
C28   C29   A    
C39   H28   S    
C3    C7    A    
C19   H4    S    
C46   H44   S    
C30   C31   A    
C38   H25   S    
C50   H53   S    
C16   C17   A    
C45   H41   S    
C15   C16   A    
C29   H1    S    
O14   C48   S    
C2    C32   A    
C18   C19   S    
C34   H16   S    
C25   H5    S    
C23   O5    A    
C20   C24   A    
N1    Zn2   S    
C2    H12   S    
C8    C9    D    
C35   H18   S    
N2    Zn1   S    
C18   H3    S    
C20   N1    A    
C49   C50   S    
C33   H13   S    
C44   H39   S    
C13   C14   A    
C6    Br1   S    
C36   C37   S    
C15   Br2   S    
C47   H45   S    
C49   H51   S    
C5    O12   S    
C21   N1    A    
O7    Zn1   S    
C14   O9    S    
O8    Zn2   S    
C33   H14   S    
C24   C25   S    
C36   H21   S    
C48   C49   S    
C38   H24   S    
C1    O1    A    
C50   H54   S    
O9    C33   S    
O3    Zn1   S    
O4    Zn2   S    
C37   H22   S    
C34   H15   S    
C37   H23   S    
C41   H32   S    
O11   C39   S    
C35   H19   S    
C11   C19   S    
C42   H35   S    
C17   C18   S    
C39   H27   S    
C18   H2    S    
C22   N2    A    
C4    H6    S    
C35   H17   S    
C44   H40   S    
C43   H37   S    
C40   H30   S    
C46   C47   S    
C1    C13   S    
C4    C10   A    
C3    C4    A    
C49   H50   S    
C41   H33   S    
O1    Zn1   S    
O2    Zn2   S    
C11   C17   A    
C33   C34   S    
C34   C35   S    
C8    C31   S    
C31   C32   A    
C36   H20   S    
C12   O4    A    
C27   O7    A    
C1    O2    A    
C6    C7    A    
C16   C23   S    
C43   C44   S    
O13   C45   S    
C9    H9    S    
C24   N2    A    
C48   H49   S    
C25   C26   S    
O10   C36   S    
C46   H43   S    
C25   H7    S    
C11   C13   A    
C38   H26   S    
C26   H8    S    
C23   O6    A    
C5    C6    A    
C20   C26   S    
O5    Zn1   S    
O12   C42   S    
C37   C38   S    
C7    C9    S    
C5    C10   A    
C12   C28   S    
C43   H36   S    
C40   C41   S    
C32   H10   S    
C14   C15   A    
C19   Br3   S    
C2    C28   A    
C21   C22   A    
C42   C43   S    
C47   H47   S    
O6    Zn2   S    
C45   C46   S    
