data_mof_unit_40980.cif
_audit_creation_date              2012-12-10T17:49:39-0500
_audit_creation_method            fapswitch 2.2
_symmetry_space_group_name_H-M    P1
_symmetry_Int_Tables_number       1
_space_group_crystal_system       triclinic
_cell_length_a                    10.513095
_cell_length_b                    10.651258
_cell_length_c                    9.936619
_cell_angle_alpha                 89.916822
_cell_angle_beta                  89.84039
_cell_angle_gamma                 90.960546
_cell_volume                      1112.51769006

loop_
_atom_site_label
_atom_site_type_symbol
_atom_type_description
_atom_site_fract_x
_atom_site_fract_y
_atom_site_fract_z
_atom_type_partial_charge
C1    C     C_R   0.505559 0.260787 0.500212 0.844505
C2    C     C_3   0.959276 0.514555 0.372546 -0.189975
C3    C     C_3   0.041383 0.404565 0.422146 -0.239977
C4    C     C_3   0.122562 0.499459 0.501111 -0.103285
C5    C     C_R   0.701399 0.133476 0.655621 -0.189781
C6    C     C_R   0.792390 0.069153 0.729250 -0.135264
C7    C     C_R   0.793878 0.938658 0.726896 -0.098491
C8    C     C_R   0.704037 0.872026 0.651354 -0.159584
C9    C     C_R   0.609608 0.935656 0.577802 0.095131
C10   C     C_R   0.608652 0.067447 0.579229 0.107822
C11   C     C_R   0.516876 0.128608 0.499964 -0.095370
C12   C     C_R   0.257595 0.499986 0.500284 0.927159
C13   C     C_R   0.434559 0.063185 0.415030 -0.212851
C14   C     C_R   0.436236 0.935271 0.413198 -0.110824
C15   C     C_R   0.518270 0.871973 0.498173 -0.122246
C16   C     C_R   0.333173 0.337321 0.140348 -0.144956
C17   C     C_R   0.250616 0.257631 0.070659 -0.195481
C18   C     C_R   0.250586 0.257663 0.931386 -0.182911
C19   C     C_R   0.333214 0.337296 0.860969 -0.153299
C20   C     C_R   0.417824 0.419883 0.928103 0.167304
C21   C     C_R   0.417819 0.419927 0.072543 0.184605
C22   C     C_R   0.578674 0.576513 0.071063 -0.098329
C23   C     C_R   0.505993 0.739394 0.499725 0.920301
C24   C     C_R   0.578648 0.576483 0.928111 -0.101142
C25   C     C_R   0.742390 0.498855 0.499777 0.870492
C26   C     C_3   0.040070 0.482614 0.627435 -0.200863
C27   C     C_3   0.956431 0.387757 0.548394 -0.154187
C28   C     C_3   0.877313 0.497909 0.499214 -0.047516
C29   C     C_3   0.957997 0.592702 0.578477 -0.223383
C30   C     C_3   0.041887 0.607493 0.452854 0.530095
H1    H     H_    0.918573 0.296978 0.587187 0.141930
H2    H     H_    0.865757 0.888906 0.782460 0.142069
H3    H     H_    0.711501 0.771046 0.648939 0.134816
H4    H     H_    0.370489 0.885387 0.348005 0.226804
H5    H     H_    0.643057 0.639126 0.124284 0.155266
H6    H     H_    0.327879 0.331112 0.246982 0.190602
H7    H     H_    0.186465 0.195252 0.125278 0.149211
H8    H     H_    0.186330 0.195379 0.877355 0.155632
H9    H     H_    0.327977 0.331155 0.754324 0.204207
H10   H     H_    0.642999 0.639092 0.874279 0.142810
H11   H     H_    0.076329 0.469251 0.731248 0.173633
H12   H     H_    0.921249 0.669953 0.641622 0.153322
H13   H     H_    0.923436 0.528696 0.268694 0.172652
H14   H     H_    0.079588 0.327900 0.358984 0.151430
H15   H     H_    0.366497 0.111237 0.352306 0.151572
H16   H     H_    0.706768 0.234734 0.657321 0.157220
H17   H     H_    0.863099 0.120850 0.786781 0.134898
N1    N     N_R   0.498800 0.498800 0.142780 -0.120920
N2    N     N_R   0.498760 0.498720 0.857170 -0.123551
O1    O     O_R   0.500000 0.316780 0.614690 -0.647310
O2    O     O_R   0.499990 0.316750 0.385360 -0.639613
O3    O     O_R   0.313960 0.499980 0.614650 -0.638378
O4    O     O_R   0.313940 0.499960 0.385310 -0.610720
O5    O     O_R   0.500010 0.683250 0.614640 -0.612463
O6    O     O_R   0.500000 0.683220 0.385310 -0.599705
O7    O     O_R   0.686060 0.500040 0.614690 -0.640391
O8    O     O_R   0.686040 0.500020 0.385350 -0.621038
Zn1   Zn    Zn3+2 0.500010 0.500020 0.653130 0.942031
Zn2   Zn    Zn3+2 0.499990 0.499980 0.346870 0.972909
S1    S     S_3+6 0.097885 0.755293 0.391739 -0.022194
O9    O     O_2   0.171214 0.820864 0.501354 -0.349249
O10   O     O_2   0.182142 0.735565 0.271475 -0.321290
O11   O     O_3   0.972723 0.842252 0.347476 -0.569934
H18   H     H_    0.009957 0.924329 0.319648 0.376043

loop_
_geom_bond_atom_site_label_1
_geom_bond_atom_site_label_2
_ccdc_geom_bond_type
C14   H4    S    
C22   N1    A    
C23   O6    A    
C16   C21   A    
O6    Zn2   S    
C29   H12   S    
C4    C12   S    
C20   N2    A    
C11   C13   A    
C1    O1    A    
C4    C26   S    
C19   C20   A    
C1    C11   S    
C25   O7    A    
C2    H13   S    
C2    C30   S    
C21   N1    A    
C15   C23   S    
C17   C18   A    
O4    Zn2   S    
C7    C8    A    
C17   H7    S    
C13   C14   A    
C16   H6    S    
C25   C28   S    
C13   H15   S    
C22   H5    S    
C1    O2    A    
C26   C27   S    
C29   C30   S    
O3    Zn1   S    
C23   O5    A    
S1    O11   S    
C19   H9    S    
C9    C10   A    
C3    C27   S    
C28   C29   S    
C12   O3    A    
O7    Zn1   S    
C2    C3    S    
C6    C7    A    
C8    H3    S    
C18   H8    S    
C5    C6    A    
O5    Zn1   S    
C22   C24   A    
C3    H14   S    
O8    Zn2   S    
O2    Zn2   S    
C10   C11   A    
C27   H1    S    
O11   H18   S    
O1    Zn1   S    
C16   C17   A    
C6    H17   S    
C25   O8    A    
C5    C10   A    
C20   C21   A    
C3    C4    S    
N1    Zn2   S    
S1    O10   D    
C18   C19   A    
C5    H16   S    
C24   N2    A    
C14   C15   A    
S1    O9    D    
C2    C28   S    
C7    H2    S    
C26   C29   S    
C24   H10   S    
C9    C15   A    
C4    C30   S    
N2    Zn1   S    
C12   O4    A    
C26   H11   S    
C8    C9    A    
C27   C28   S    
C30   S1    S    
