data_mof_unit_11068.cif
_audit_creation_date              2012-12-10T22:11:10-0500
_audit_creation_method            fapswitch 2.2
_symmetry_space_group_name_H-M    P1
_symmetry_Int_Tables_number       1
_space_group_crystal_system       triclinic
_cell_length_a                    12.194171
_cell_length_b                    12.349184
_cell_length_c                    22.979492
_cell_angle_alpha                 91.697682
_cell_angle_beta                  90.44129
_cell_angle_gamma                 90.748721
_cell_volume                      3458.50962907

loop_
_atom_site_label
_atom_site_type_symbol
_atom_type_description
_atom_site_fract_x
_atom_site_fract_y
_atom_site_fract_z
_atom_type_partial_charge
C1    C     C_R   0.659036 0.998703 0.577516 0.839039
C2    C     C_R   0.341333 0.001201 0.422353 0.829098
C3    C     C_R   0.900650 0.775476 0.149378 -0.175755
C4    C     C_R   0.100724 0.222888 0.851604 -0.169759
C5    C     C_R   0.088200 0.909960 0.159974 -0.004868
C6    C     C_R   0.909816 0.094901 0.837752 -0.021400
C7    C     C_R   0.082859 0.824514 0.118967 -0.155581
C8    C     C_R   0.914039 0.181145 0.877806 -0.182893
C9    C     C_R   0.915987 0.121127 0.168601 -0.176222
C10   C     C_R   0.083577 0.878321 0.831383 -0.200266
C11   C     C_R   0.914530 0.198382 0.126849 -0.198762
C12   C     C_R   0.085574 0.800101 0.872535 -0.202293
C13   C     C_R   0.176551 0.932740 0.290178 -0.190398
C14   C     C_R   0.825564 0.069852 0.708857 -0.090942
C15   C     C_R   0.255699 0.929293 0.333353 -0.121288
C16   C     C_R   0.746753 0.073048 0.665504 -0.111036
C17   C     C_R   0.824038 0.099356 0.299092 -0.007042
C18   C     C_R   0.174727 0.900073 0.700616 -0.004017
C19   C     C_R   0.741396 0.091355 0.339632 -0.199384
C20   C     C_R   0.257092 0.907857 0.659844 -0.194258
C21   C     C_3   0.999428 0.016162 0.248245 -0.103622
C22   C     C_3   0.000248 0.984113 0.752111 -0.103325
C23   C     C_R   0.652155 0.001077 0.419735 0.869760
C24   C     C_R   0.347627 0.998873 0.580222 0.870839
C25   C     C_R   0.094291 0.011919 0.292533 0.040857
C26   C     C_R   0.905420 0.988355 0.707965 0.069754
C27   C     C_R   0.252010 0.001252 0.381172 -0.080702
C28   C     C_R   0.748306 0.998227 0.618894 -0.095750
C29   C     C_R   0.895678 0.008843 0.287766 -0.025617
C30   C     C_R   0.103674 0.990910 0.712289 -0.037064
C31   C     C_R   0.730737 0.000795 0.373090 -0.087995
C32   C     C_R   0.268589 0.998886 0.626763 -0.089064
C33   C     C_R   0.000925 0.118068 0.211102 0.071448
C34   C     C_R   0.998067 0.882482 0.789299 0.086357
C35   C     C_R   0.998707 0.274643 0.125394 -0.044557
C36   C     C_R   0.002049 0.723091 0.873435 -0.034517
C37   C     C_R   0.000742 0.922701 0.201066 0.008786
C38   C     C_R   0.999850 0.077421 0.799101 0.011543
C39   C     C_R   0.991418 0.755867 0.114901 -0.071206
C40   C     C_R   0.008026 0.245876 0.884135 -0.056269
C41   C     C_R   0.992731 0.663628 0.074480 0.866231
C42   C     C_R   0.007216 0.336986 0.925178 0.868352
C43   C     C_R   0.998969 0.353464 0.080698 0.872634
C44   C     C_R   0.001153 0.645454 0.918749 0.872960
C45   C     C_R   0.088843 0.079429 0.343213 -0.135825
C46   C     C_R   0.908239 0.916667 0.658870 -0.134427
C47   C     C_R   0.165350 0.074244 0.387930 -0.051555
C48   C     C_R   0.832390 0.921757 0.613787 -0.053061
C49   C     C_R   0.880536 0.914066 0.322829 -0.010424
C50   C     C_R   0.119483 0.085964 0.677533 -0.007485
C51   C     C_R   0.797249 0.912307 0.363879 -0.172602
C52   C     C_R   0.202672 0.087684 0.636387 -0.167117
C53   C     C_R   0.083396 0.202294 0.211099 0.032139
C54   C     C_R   0.915783 0.797996 0.788823 0.031634
C55   C     C_R   0.081795 0.277285 0.167192 -0.155044
C56   C     C_R   0.919501 0.720147 0.831272 -0.218197
C57   C     C_R   0.904298 0.858604 0.190894 -0.202391
C58   C     C_R   0.097351 0.139185 0.810348 -0.204418
H1    H     H_    0.849320 0.062386 0.167823 0.152901
H2    H     H_    0.150368 0.936870 0.832357 0.159255
H3    H     H_    0.180564 0.871343 0.256044 0.130953
H4    H     H_    0.824009 0.134283 0.741355 0.153898
H5    H     H_    0.786277 0.842378 0.390773 0.206202
H6    H     H_    0.214171 0.158034 0.609853 0.205505
H7    H     H_    0.144429 0.340530 0.166471 0.169174
H8    H     H_    0.856545 0.657223 0.831986 0.160624
H9    H     H_    0.827164 0.725548 0.144923 0.166697
H10   H     H_    0.175552 0.270351 0.857485 0.168656
H11   H     H_    0.150869 0.811245 0.089597 0.195423
H12   H     H_    0.844108 0.195665 0.905764 0.183940
H13   H     H_    0.848792 0.196752 0.094814 0.165602
H14   H     H_    0.151170 0.801728 0.904656 0.171979
H15   H     H_    0.320703 0.870589 0.329161 0.154336
H16   H     H_    0.683888 0.134173 0.668532 0.159522
H17   H     H_    0.688011 0.159872 0.347632 0.170643
H18   H     H_    0.310035 0.839085 0.651637 0.169934
O1    O     O_R   0.621380 0.090460 0.561410 -0.607711
O2    O     O_R   0.378620 0.909540 0.438590 -0.607059
O3    O     O_R   0.617150 0.909540 0.438590 -0.637654
O4    O     O_R   0.382850 0.090460 0.561410 -0.635718
O5    O     O_R   0.619720 0.093230 0.440890 -0.607053
O6    O     O_R   0.380280 0.906770 0.559110 -0.607844
O7    O     O_R   0.618800 0.906770 0.559110 -0.628296
O8    O     O_R   0.381200 0.093230 0.440890 -0.627477
O9    O     O_R   0.087590 0.627480 0.058790 -0.628234
O10   O     O_R   0.912410 0.372520 0.941210 -0.627086
O11   O     O_R   0.905660 0.383870 0.059980 -0.625959
O12   O     O_R   0.094340 0.616130 0.940020 -0.625237
O13   O     O_R   0.092570 0.390420 0.063230 -0.614858
O14   O     O_R   0.907430 0.609580 0.936770 -0.620767
O15   O     O_R   0.900680 0.620930 0.055550 -0.618655
O16   O     O_R   0.099320 0.379070 0.944450 -0.617416
Zn1   Zn    Zn3+2 0.501730 0.123520 0.501540 1.016717
Zn2   Zn    Zn3+2 0.498270 0.876480 0.498460 1.014215
Zn3   Zn    Zn3+2 0.125690 0.504390 0.002180 0.990246
Zn4   Zn    Zn3+2 0.874310 0.495610 0.997820 0.983667
C59   C     C_2   0.150102 0.141371 0.442121 0.445578
H19   H     H_    0.195473 0.124445 0.481502 0.077857
O17   O     O_2   0.084994 0.215707 0.443757 -0.518323
C60   C     C_2   0.846132 0.850967 0.560815 0.448392
H20   H     H_    0.803331 0.868014 0.520654 0.079152
O18   O     O_2   0.907260 0.773408 0.561063 -0.518082
C61   C     C_2   0.952543 0.816588 0.320929 0.422901
H21   H     H_    0.006388 0.798695 0.285212 0.089581
O19   O     O_2   0.952740 0.752824 0.360588 -0.532760
C62   C     C_2   0.048429 0.184011 0.679797 0.409065
H22   H     H_    0.997904 0.204198 0.716547 0.083806
O20   O     O_2   0.045329 0.245684 0.639218 -0.529250
C63   C     C_2   0.169972 0.222281 0.255396 0.369408
H23   H     H_    0.148854 0.255821 0.297853 0.132332
O21   O     O_2   0.266418 0.210502 0.243184 -0.561586
C64   C     C_2   0.821765 0.786193 0.748402 0.374150
H24   H     H_    0.826327 0.729807 0.711409 0.119495
O22   O     O_2   0.736942 0.834955 0.757590 -0.549207
H25   H     H_    0.829349 0.871756 0.214562 0.151601
H26   H     H_    0.173011 0.123449 0.787721 0.155255
C65   C     C_2   0.186075 0.982982 0.157643 0.385771
H27   H     H_    0.210551 0.033600 0.194292 0.134348
O23   O     O_2   0.242041 0.986852 0.113867 -0.549228
C66   C     C_2   0.810596 0.025173 0.840000 0.422810
H28   H     H_    0.817070 0.940371 0.848755 0.115556
O24   O     O_2   0.719491 0.064454 0.836380 -0.543639
C67   C     C_2   0.835719 0.210313 0.277325 0.394548
H29   H     H_    0.777741 0.238718 0.245317 0.079422
O25   O     O_2   0.905114 0.272841 0.297822 -0.559087
C68   C     C_2   0.163788 0.789508 0.723023 0.399049
H30   H     H_    0.222029 0.762192 0.755193 0.079844
O26   O     O_2   0.094886 0.726035 0.702911 -0.552718
H31   H     H_    0.023388 0.136783 0.348081 0.217936
H32   H     H_    0.971452 0.856698 0.655470 0.219925

loop_
_geom_bond_atom_site_label_1
_geom_bond_atom_site_label_2
_ccdc_geom_bond_type
C16   C28   A    
C58   H26   S    
C45   H31   S    
C68   H30   S    
O6    Zn2   S    
C5    C37   A    
C65   H27   S    
C1    O1    A    
C2    O8    A    
C19   C31   A    
C64   O22   D    
C59   H19   S    
C67   H29   S    
C39   C41   S    
C29   C49   A    
C43   O13   A    
C62   O20   D    
C16   H16   S    
C65   O23   D    
C11   H13   S    
C67   O25   D    
C21   C33   S    
C62   H22   S    
C53   C63   S    
C14   H4    S    
C17   C29   A    
C20   H18   S    
C24   O6    A    
C32   C52   A    
C63   O21   D    
C55   H7    S    
O15   Zn4   S    
C38   C58   A    
C17   C67   S    
C4    C40   A    
C66   O24   D    
C49   C51   A    
C1    C28   S    
C50   C52   A    
C6    C38   A    
C2    C27   S    
C42   O10   A    
C12   C36   A    
C35   C43   S    
C18   C20   A    
C45   C47   A    
C12   H14   S    
O12   Zn3   S    
C3    C39   A    
C9    C33   A    
C13   H3    S    
C13   C25   A    
C48   C60   S    
C6    C66   S    
C64   H24   S    
C59   O17   D    
C24   O4    A    
C46   C48   A    
C53   C55   A    
C33   C53   A    
C22   C34   S    
C54   C56   A    
C35   C55   A    
C51   H5    S    
O3    Zn2   S    
C57   H25   S    
C52   H6    S    
C4    H10   S    
C6    C8    A    
O7    Zn2   S    
C21   C29   S    
O16   Zn3   S    
C5    C65   S    
C9    H1    S    
C23   C31   S    
O13   Zn3   S    
C10   H2    S    
C24   C32   S    
C46   H32   S    
C2    O2    A    
O5    Zn1   S    
C15   C27   A    
O10   Zn4   S    
O11   Zn4   S    
C60   O18   D    
C54   C64   S    
C10   C34   A    
C14   C26   A    
C9    C11   A    
C10   C12   A    
C18   C30   A    
C3    C57   A    
C15   H15   S    
C34   C54   A    
C13   C15   A    
C61   O19   D    
C14   C16   A    
C36   C44   S    
C25   C45   A    
C44   O14   A    
C66   H28   S    
C5    C7    A    
C19   H17   S    
C20   C32   A    
C27   C47   A    
C21   C25   S    
C28   C48   A    
C68   O26   D    
C22   C30   S    
C41   O15   A    
C23   O5    A    
C31   C51   A    
C40   C42   S    
C49   C61   S    
O14   Zn4   S    
C1    O7    A    
C41   O9    A    
C8    H12   S    
C47   C59   S    
C43   O11   A    
C11   C35   A    
C7    H11   S    
C63   H23   S    
C18   C68   S    
O9    Zn3   S    
C3    H9    S    
O2    Zn2   S    
C56   H8    S    
O1    Zn1   S    
C36   C56   A    
C17   C19   A    
C42   O16   A    
O8    Zn1   S    
C30   C50   A    
C26   C46   A    
C21   C37   S    
C22   C26   S    
C4    C58   A    
C61   H21   S    
C50   C62   S    
C7    C39   A    
C60   H20   S    
C8    C40   A    
C23   O3    A    
O4    Zn1   S    
C44   O12   A    
C37   C57   A    
C22   C38   S    
