data_mof_unit_37182.cif
_audit_creation_date              2012-12-11T14:51:42-0500
_audit_creation_method            fapswitch 2.2
_symmetry_space_group_name_H-M    P1
_symmetry_Int_Tables_number       1
_space_group_crystal_system       triclinic
_cell_length_a                    6.92824
_cell_length_b                    16.758423
_cell_length_c                    16.860614
_cell_angle_alpha                 101.328111
_cell_angle_beta                  89.905189
_cell_angle_gamma                 90.661894
_cell_volume                      1919.35868491

loop_
_atom_site_label
_atom_site_type_symbol
_atom_type_description
_atom_site_fract_x
_atom_site_fract_y
_atom_site_fract_z
_atom_type_partial_charge
O1    O     O_R   0.506340 0.439070 0.579550 -0.535674
O2    O     O_R   0.170010 0.404890 0.412100 -0.538188
O3    O     O_R   0.005010 0.560930 0.420450 -0.542303
C1    C     C_R   0.339501 0.381825 0.383078 0.709019
O4    O     O_R   0.176280 0.429360 0.578400 -0.539887
O5    O     O_R   0.011320 0.585570 0.587940 -0.538700
C2    C     C_R   0.345962 0.414016 0.605594 0.696659
O6    O     O_R   0.500030 0.414430 0.412060 -0.538547
O7    O     O_3   0.340950 0.551220 0.502940 -0.371223
V1    V     V_3+5 0.064020 0.490500 0.499460 1.423048
O8    O     O_R   0.681910 0.595110 0.587900 -0.544183
C3    C     C_R   0.851463 0.618174 0.616946 0.680174
O9    O     O_R   0.675640 0.570640 0.421600 -0.540489
C4    C     C_R   0.846860 0.585692 0.394195 0.704175
V2    V     V_3+5 0.564670 0.509500 0.500540 1.417051
O10   O     O_3   0.837610 0.448780 0.497060 -0.363333
C5    C     C_R   0.889911 0.861490 0.166815 -0.061518
C6    C     C_R   0.874937 0.636806 0.331880 -0.068419
C7    C     C_R   0.095665 0.682441 0.235572 -0.193943
C8    C     C_R   0.048094 0.628930 0.286649 -0.143486
C9    C     C_R   0.746357 0.698346 0.322376 -0.240989
C10   C     C_R   0.793986 0.752748 0.270853 0.160463
C11   C     C_R   0.971017 0.745366 0.227688 0.158133
C12   C     C_R   0.019195 0.800237 0.176631 -0.235570
C13   C     C_R   0.714822 0.867984 0.210646 -0.159973
C14   C     C_R   0.668095 0.814930 0.262184 -0.200194
H1    H     H_    0.152838 0.793373 0.142566 0.120796
H2    H     H_    0.610267 0.913643 0.203814 0.156951
H3    H     H_    0.231154 0.674990 0.202869 0.122883
H4    H     H_    0.531742 0.821872 0.294276 0.129815
H5    H     H_    0.150229 0.581780 0.291937 0.128409
H6    H     H_    0.613399 0.705675 0.356905 0.123522
C15   C     C_3   0.801443 0.815835 0.732216 -0.098305
C16   C     C_3   0.972065 0.768810 0.686066 -0.108658
H7    H     H_    0.045518 0.784463 0.632489 0.116158
H8    H     H_    0.734351 0.871025 0.717574 0.122895
C17   C     C_3   0.865422 0.688143 0.687957 -0.024650
C18   C     C_3   0.694696 0.734349 0.733337 -0.136118
C19   C     C_3   0.792964 0.730069 0.814890 -0.157911
C20   C     C_3   0.963490 0.682965 0.768700 -0.151944
C21   C     C_3   0.070365 0.764475 0.767584 -0.098372
C22   C     C_3   0.899749 0.810763 0.812954 -0.000712
H9    H     H_    0.539931 0.721517 0.718693 0.111150
H10   H     H_    0.719507 0.714481 0.868494 0.107056
H11   H     H_    0.030038 0.627641 0.783279 0.105843
H12   H     H_    0.225133 0.777354 0.782183 0.109518
C23   C     C_3   0.556394 0.282318 0.276219 -0.171609
C24   C     C_3   0.488923 0.193615 0.273391 -0.000448
H13   H     H_    0.700005 0.308175 0.297241 0.159562
C25   C     C_3   0.408659 0.188658 0.187684 -0.149202
C26   C     C_3   0.472119 0.277253 0.190543 0.003570
C27   C     C_3   0.275273 0.308313 0.226717 -0.167332
C28   C     C_3   0.210428 0.218822 0.224308 -0.062597
C29   C     C_3   0.292303 0.223309 0.310826 -0.147514
C30   C     C_3   0.357470 0.311800 0.312306 -0.079616
H14   H     H_    0.186372 0.355843 0.207476 0.146307
H15   H     H_    0.066910 0.192999 0.203203 0.157872
H16   H     H_    0.217412 0.200976 0.360647 0.148927
C31   C     C_R   0.401203 0.133937 0.828377 -0.109323
C32   C     C_R   0.365854 0.364068 0.669168 -0.066431
C33   C     C_R   0.546525 0.336910 0.785600 -0.171895
C34   C     C_R   0.504716 0.387134 0.730623 -0.158821
C35   C     C_R   0.268575 0.289140 0.664003 -0.219294
C36   C     C_R   0.313580 0.237259 0.718128 0.142301
C37   C     C_R   0.453399 0.261234 0.779574 0.149686
C38   C     C_R   0.496981 0.209442 0.833983 -0.215636
C39   C     C_R   0.267408 0.109400 0.764290 -0.038527
C40   C     C_R   0.224206 0.160866 0.710525 -0.210264
H17   H     H_    0.600611 0.228921 0.882129 0.129665
H18   H     H_    0.654252 0.356752 0.832017 0.119614
H19   H     H_    0.120287 0.141067 0.662399 0.127677
H20   H     H_    0.583349 0.444157 0.735468 0.115137
H21   H     H_    0.164655 0.269725 0.615883 0.120418
O11   O     O_R   0.266070 0.085680 0.087850 -0.535655
O12   O     O_R   0.590090 0.070660 0.921580 -0.538682
O13   O     O_R   0.754780 0.914400 0.912080 -0.544192
C41   C     C_R   0.420628 0.085373 0.893661 0.725520
O14   O     O_R   0.596110 0.095130 0.087880 -0.541139
O15   O     O_R   0.760850 0.939050 0.079570 -0.544858
C42   C     C_R   0.426581 0.118340 0.116859 0.735328
O16   O     O_R   0.260010 0.061030 0.920360 -0.530985
O17   O     O_3   0.425070 0.948840 0.997010 -0.377938
V3    V     V_3+5 0.702100 0.009490 0.000550 1.454771
O18   O     O_R   0.090200 0.929250 0.078500 -0.541803
C43   C     C_R   0.918759 0.913599 0.105351 0.699978
O19   O     O_R   0.084180 0.904770 0.912200 -0.540970
C44   C     C_R   0.914385 0.881221 0.883582 0.704377
V4    V     V_3+5 0.201420 0.990350 0.999580 1.458062
O20   O     O_3   0.928580 0.051150 0.002990 -0.363283
C45   C     C_2   0.606381 0.130109 0.301414 0.728783
O21   O     O_2   0.774560 0.144487 0.321553 -0.572047
O22   O     O_R   0.521320 0.055190 0.305797 -0.674428
H22   H     H_    0.612281 0.018591 0.328834 0.292243
C46   C     C_2   0.570694 0.308016 0.123270 0.739327
O23   O     O_2   0.733050 0.337559 0.133222 -0.567928
O24   O     O_R   0.475381 0.303098 0.049528 -0.669394
H23   H     H_    0.554470 0.327456 0.009377 0.285898
C47   C     C_1   0.175288 0.030256 0.750707 0.296184
N1    N     N_1   0.101755 0.966752 0.739318 -0.399826

loop_
_geom_bond_atom_site_label_1
_geom_bond_atom_site_label_2
_ccdc_geom_bond_type
C33   H18   S    
C16   C17   S    
C21   C22   S    
C4    C6    S    
O2    C1    A    
C7    C8    A    
C12   H1    S    
C1    O6    A    
C31   C41   S    
C23   H13   S    
C28   C29   S    
C13   H2    S    
C24   C29   S    
C32   C35   A    
C5    C43   S    
C15   C22   S    
C36   C40   A    
C17   C20   S    
C31   C38   A    
O5    C3    A    
C18   C19   S    
C47   N1    T    
O19   V4    S    
C38   H17   S    
V2    O10   S    
C6    C9    A    
C15   H8    S    
C32   C34   A    
C16   H7    S    
C3    C17   S    
C39   C47   S    
C31   C39   A    
O8    V2    S    
O14   V3    S    
C21   H12   S    
O1    V2    S    
O7    V1    S    
C27   C30   S    
C24   C25   S    
C24   C45   S    
O9    C4    A    
C46   O23   D    
C16   C21   S    
O13   V3    S    
C15   C16   S    
C19   C22   S    
C20   H11   S    
V3    O20   S    
C9    H6    S    
C5    C12   A    
C26   C27   S    
C25   C28   S    
O18   C43   A    
C19   C20   S    
O4    C2    A    
C28   H15   S    
O19   C44   A    
C23   C26   S    
C35   H21   S    
C13   C14   A    
C39   C40   A    
C7    C11   A    
C17   C18   S    
C45   O22   S    
C23   C24   S    
C41   O16   A    
C11   C12   A    
O24   H23   S    
C25   C26   S    
O14   C42   A    
C34   H20   S    
C46   O24   S    
O12   C41   A    
O13   C44   A    
O3    C4    A    
C20   C21   S    
C14   H4    S    
O6    V2    S    
O9    V2    S    
C1    C30   S    
O2    V1    S    
C2    C32   S    
O15   C43   A    
C27   C28   S    
C23   C30   S    
C29   H16   S    
C29   C30   S    
O1    C2    A    
O18   V4    S    
C25   C42   S    
O5    V1    S    
O8    C3    A    
C19   H10   S    
C15   C18   S    
C5    C13   A    
C36   C37   A    
O7    V2    S    
O4    V1    S    
O3    V1    S    
V1    O10   S    
O15   V3    S    
O12   V3    S    
C45   O21   D    
C40   H19   S    
O17   V4    S    
O22   H22   S    
C6    C8    A    
C37   C38   A    
C33   C34   A    
O16   V4    S    
C26   C46   S    
C35   C36   A    
C33   C37   A    
C18   H9    S    
V4    O20   S    
O17   V3    S    
C10   C14   A    
C10   C11   A    
O11   C42   A    
C22   C44   S    
O11   V4    S    
C9    C10   A    
C27   H14   S    
C8    H5    S    
C7    H3    S    
