data_mof_unit_57549.cif
_audit_creation_date              2012-12-11T15:17:42-0500
_audit_creation_method            fapswitch 2.2
_symmetry_space_group_name_H-M    P1
_symmetry_Int_Tables_number       1
_space_group_crystal_system       triclinic
_cell_length_a                    7.052433
_cell_length_b                    20.142278
_cell_length_c                    22.027955
_cell_angle_alpha                 90.000287
_cell_angle_beta                  90.001244
_cell_angle_gamma                 89.999357
_cell_volume                      3129.11651791

loop_
_atom_site_label
_atom_site_type_symbol
_atom_type_description
_atom_site_fract_x
_atom_site_fract_y
_atom_site_fract_z
_atom_type_partial_charge
O1    O     O_R   0.620180 0.810610 0.187990 -0.523773
O2    O     O_R   0.379820 0.189390 0.812010 -0.538488
O3    O     O_R   0.379820 0.189390 0.687990 -0.523773
O4    O     O_R   0.620180 0.810610 0.312010 -0.538491
O5    O     O_R   0.120180 0.689390 0.312010 -0.538490
O6    O     O_R   0.879820 0.310610 0.687990 -0.523784
O7    O     O_R   0.879820 0.310610 0.812010 -0.538485
O8    O     O_R   0.120180 0.689390 0.187990 -0.523769
O9    O     O_R   0.290420 0.818570 0.311590 -0.531200
O10   O     O_R   0.709580 0.181430 0.688410 -0.543022
O11   O     O_R   0.709580 0.181430 0.811590 -0.531202
O12   O     O_R   0.290420 0.818570 0.188410 -0.543021
O13   O     O_R   0.790420 0.681430 0.188410 -0.543023
O14   O     O_R   0.209580 0.318570 0.811590 -0.531214
O15   O     O_R   0.209580 0.318570 0.688410 -0.543019
O16   O     O_R   0.790420 0.681430 0.311590 -0.531203
C1    C     C_R   0.459541 0.835035 0.331452 0.773850
C2    C     C_R   0.540872 0.165678 0.667995 0.773205
C3    C     C_R   0.540461 0.164964 0.831452 0.773847
C4    C     C_R   0.459126 0.834321 0.167994 0.773216
C5    C     C_R   0.959125 0.665678 0.167995 0.773220
C6    C     C_R   0.040462 0.335035 0.831453 0.773853
C7    C     C_R   0.040871 0.334323 0.667996 0.773240
C8    C     C_R   0.959541 0.664965 0.331453 0.773850
H1    H     H_    0.097896 0.465178 0.676151 0.189543
H2    H     H_    0.030168 0.534661 0.320809 0.189075
H3    H     H_    0.901963 0.534827 0.176144 0.189543
H4    H     H_    0.969912 0.465345 0.820805 0.189072
H5    H     H_    0.469857 0.034653 0.820801 0.189071
H6    H     H_    0.401961 0.965174 0.176142 0.189541
H7    H     H_    0.530179 0.965343 0.320804 0.189071
H8    H     H_    0.598019 0.034824 0.676146 0.189537
O17   O     O_3   0.453640 0.707610 0.250000 -0.378612
O18   O     O_3   0.546360 0.292390 0.750000 -0.378616
O19   O     O_3   0.953640 0.792390 0.250000 -0.378613
O20   O     O_3   0.046360 0.207610 0.750000 -0.378609
V1    V     V_3+5 0.178800 0.757860 0.250000 1.543993
V2    V     V_3+5 0.821200 0.242140 0.750000 1.543979
V3    V     V_3+5 0.678800 0.742140 0.250000 1.543984
V4    V     V_3+5 0.321200 0.257860 0.750000 1.543972
C9    C     C_R   0.991534 0.362819 0.558746 0.552912
C10   C     C_R   0.952197 0.635729 0.441422 0.551617
C11   C     C_R   0.008516 0.637182 0.058746 0.552894
C12   C     C_R   0.047766 0.364269 0.941424 0.551613
C13   C     C_R   0.547783 0.135727 0.941422 0.551593
C14   C     C_R   0.508515 0.862817 0.058743 0.552907
C15   C     C_R   0.452201 0.864273 0.441421 0.551593
C16   C     C_R   0.491505 0.137183 0.558742 0.552878
C17   C     C_R   0.033222 0.383172 0.618110 -0.162611
C18   C     C_R   0.972446 0.615600 0.380931 -0.160145
C19   C     C_R   0.966766 0.616830 0.118109 -0.162630
C20   C     C_R   0.027561 0.384401 0.880931 -0.160143
C21   C     C_R   0.527557 0.115596 0.880928 -0.160152
C22   C     C_R   0.466767 0.883169 0.118106 -0.162616
C23   C     C_R   0.472449 0.884402 0.380929 -0.160153
C24   C     C_R   0.533230 0.116830 0.618108 -0.162607
C25   C     C_R   0.070746 0.449846 0.629775 -0.253532
C26   C     C_R   0.016299 0.549622 0.367881 -0.256148
C27   C     C_R   0.929169 0.550158 0.129770 -0.253497
C28   C     C_R   0.983749 0.450382 0.867878 -0.256152
C29   C     C_R   0.483715 0.049615 0.867874 -0.256136
C30   C     C_R   0.429167 0.949842 0.129767 -0.253502
C31   C     C_R   0.516308 0.950381 0.367876 -0.256133
C32   C     C_R   0.570823 0.050157 0.629770 -0.253497
C33   C     C_R   0.056511 0.496937 0.583045 0.028404
C34   C     C_R   0.029294 0.502594 0.414807 0.029161
C35   C     C_R   0.943422 0.503067 0.083041 0.028394
C36   C     C_R   0.970746 0.497410 0.914805 0.029163
C37   C     C_R   0.470720 0.002587 0.914801 0.029159
C38   C     C_R   0.443420 0.996933 0.083039 0.028387
C39   C     C_R   0.529303 0.997410 0.414803 0.029159
C40   C     C_R   0.556572 0.003066 0.583041 0.028389
C41   C     C_R   0.034426 0.475668 0.522429 -0.077555
C42   C     C_R   0.022144 0.523603 0.475860 -0.078713
C43   C     C_R   0.965564 0.524335 0.022427 -0.077544
C44   C     C_R   0.977854 0.476399 0.975858 -0.078711
C45   C     C_R   0.477845 0.023598 0.975855 -0.078700
C46   C     C_R   0.465557 0.975663 0.022424 -0.077542
C47   C     C_R   0.522162 0.976400 0.475856 -0.078703
C48   C     C_R   0.534451 0.024335 0.522425 -0.077536
C49   C     C_R   0.019549 0.406610 0.508760 -0.101685
C50   C     C_R   0.999193 0.592255 0.490187 -0.099393
C51   C     C_R   0.980488 0.593392 0.008759 -0.101673
C52   C     C_R   0.000770 0.407745 0.990187 -0.099398
C53   C     C_R   0.500774 0.092252 0.990184 -0.099394
C54   C     C_R   0.480479 0.906605 0.008756 -0.101675
C55   C     C_R   0.499214 0.907747 0.490184 -0.099391
C56   C     C_R   0.519546 0.093393 0.508757 -0.101677
C57   C     C_R   0.063840 0.564778 0.596600 0.547697
C58   C     C_R   0.050663 0.435033 0.401092 0.551472
C59   C     C_R   0.936067 0.435225 0.096596 0.547689
C60   C     C_R   0.949405 0.564972 0.901089 0.551460
C61   C     C_R   0.449372 0.935025 0.901085 0.551459
C62   C     C_R   0.436065 0.064776 0.096594 0.547682
C63   C     C_R   0.550665 0.064972 0.401087 0.551467
C64   C     C_R   0.563912 0.935223 0.596596 0.547675
C65   C     C_R   0.022881 0.613393 0.552170 -0.127240
C66   C     C_R   0.031914 0.385501 0.446384 -0.127792
C67   C     C_R   0.977051 0.386609 0.052169 -0.127243
C68   C     C_R   0.968154 0.614503 0.946383 -0.127787
C69   C     C_R   0.468136 0.885494 0.946379 -0.127790
C70   C     C_R   0.477052 0.113391 0.052166 -0.127244
C71   C     C_R   0.531907 0.114503 0.446381 -0.127796
C72   C     C_R   0.522921 0.886609 0.552168 -0.127240
F1    F     F_    0.110134 0.583367 0.654110 -0.711342
F2    F     F_    0.091565 0.417839 0.342831 -0.708304
F3    F     F_    0.889744 0.416637 0.154104 -0.711354
F4    F     F_    0.908518 0.582167 0.842826 -0.708296
F5    F     F_    0.408473 0.917828 0.842823 -0.708302
F6    F     F_    0.389738 0.083366 0.154102 -0.711352
F7    F     F_    0.591575 0.082167 0.342827 -0.708304
F8    F     F_    0.610228 0.916632 0.654106 -0.711349
C73   C     C_R   0.012244 0.684550 0.573065 0.128040
C74   C     C_R   0.925540 0.700994 0.629018 -0.067789
C75   C     C_R   0.910484 0.767056 0.647947 -0.114959
C76   C     C_R   0.974848 0.818058 0.610464 -0.144976
C77   C     C_R   0.062137 0.802825 0.555413 -0.135858
C78   C     C_R   0.091169 0.736508 0.538837 0.037006
H9    H     H_    0.861494 0.663155 0.657192 0.176014
H10   H     H_    0.842342 0.778759 0.690661 0.152570
H11   H     H_    0.958899 0.869298 0.624250 0.177167
H12   H     H_    0.114193 0.842486 0.526853 0.166648
H13   H     H_    0.171560 0.725458 0.498433 0.206348
C79   C     C_R   0.030397 0.313731 0.426074 0.124184
C80   C     C_R   0.942439 0.294934 0.370842 -0.071683
C81   C     C_R   0.929456 0.228238 0.353678 -0.122953
C82   C     C_R   0.995922 0.178713 0.392376 -0.149323
C83   C     C_R   0.085781 0.196125 0.446436 -0.132597
C84   C     C_R   0.114484 0.263070 0.460869 0.032320
H14   H     H_    0.873167 0.331082 0.342161 0.182191
H15   H     H_    0.859415 0.214876 0.311690 0.154674
H16   H     H_    0.979430 0.126966 0.380273 0.166640
H17   H     H_    0.140344 0.157669 0.475877 0.166073
H18   H     H_    0.198973 0.275271 0.500151 0.200890
C85   C     C_R   0.987694 0.315455 0.073068 0.128041
C86   C     C_R   0.074404 0.299017 0.129022 -0.067783
C87   C     C_R   0.089472 0.232957 0.147955 -0.114956
C88   C     C_R   0.025113 0.181951 0.110475 -0.144972
C89   C     C_R   0.937816 0.197178 0.055422 -0.135853
C90   C     C_R   0.908773 0.263493 0.038843 0.037023
H19   H     H_    0.138442 0.336860 0.157195 0.175998
H20   H     H_    0.157619 0.221259 0.190670 0.152554
H21   H     H_    0.041071 0.130712 0.124263 0.177179
H22   H     H_    0.885764 0.157514 0.026864 0.166638
H23   H     H_    0.828378 0.274540 0.998438 0.206373
C91   C     C_R   0.969683 0.686274 0.926077 0.124181
C92   C     C_R   0.057632 0.705070 0.870843 -0.071689
C93   C     C_R   0.070608 0.771767 0.853678 -0.122948
C94   C     C_R   0.004144 0.821294 0.892376 -0.149300
C95   C     C_R   0.914299 0.803885 0.946438 -0.132635
C96   C     C_R   0.885612 0.736938 0.960875 0.032282
H24   H     H_    0.126903 0.668921 0.842162 0.182202
H25   H     H_    0.140639 0.785127 0.811689 0.154677
H26   H     H_    0.020623 0.873042 0.880270 0.166634
H27   H     H_    0.859729 0.842344 0.975878 0.166052
H28   H     H_    0.801136 0.724739 0.000160 0.200869
C97   C     C_R   0.469678 0.813724 0.926072 0.124189
C98   C     C_R   0.385618 0.763059 0.960870 0.032272
C99   C     C_R   0.414323 0.696114 0.946434 -0.132658
C100  C     C_R   0.504173 0.678706 0.892371 -0.149296
C101  C     C_R   0.570624 0.728234 0.853674 -0.122951
C102  C     C_R   0.557629 0.794930 0.870838 -0.071695
H29   H     H_    0.301140 0.775256 0.000155 0.200875
H30   H     H_    0.359765 0.657654 0.975873 0.166047
H31   H     H_    0.520668 0.626959 0.880266 0.166639
H32   H     H_    0.640659 0.714875 0.811685 0.154673
H33   H     H_    0.626886 0.831079 0.842156 0.182197
C103  C     C_R   0.487691 0.184546 0.073063 0.128040
C104  C     C_R   0.408780 0.236507 0.038833 0.037010
C105  C     C_R   0.437817 0.302824 0.055413 -0.135859
C106  C     C_R   0.525103 0.318053 0.110467 -0.144976
C107  C     C_R   0.589458 0.267048 0.147950 -0.114969
C108  C     C_R   0.574390 0.200986 0.129018 -0.067795
H34   H     H_    0.328400 0.225460 0.998425 0.206361
H35   H     H_    0.385772 0.342487 0.026852 0.166623
H36   H     H_    0.541060 0.369292 0.124255 0.177167
H37   H     H_    0.657599 0.278747 0.190665 0.152555
H38   H     H_    0.638422 0.163144 0.157194 0.176004
C109  C     C_R   0.530391 0.186273 0.426076 0.124185
C110  C     C_R   0.614458 0.236935 0.460879 0.032278
C111  C     C_R   0.585769 0.303882 0.446444 -0.132638
C112  C     C_R   0.495923 0.321294 0.392380 -0.149303
C113  C     C_R   0.429471 0.271769 0.353678 -0.122960
C114  C     C_R   0.442451 0.205071 0.370841 -0.071705
H39   H     H_    0.698922 0.224735 0.500167 0.200859
H40   H     H_    0.640327 0.342341 0.475886 0.166037
H41   H     H_    0.479438 0.373042 0.380277 0.166631
H42   H     H_    0.359446 0.285131 0.311687 0.154669
H43   H     H_    0.373191 0.168924 0.342155 0.182201
C115  C     C_R   0.512264 0.815453 0.573063 0.128042
C116  C     C_R   0.591164 0.763490 0.538834 0.037005
C117  C     C_R   0.562115 0.697174 0.555414 -0.135869
C118  C     C_R   0.474828 0.681948 0.610467 -0.144989
C119  C     C_R   0.410483 0.732955 0.647949 -0.114969
C120  C     C_R   0.425562 0.799016 0.629017 -0.067792
H44   H     H_    0.671548 0.774534 0.498427 0.206362
H45   H     H_    0.614153 0.657510 0.526853 0.166628
H46   H     H_    0.458861 0.630709 0.624255 0.177153
H47   H     H_    0.342340 0.721257 0.690664 0.152556
H48   H     H_    0.361536 0.836859 0.657192 0.176008
F9    F     F_    0.911738 0.302189 0.551974 -0.736907
F10   F     F_    0.876748 0.696491 0.450743 -0.744960
F11   F     F_    0.088387 0.697804 0.051978 -0.736888
F12   F     F_    0.123173 0.303500 0.950747 -0.744965
F13   F     F_    0.623220 0.196494 0.950747 -0.744957
F14   F     F_    0.588380 0.802196 0.051975 -0.736901
F15   F     F_    0.376740 0.803510 0.450744 -0.744953
F16   F     F_    0.411648 0.197806 0.551971 -0.736911

loop_
_geom_bond_atom_site_label_1
_geom_bond_atom_site_label_2
_ccdc_geom_bond_type
C107  H37   S    
C87   H20   S    
C43   C44   A    
C81   C82   A    
O5    V1    S    
C38   C46   A    
C11   C51   A    
C41   C42   A    
C37   C45   A    
C92   C93   A    
C10   C50   A    
C94   H26   S    
C43   C51   A    
C83   C84   A    
C44   C52   A    
C47   C55   A    
C74   C75   A    
C33   C41   A    
C85   C86   A    
C34   C58   A    
C45   C46   A    
C107  C108  A    
C66   C79   S    
C64   F8    S    
O11   C3    A    
C97   C98   A    
O18   V4    S    
C108  H38   S    
C6    C20   S    
O19   V1    S    
C91   C92   A    
C37   C61   A    
C88   H21   S    
C116  H44   S    
C7    C17   S    
C94   C95   A    
C39   C63   A    
C105  C106  A    
C118  H46   S    
C34   C42   A    
C58   C66   A    
C17   C25   A    
C76   C77   A    
C30   C38   A    
O3    C2    A    
C14   F14   S    
C104  C105  A    
C41   C49   A    
O12   V1    S    
C112  C113  A    
C20   C28   A    
C27   C35   A    
C82   H16   S    
C21   C29   A    
C80   H14   S    
C60   F4    S    
C119  H47   S    
C68   C91   S    
C23   C31   A    
C13   F13   S    
C104  H34   S    
C24   C32   A    
O2    V4    S    
C1    C23   S    
C74   H9    S    
C118  C119  A    
C2    C24   S    
C26   C34   A    
C35   C59   A    
C3    C21   S    
O15   C7    A    
C119  C120  A    
C69   C97   S    
O16   C8    A    
O12   C4    A    
C85   C90   A    
H1    C25   S    
C42   C50   A    
C9    C17   A    
C63   C71   A    
C49   C66   A    
C101  C102  A    
C16   C56   A    
C105  H35   S    
H4    C28   S    
C8    C18   S    
C103  C108  A    
O15   V4    S    
H5    C29   S    
C76   H11   S    
O13   C5    A    
C116  C117  A    
C18   C26   A    
C59   F3    S    
O20   V4    S    
C93   C94   A    
C58   F2    S    
C4    C22   S    
C88   C89   A    
C61   C69   A    
C102  H33   S    
C22   C30   A    
C111  C112  A    
O14   V4    S    
C13   C21   A    
O17   V1    S    
C39   C47   A    
C73   C78   A    
C57   C65   A    
C91   C96   A    
C15   C55   A    
O10   V2    S    
O11   V2    S    
O19   V3    S    
C77   H12   S    
C115  C116  A    
C86   H19   S    
H7    C31   S    
C89   H22   S    
C99   C100  A    
O4    V3    S    
C111  H40   S    
C9    C49   A    
C16   F16   S    
O9    V1    S    
O8    C5    A    
C67   C85   S    
O17   V3    S    
C117  H45   S    
C106  H36   S    
C78   H13   S    
H2    C26   S    
C106  C107  A    
H8    C32   S    
C73   C74   A    
C115  C120  A    
C10   C18   A    
O4    C1    A    
C98   H29   S    
O9    C1    A    
C103  C104  A    
C14   C22   A    
C31   C39   A    
O3    V4    S    
C75   H10   S    
C95   H27   S    
H6    C30   S    
C11   F11   S    
C80   C81   A    
C50   C65   A    
C47   C48   A    
C10   F10   S    
C19   C27   A    
O8    V1    S    
C65   C73   S    
C82   C83   A    
C5    C19   S    
C56   C71   A    
C110  C111  A    
C60   C68   A    
C15   C23   A    
C120  H48   S    
C109  C114  A    
C29   C37   A    
C16   C24   A    
C64   C72   A    
C72   C115  S    
O1    C4    A    
C70   C103  S    
C38   C62   A    
O2    C3    A    
O18   V2    S    
C52   C67   A    
C101  H32   S    
C25   C33   A    
C86   C87   A    
C12   C52   A    
C90   H23   S    
C89   C90   A    
C12   C20   A    
C109  C110  A    
C36   C44   A    
O7    C6    A    
C87   C88   A    
C33   C57   A    
C77   C78   A    
C95   C96   A    
C15   F15   S    
C13   C53   A    
C51   C68   A    
C100  C101  A    
O14   C6    A    
C100  H31   S    
C92   H24   S    
C40   C48   A    
H3    C27   S    
C113  H42   S    
C117  C118  A    
C11   C19   A    
C113  C114  A    
C98   C99   A    
O5    C8    A    
C81   H15   S    
O10   C2    A    
O6    C7    A    
O20   V2    S    
C36   C60   A    
O7    V2    S    
C62   F6    S    
C79   C84   A    
C71   C109  S    
C112  H41   S    
C32   C40   A    
C84   H18   S    
O13   V3    S    
C110  H39   S    
O1    V3    S    
O16   V3    S    
C45   C53   A    
C55   C72   A    
C40   C64   A    
C96   H28   S    
C35   C43   A    
C28   C36   A    
C48   C56   A    
C46   C54   A    
C93   H25   S    
C57   F1    S    
C12   F12   S    
C99   H30   S    
C63   F7    S    
C59   C67   A    
O6    V2    S    
C83   H17   S    
C54   C69   A    
C9    F9    S    
C97   C102  A    
C114  H43   S    
C53   C70   A    
C75   C76   A    
C62   C70   A    
C61   F5    S    
C79   C80   A    
C14   C54   A    
