data_mof_unit_40097.cif
_audit_creation_date              2013-03-05T16:05:41-0500
_audit_creation_method            fapswitch 2.2
_symmetry_space_group_name_H-M    P1
_symmetry_Int_Tables_number       1
_space_group_crystal_system       triclinic
_cell_length_a                    10.635851
_cell_length_b                    14.974016
_cell_length_c                    15.358594
_cell_angle_alpha                 82.245093
_cell_angle_beta                  89.580378
_cell_angle_gamma                 104.48439
_cell_volume                      2344.47496328

loop_
_atom_site_label
_atom_site_type_symbol
_atom_site_description
_atom_site_fract_x
_atom_site_fract_y
_atom_site_fract_z
_atom_type_partial_charge
O1    O     O_R   0.462770 0.383110 0.605620 -0.629803
O2    O     O_R   0.510160 0.531900 0.639510 -0.545056
C1    C     C_R   0.482772 0.441743 0.662670 0.919437
O3    O     O_R   0.661510 0.425600 0.483070 -0.594891
O4    O     O_R   0.708900 0.574390 0.516960 -0.654440
C2    C     C_R   0.742414 0.501679 0.496825 0.822435
Zn1   Zn    Zn3+2 0.468350 0.400660 0.477370 0.964658
Zn2   Zn    Zn3+2 0.531650 0.599340 0.522630 0.961699
O5    O     O_R   0.489840 0.468100 0.360490 -0.556487
O6    O     O_R   0.537230 0.616890 0.394380 -0.582256
O7    O     O_R   0.291100 0.425610 0.483040 -0.635351
O8    O     O_R   0.338490 0.574400 0.516930 -0.633349
C3    C     C_R   0.523628 0.558464 0.337261 0.936219
C4    C     C_R   0.258268 0.500181 0.497405 0.843790
C5    C     C_3   0.900806 0.414823 0.454077 0.442477
H1    H     H_    0.857736 0.353626 0.504588 0.099169
C6    C     C_3   0.045235 0.418090 0.448601 -0.473393
H2    H     H_    0.059002 0.350353 0.481490 0.164635
H3    H     H_    0.082222 0.426161 0.379369 0.176098
H4    H     H_    0.932127 0.613313 0.378386 0.139371
H5    H     H_    0.142245 0.599319 0.372852 0.153501
C7    C     C_3   0.963675 0.595639 0.445411 -0.431859
C8    C     C_3   0.923784 0.493586 0.590476 -0.498821
C9    C     C_3   0.879064 0.501976 0.494419 0.079042
H6    H     H_    0.912764 0.554027 0.622135 0.194076
H7    H     H_    0.862911 0.429736 0.630746 0.163699
C10   C     C_3   0.121779 0.499929 0.494781 0.113119
C11   C     C_3   0.106653 0.592686 0.442349 -0.377119
C12   C     C_3   0.066963 0.489861 0.590606 -0.420600
H8    H     H_    0.074956 0.422571 0.627997 0.167387
H9    H     H_    0.124009 0.546807 0.624921 0.187947
H10   H     H_    0.954711 0.654008 0.480955 0.189602
H11   H     H_    0.165341 0.653783 0.470560 0.204281
C13   C     C_R   0.492722 0.406758 0.755488 -0.272763
C14   C     C_R   0.563944 0.593704 0.244393 -0.391301
C15   C     C_R   0.523114 0.284229 0.868792 0.323752
C16   C     C_R   0.497236 0.314245 0.781869 -0.351160
C17   C     C_R   0.514320 0.469867 0.816494 0.537517
C18   C     C_R   0.563445 0.445482 0.898052 -0.078088
C19   C     C_R   0.552114 0.349994 0.928626 -0.039583
C20   C     C_R   0.610203 0.513116 0.953582 -0.035758
C21   C     C_R   0.595909 0.484418 0.044573 0.058867
C22   C     C_R   0.579125 0.389064 0.076504 -0.138432
C23   C     C_R   0.563047 0.323206 0.018817 -0.165760
C24   C     C_R   0.673054 0.607585 0.921811 0.576049
C25   C     C_R   0.699135 0.673125 0.980109 -0.240096
C26   C     C_R   0.662316 0.646964 0.069522 -0.196487
C27   C     C_R   0.602006 0.552499 0.100571 -0.120531
C28   C     C_R   0.683421 0.713365 0.128410 0.478810
C29   C     C_R   0.640521 0.685478 0.217060 0.357731
C30   C     C_R   0.537630 0.529927 0.183560 0.431276
H12   H     H_    0.550472 0.251051 0.046438 0.197706
H13   H     H_    0.746210 0.744755 0.954251 0.206573
H14   H     H_    0.482239 0.265340 0.734671 0.217588
H15   H     H_    0.583752 0.365176 0.145826 0.195572
N1    N     N_R   0.573860 0.731700 0.552730 -0.122397
N2    N     N_R   0.426060 0.268290 0.447230 -0.104884
C31   C     C_R   0.715529 0.849000 0.619973 -0.296276
C32   C     C_R   0.674626 0.757265 0.605074 0.064552
C33   C     C_R   0.510060 0.792427 0.513082 -0.011580
C34   C     C_R   0.552578 0.888150 0.519983 0.004577
C35   C     C_R   0.654739 0.914716 0.577791 0.156314
C36   C     C_R   0.496017 0.957382 0.474456 -0.047452
C37   C     C_R   0.531875 0.049504 0.497883 0.022168
C38   C     C_R   0.633896 0.072214 0.555937 -0.174519
C39   C     C_R   0.695310 0.006362 0.593689 -0.179956
C40   C     C_R   0.408500 0.940058 0.404881 0.467548
C41   C     C_R   0.343688 0.006364 0.371332 -0.284360
C42   C     C_R   0.370644 0.093394 0.398780 0.089741
C43   C     C_R   0.466229 0.116780 0.461300 -0.004190
C44   C     C_R   0.304916 0.158521 0.361999 -0.282258
C45   C     C_R   0.334793 0.246523 0.387204 0.058227
C46   C     C_R   0.490550 0.207158 0.485008 -0.002306
H16   H     H_    0.773805 0.027116 0.637277 0.150328
H17   H     H_    0.558811 0.231481 0.533182 0.119997
H18   H     H_    0.285996 0.298111 0.358685 0.143704
H19   H     H_    0.274127 0.990021 0.320864 0.165140
H20   H     H_    0.794835 0.868633 0.663176 0.157928
H21   H     H_    0.723362 0.706118 0.634665 0.159852
H22   H     H_    0.425976 0.762903 0.478581 0.201058
H23   H     H_    0.671328 0.141228 0.572488 0.133947
H24   H     H_    0.232159 0.141824 0.313633 0.147481
O9    O     O_3   0.835148 0.390636 0.376521 -0.586116
C47   C     C_3   0.857744 0.463028 0.304914 -0.269502
H25   H     H_    0.961037 0.502677 0.295192 0.135495
H26   H     H_    0.792465 0.509330 0.311307 0.146299
H27   H     H_    0.831311 0.431489 0.244121 0.183042
O10   O     O_3   0.443717 0.446468 0.203847 -0.585284
C48   C     C_3   0.321709 0.461749 0.181417 -0.298917
H28   H     H_    0.319656 0.486191 0.109799 0.163046
H29   H     H_    0.295066 0.512044 0.220754 0.139238
H30   H     H_    0.246815 0.394736 0.196695 0.180594
O11   O     O_3   0.666166 0.750762 0.274517 -0.575622
C49   C     C_3   0.787372 0.752355 0.312324 -0.276736
H31   H     H_    0.856534 0.728441 0.271689 0.105658
H32   H     H_    0.772168 0.709278 0.377868 0.194459
H33   H     H_    0.834472 0.824955 0.322347 0.180558
N3    N     N_R   0.524756 0.188462 0.893498 0.205254
O12   O     O_R   0.443311 0.123132 0.859847 -0.387504
O13   O     O_R   0.621025 0.167854 0.936530 -0.399011
O14   O     O_3   0.481992 0.554349 0.797923 -0.540258
C50   C     C_3   0.350506 0.541134 0.824042 -0.298052
H34   H     H_    0.333676 0.517366 0.896027 0.147900
H35   H     H_    0.285190 0.491157 0.786389 0.140177
H36   H     H_    0.324825 0.608850 0.809763 0.195211
O15   O     O_3   0.714908 0.636776 0.834718 -0.564176
C51   C     C_3   0.833613 0.613775 0.821258 -0.364625
H37   H     H_    0.820646 0.536993 0.830142 0.164781
H38   H     H_    0.908734 0.646549 0.865395 0.157421
H39   H     H_    0.869982 0.641126 0.752520 0.183597
O16   O     O_3   0.737817 0.806854 0.098927 -0.566021
C52   C     C_3   0.874847 0.824767 0.093224 -0.288520
H40   H     H_    0.912194 0.762992 0.084631 0.121333
H41   H     H_    0.916219 0.854066 0.152448 0.181630
H42   H     H_    0.911807 0.878485 0.035517 0.198007
O17   O     O_3   0.386869 0.860078 0.365868 -0.664659
C53   C     C_3   0.470353 0.877679 0.290387 -0.211956
H43   H     H_    0.574188 0.896841 0.307771 0.201034
H44   H     H_    0.449572 0.932982 0.240785 0.158444
H45   H     H_    0.453190 0.813146 0.259460 0.220702

loop_
_geom_bond_atom_site_label_1
_geom_bond_atom_site_label_2
_geom_bond_distance
_ccdc_geom_bond_type
C31   C35   1.399440 A    
O11   C49   1.413828 S    
C10   C12   1.553143 S    
C13   C16   1.402707 A    
C51   H38   1.113685 S    
C20   C21   1.401036 A    
O16   C52   1.414203 S    
C47   H27   1.109189 S    
C45   H18   1.081906 S    
Zn2   N1    2.036820 S    
C52   H41   1.109248 S    
C18   C20   1.409877 A    
C24   C25   1.395115 A    
C38   C39   1.381529 A    
Zn1   O7    2.014909 S    
O14   C50   1.409859 S    
C7    H10   1.113870 S    
C8    C12   1.537734 S    
C15   C16   1.401912 A    
C47   H26   1.109294 S    
C3    C14   1.473583 S    
C17   O14   1.386197 S    
C53   H44   1.112996 S    
C17   C18   1.398910 A    
O7    C4    1.295328 A    
O15   C51   1.410050 S    
C5    H1    1.115511 S    
C39   H16   1.084564 S    
O17   C53   1.409686 S    
C50   H36   1.109164 S    
C34   C36   1.431094 A    
C8    H7    1.113867 S    
N2    C46   1.349682 A    
C42   C44   1.398942 A    
O5    C3    1.308415 A    
C50   H34   1.113594 S    
C27   C30   1.401008 A    
C26   C27   1.413978 A    
C41   C42   1.386123 A    
C8    C9    1.552004 S    
C37   C43   1.422272 A    
C4    C10   1.451611 S    
C48   H29   1.113340 S    
C34   C35   1.421407 A    
C28   O16   1.385439 S    
C44   H24   1.083922 S    
C23   H12   1.080931 S    
C7    C11   1.532910 S    
C46   H17   1.074944 S    
C42   C43   1.416024 A    
C43   C46   1.410749 A    
O3    Zn1   1.998860 S    
C52   H40   1.116626 S    
C36   C40   1.429732 A    
C35   C39   1.387361 A    
C40   C41   1.391392 A    
C6    C10   1.552916 S    
C15   C19   1.416277 A    
C47   H25   1.108656 S    
C26   C28   1.411025 A    
C53   H45   1.108877 S    
C32   H21   1.081621 S    
C18   C19   1.418180 A    
C5    O9    1.428209 S    
C49   H33   1.109200 S    
C31   C32   1.384142 A    
N1    C33   1.350338 A    
C33   C34   1.409865 A    
O1    C1    1.304120 A    
C50   H35   1.113413 S    
C40   O17   1.379883 S    
C12   H8    1.113403 S    
C38   H23   1.075939 S    
O9    C47   1.409415 S    
Zn2   O8    1.998860 S    
C2    C9    1.452469 S    
C14   C29   1.416858 A    
C6    H2    1.114671 S    
C21   C27   1.409806 A    
C48   H30   1.109218 S    
C49   H32   1.107148 S    
C16   H14   1.083377 S    
C22   H15   1.082017 S    
C5    C9    1.583514 S    
H5    C11   1.113157 S    
O8    C4    1.293205 A    
C11   H11   1.113378 S    
C28   C29   1.406595 A    
N3    O13   1.301274 A    
C22   C23   1.392975 A    
C14   C30   1.405066 A    
C51   H39   1.109047 S    
C7    C9    1.554753 S    
O3    C2    1.288451 A    
C21   C22   1.411838 A    
C51   H37   1.112473 S    
C24   O15   1.383697 S    
C41   H19   1.084931 S    
Zn1   O5    1.919315 S    
C25   C26   1.401027 A    
C33   H22   1.071632 S    
C13   C17   1.398999 A    
O2    Zn2   1.919315 S    
H4    C7    1.103755 S    
O6    C3    1.304450 A    
C30   O10   1.386533 S    
O4    Zn2   2.014908 S    
C29   O11   1.382642 S    
C5    C6    1.525954 S    
C1    C13   1.465001 S    
N1    C32   1.353479 A    
C37   C38   1.414015 A    
O2    C1    1.306175 A    
C44   C45   1.384663 A    
C12   H9    1.113630 S    
C53   H43   1.113436 S    
O4    C2    1.300575 A    
C25   H13   1.082745 S    
C6    H3    1.111480 S    
C8    H6    1.113673 S    
N2    C45   1.354377 A    
C49   H31   1.115427 S    
C31   H20   1.083962 S    
C36   C37   1.431982 A    
C19   C23   1.403194 A    
O10   C48   1.410235 S    
Zn2   O6    1.950193 S    
N3    O12   1.301364 A    
C10   C11   1.554138 S    
C20   C24   1.421943 A    
O1    Zn1   1.950193 S    
C15   N3    1.437531 S    
C48   H28   1.113565 S    
Zn1   N2    2.037166 S    
C52   H42   1.109680 S    
