data_mof_unit_58214.cif
_audit_creation_date              2013-03-05T16:23:17-0500
_audit_creation_method            fapswitch 2.2
_symmetry_space_group_name_H-M    P1
_symmetry_Int_Tables_number       1
_space_group_crystal_system       triclinic
_cell_length_a                    27.544489
_cell_length_b                    10.550618
_cell_length_c                    9.76485
_cell_angle_alpha                 89.320013
_cell_angle_beta                  89.126502
_cell_angle_gamma                 90.027305
_cell_volume                      2837.24633471

loop_
_atom_site_label
_atom_site_type_symbol
_atom_site_description
_atom_site_fract_x
_atom_site_fract_y
_atom_site_fract_z
_atom_type_partial_charge
O1    O     O_R   0.500000 0.313960 0.616610 -0.609203
O2    O     O_R   0.500000 0.686040 0.383390 -0.597403
O3    O     O_R   0.500020 0.313950 0.383350 -0.565983
O4    O     O_R   0.499980 0.686050 0.616650 -0.572609
C1    C     C_R   0.500316 0.257817 0.500789 0.940682
C2    C     C_R   0.500426 0.742138 0.499083 0.970723
O5    O     O_R   0.428750 0.500030 0.616610 -0.559551
O6    O     O_R   0.571250 0.499970 0.383390 -0.592315
O7    O     O_R   0.428770 0.500020 0.383360 -0.633881
O8    O     O_R   0.571230 0.499980 0.616640 -0.629329
C3    C     C_R   0.406130 0.499510 0.501202 0.928349
C4    C     C_R   0.593885 0.503077 0.499046 0.954123
Zn1   Zn    Zn3+2 0.499990 0.500010 0.655740 1.028079
Zn2   Zn    Zn3+2 0.500010 0.499990 0.344260 1.017664
C5    C     C_R   0.175778 0.434383 0.489196 0.613945
C6    C     C_R   0.821819 0.673399 0.564126 0.609916
O9    O     O_2   0.199760 0.335722 0.433174 -0.543562
O10   O     O_2   0.797464 0.760919 0.637565 -0.562195
N1    N     N_R   0.201218 0.537986 0.529522 -0.313423
N2    N     N_R   0.797283 0.573311 0.511453 -0.311389
C7    C     C_R   0.178945 0.642684 0.581736 0.614724
C8    C     C_R   0.820647 0.476169 0.446941 0.637266
C9    C     C_R   0.278574 0.592906 0.417475 0.460785
C10   C     C_R   0.723330 0.478927 0.608712 0.465312
C11   C     C_R   0.329020 0.578079 0.408513 -0.426019
C12   C     C_R   0.673317 0.458390 0.599954 -0.424268
C13   C     C_R   0.327123 0.440664 0.611280 0.375526
C14   C     C_R   0.669270 0.607255 0.407722 0.376981
C15   C     C_R   0.277031 0.459510 0.623478 0.328481
C16   C     C_R   0.717955 0.639655 0.428052 0.317037
C17   C     C_R   0.252935 0.532256 0.524504 0.113783
C18   C     C_R   0.745536 0.568562 0.520963 0.110593
C19   C     C_R   0.101022 0.544395 0.542219 -0.194694
C20   C     C_R   0.897564 0.574892 0.497028 -0.193237
C21   C     C_R   0.125095 0.432009 0.503095 -0.226697
C22   C     C_R   0.872419 0.682038 0.546105 -0.209595
C23   C     C_R   0.097656 0.320624 0.483790 0.397100
C24   C     C_R   0.898750 0.793993 0.572379 0.392774
C25   C     C_R   0.127972 0.648490 0.589722 -0.042649
C26   C     C_R   0.871549 0.472044 0.442363 -0.044034
C27   C     C_R   0.353313 0.503863 0.505585 -0.232999
C28   C     C_R   0.646413 0.520190 0.498699 -0.231039
C29   C     C_R   0.973297 0.459010 0.464246 0.072242
C30   C     C_R   0.025679 0.664421 0.573111 0.074018
C31   C     C_R   0.974876 0.675692 0.552418 -0.110443
C32   C     C_R   0.023408 0.446387 0.489520 -0.130984
C33   C     C_R   0.948699 0.569886 0.504819 0.014440
C34   C     C_R   0.049949 0.552219 0.533970 0.017106
C35   C     C_R   0.947559 0.365985 0.392953 -0.313199
C36   C     C_R   0.052489 0.757424 0.641825 -0.324727
C37   C     C_R   0.897008 0.369735 0.383657 0.481094
C38   C     C_R   0.103302 0.751874 0.648561 0.465797
O11   O     O_2   0.794303 0.383047 0.390223 -0.495891
O12   O     O_2   0.206269 0.740616 0.623702 -0.495027
C39   C     C_R   0.047136 0.327318 0.485882 0.427381
C40   C     C_R   0.949559 0.791859 0.566491 0.424764
H1    H     H_    0.655518 0.392043 0.669926 0.179157
H2    H     H_    0.349442 0.626621 0.327902 0.183237
H3    H     H_    0.966578 0.290554 0.341042 0.177902
H4    H     H_    0.034286 0.833417 0.694553 0.198573
C41   C     C_3   0.541672 0.044001 0.432082 -0.424320
C42   C     C_3   0.460253 0.955940 0.567074 -0.456075
C43   C     C_3   0.500979 0.962999 0.370407 0.437117
C44   C     C_3   0.500954 0.036742 0.628875 0.412452
H5    H     H_    0.574406 0.082050 0.378042 0.195301
H6    H     H_    0.427943 0.915880 0.621006 0.195584
C45   C     C_3   0.500580 0.876521 0.497362 -0.152523
C46   C     C_3   0.501254 0.123373 0.501962 -0.161967
C47   C     C_3   0.540380 0.957015 0.560484 0.384199
C48   C     C_3   0.461546 0.042646 0.438651 0.358203
C49   C     C_3   0.456673 0.477676 0.051115 -0.210877
C50   C     C_3   0.543254 0.522237 0.948774 -0.260835
C51   C     C_3   0.485554 0.391014 0.953097 -0.171539
C52   C     C_3   0.514374 0.608962 0.046772 -0.227155
H7    H     H_    0.474033 0.299554 0.908905 0.193817
H8    H     H_    0.525615 0.700738 0.090730 0.200757
H9    H     H_    0.420320 0.460981 0.098603 0.164564
H10   H     H_    0.579435 0.537929 0.900398 0.159795
N3    N     N_3   0.499960 0.500030 0.863290 -0.093938
N4    N     N_3   0.500040 0.499970 0.136710 -0.100787
C53   C     C_3   0.471731 0.584589 0.953066 0.578150
C54   C     C_3   0.528216 0.415332 0.046843 0.547240
O13   O     O_3   0.350394 0.366348 0.708101 -0.625264
C55   C     C_3   0.359126 0.243748 0.655564 0.097430
H11   H     H_    0.390639 0.203622 0.711033 0.192257
H12   H     H_    0.369583 0.244873 0.544767 0.155205
C56   C     C_3   0.314949 0.157364 0.680754 -0.312918
H13   H     H_    0.301809 0.167225 0.788314 0.253215
H14   H     H_    0.285299 0.186013 0.611050 0.262592
C57   C     C_3   0.327150 0.018597 0.655278 -0.892524
H15   H     H_    0.341643 0.006369 0.549539 0.274622
H16   H     H_    0.293823 0.960115 0.668098 0.300295
H17   H     H_    0.354287 0.984845 0.730264 0.259262
O14   O     O_3   0.643335 0.670685 0.307861 -0.626045
C58   C     C_3   0.644885 0.601176 0.184402 0.121714
H18   H     H_    0.612868 0.630652 0.124692 0.175970
H19   H     H_    0.641543 0.496751 0.201592 0.157857
C59   C     C_3   0.690705 0.630932 0.098356 -0.348245
H20   H     H_    0.696692 0.734937 0.093242 0.253063
H21   H     H_    0.722649 0.585348 0.146377 0.256913
C60   C     C_3   0.686656 0.581774 0.952668 -0.911786
H22   H     H_    0.678204 0.478791 0.953914 0.257812
H23   H     H_    0.721653 0.597124 0.897008 0.308729
H24   H     H_    0.657919 0.634057 0.897047 0.265326
O15   O     O_3   0.580905 0.906433 0.626018 -0.747709
H25   H     H_    0.600848 0.980612 0.651040 0.336856
O16   O     O_3   0.421123 0.092650 0.372213 -0.769952
H26   H     H_    0.402527 0.018105 0.341285 0.343409
O17   O     O_3   0.441144 0.676185 0.896322 -0.740350
H27   H     H_    0.426932 0.721882 0.975441 0.317558
O18   O     O_3   0.558854 0.323800 0.103475 -0.758375
H28   H     H_    0.574142 0.280631 0.024220 0.319317
O19   O     O_3   0.250379 0.396095 0.723905 -0.636515
C61   C     C_3   0.250926 0.467280 0.845203 0.085433
H29   H     H_    0.237490 0.565608 0.826566 0.160642
H30   H     H_    0.288368 0.471307 0.886615 0.185285
C62   C     C_3   0.217502 0.402883 0.951257 -0.369619
H31   H     H_    0.179871 0.400327 0.911572 0.228156
H32   H     H_    0.229813 0.303704 0.968866 0.246345
C63   C     C_3   0.217446 0.472819 0.087049 -0.821600
H33   H     H_    0.254472 0.472237 0.130727 0.273259
H34   H     H_    0.192183 0.424875 0.160723 0.292199
H35   H     H_    0.205224 0.572347 0.072134 0.273187
O20   O     O_3   0.739612 0.735217 0.350216 -0.653412
C64   C     C_3   0.727465 0.855124 0.405694 0.179359
H36   H     H_    0.761290 0.898939 0.443455 0.178789
H37   H     H_    0.701017 0.851464 0.493807 0.151521
C65   C     C_3   0.706947 0.941676 0.293874 -0.366718
H38   H     H_    0.733230 0.948020 0.206544 0.237595
H39   H     H_    0.672415 0.901610 0.256315 0.261620
C66   C     C_3   0.697023 0.074680 0.347638 -0.882873
H40   H     H_    0.670290 0.070741 0.433957 0.255011
H41   H     H_    0.681883 0.134796 0.264526 0.271541
H42   H     H_    0.731175 0.118763 0.383079 0.299965
O21   O     O_3   0.118431 0.202021 0.475282 -0.702126
H43   H     H_    0.144119 0.196756 0.545092 0.364598
O22   O     O_3   0.876633 0.910088 0.590068 -0.701336
H44   H     H_    0.848530 0.914719 0.528127 0.350635
O23   O     O_3   0.751531 0.412265 0.700420 -0.734234
H45   H     H_    0.730527 0.352569 0.753573 0.338898
O24   O     O_3   0.253452 0.665633 0.323915 -0.742710
H46   H     H_    0.276753 0.701207 0.255209 0.333816
O25   O     O_3   0.872283 0.274011 0.318700 -0.699188
H47   H     H_    0.895623 0.209087 0.286021 0.319727
O26   O     O_3   0.129065 0.844385 0.715406 -0.705732
H48   H     H_    0.106203 0.901198 0.764091 0.322090
O27   O     O_3   0.021548 0.214975 0.500275 -0.655854
C67   C     C_3   0.004044 0.201133 0.637094 0.109737
H49   H     H_    0.970927 0.141358 0.635152 0.224351
H50   H     H_    0.992475 0.291899 0.684997 0.121637
C68   C     C_3   0.042174 0.135977 0.725671 -0.325099
H51   H     H_    0.057049 0.053623 0.669695 0.253717
H52   H     H_    0.072396 0.202920 0.744922 0.206683
C69   C     C_3   0.020750 0.090982 0.862610 -0.960157
H53   H     H_    0.006052 0.172540 0.920961 0.273112
H54   H     H_    0.049672 0.044866 0.923328 0.265979
H55   H     H_    0.991337 0.020902 0.846411 0.289707
O28   O     O_3   0.973656 0.906395 0.553375 -0.649010
C70   C     C_3   0.975360 0.944420 0.413359 0.117440
H56   H     H_    0.962688 0.044075 0.406839 0.195271
H57   H     H_    0.950976 0.889528 0.345205 0.102980
C71   C     C_3   0.027516 0.936142 0.357818 -0.294658
H58   H     H_    0.052714 0.982609 0.429351 0.287801
H59   H     H_    0.038192 0.835052 0.348985 0.208666
C72   C     C_3   0.032499 0.999592 0.217259 -0.895348
H60   H     H_    0.008010 0.953329 0.143569 0.252532
H61   H     H_    0.070521 0.990528 0.179249 0.279367
H62   H     H_    0.023347 0.101916 0.223614 0.279189
O29   O     O_3   0.499793 0.920424 0.235472 -0.755826
H63   H     H_    0.501243 0.998099 0.177450 0.355158
O30   O     O_3   0.502112 0.079231 0.763842 -0.763330
H64   H     H_    0.500458 0.001543 0.821806 0.355746

loop_
_geom_bond_atom_site_label_1
_geom_bond_atom_site_label_2
_geom_bond_distance
_ccdc_geom_bond_type
O30   H64   0.991185 S    
Zn1   N3    2.026684 S    
C38   O26   1.382357 S    
C13   C15   1.397603 A    
O29   H63   0.991201 S    
O15   H25   0.991062 S    
C58   H18   1.107277 S    
C55   C56   1.535040 S    
C56   H13   1.111758 S    
C66   H42   1.111009 S    
N1    C17   1.425947 S    
C65   H38   1.111569 S    
C61   H29   1.115461 S    
C58   C59   1.535731 S    
O21   H43   0.991098 S    
C63   H33   1.111414 S    
O5    C3    1.296057 A    
C72   H60   1.110793 S    
C52   H8    1.109663 S    
C42   C45   1.546198 S    
O13   C55   1.416502 S    
O1    C1    1.282829 A    
C44   C46   1.531050 S    
N1    C7    1.364198 A    
C55   H12   1.115268 S    
O19   C61   1.410275 S    
C50   N3    1.486108 S    
C48   O16   1.397651 S    
C62   H32   1.112362 S    
C7    O12   1.349335 S    
C43   O29   1.397963 S    
C40   O28   1.382105 S    
C41   C47   1.544972 S    
O25   H47   0.991816 S    
C42   C48   1.543413 S    
C14   O14   1.383931 S    
C68   C69   1.523903 S    
C14   C28   1.411542 A    
O4    Zn1   1.995156 S    
C41   C43   1.543162 S    
C42   C44   1.542635 S    
C57   H16   1.110506 S    
O27   C67   1.419281 S    
C31   C40   1.417479 A    
C35   C37   1.397300 A    
C32   C39   1.416934 A    
C64   C65   1.530102 S    
C36   C38   1.403382 A    
O16   H26   0.991027 S    
C67   C68   1.529062 S    
Zn2   N4    2.026685 S    
C69   H54   1.109418 S    
C63   H35   1.111501 S    
C6    N2    1.363541 A    
C9    C11   1.399891 A    
C25   C38   1.409008 A    
C68   H51   1.107426 S    
C72   H61   1.110319 S    
C52   N4    1.488136 S    
C19   C34   1.412717 A    
C51   H7    1.109877 S    
O2    C2    1.281788 A    
C1    C46   1.418628 S    
C5    C21   1.400752 A    
C49   N4    1.488499 S    
C29   C32   1.411970 A    
C63   H34   1.110594 S    
O26   H48   0.989886 S    
C8    O11   1.350210 S    
C71   H59   1.110478 S    
C31   C33   1.415575 A    
C10   O23   1.380868 S    
C43   C45   1.530411 S    
C42   H6    1.108185 S    
C4    C28   1.457937 S    
C60   H22   1.110978 S    
C67   H49   1.109271 S    
C69   H55   1.110951 S    
N4    C54   1.472515 S    
C62   C63   1.525078 S    
C11   C27   1.400572 A    
C49   C51   1.543752 S    
C47   O15   1.398047 S    
C29   C35   1.407509 A    
O3    C1    1.284553 A    
C45   C47   1.528093 S    
C9    C17   1.400607 A    
C5    N1    1.363373 A    
O7    Zn2   1.993345 S    
C10   C18   1.402469 A    
C71   C72   1.524203 S    
C13   C27   1.410936 A    
C39   O27   1.383348 S    
C70   H56   1.109423 S    
C7    C25   1.406409 A    
C43   C48   1.523829 S    
O6    C4    1.299070 A    
C8    C26   1.402799 A    
C23   O21   1.379104 S    
C51   N3    1.488103 S    
C70   C71   1.530731 S    
C19   C25   1.412156 A    
C44   C47   1.524778 S    
C55   H11   1.111440 S    
O7    C3    1.300385 A    
C69   H53   1.110819 S    
O3    Zn2   1.995158 S    
O8    C4    1.298568 A    
C50   C52   1.544029 S    
C2    C45   1.417729 S    
C16   O20   1.384728 S    
C60   H24   1.110060 S    
C59   H21   1.110406 S    
C56   H14   1.110822 S    
C64   H36   1.109874 S    
C20   C26   1.414413 A    
O4    C2    1.285198 A    
O1    Zn1   2.004232 S    
C11   H2    1.083960 S    
N2    C8    1.365663 A    
C52   C53   1.523497 S    
C66   H40   1.111133 S    
C26   C37   1.410219 A    
C65   C66   1.527416 S    
C51   C54   1.524065 S    
C49   H9    1.110167 S    
C30   C31   1.421756 A    
C12   C28   1.399795 A    
C57   H17   1.110152 S    
N3    C53   1.472235 S    
C71   H58   1.110215 S    
N2    C18   1.427773 S    
C30   C36   1.410111 A    
C5    O9    1.349936 S    
C15   O19   1.382113 S    
O6    Zn2   2.004837 S    
O18   H28   0.991129 S    
C21   C23   1.412993 A    
C10   C12   1.398460 A    
C67   H50   1.115258 S    
C66   H41   1.110496 S    
O8    Zn1   1.993348 S    
C65   H39   1.109894 S    
C61   H30   1.114459 S    
O23   H45   0.991737 S    
C58   H19   1.116040 S    
C37   O25   1.383413 S    
C72   H62   1.110978 S    
C59   C60   1.525643 S    
O22   H44   0.990468 S    
C53   O17   1.397517 S    
C62   H31   1.112521 S    
C35   H3    1.080104 S    
C60   H23   1.110254 S    
C36   H4    1.077791 S    
C54   O18   1.397481 S    
C44   O30   1.397934 S    
C22   C24   1.413912 A    
C70   H57   1.118841 S    
C14   C16   1.401368 A    
C15   C17   1.402170 A    
O24   H46   0.991752 S    
C6    C22   1.404923 A    
C16   C18   1.402949 A    
C41   C46   1.548437 S    
C57   H15   1.110288 S    
O28   C70   1.420386 S    
C13   O13   1.385952 S    
C19   C21   1.412573 A    
C24   O22   1.379786 S    
C3    C27   1.455565 S    
C20   C22   1.410955 A    
C68   H52   1.111084 S    
O14   C58   1.418607 S    
O2    Zn2   2.004230 S    
C12   H1    1.084133 S    
C61   C62   1.528179 S    
C23   C39   1.393209 A    
C32   C34   1.410680 A    
C41   H5    1.110245 S    
O5    Zn1   2.004831 S    
C24   C40   1.400002 A    
C6    O10   1.348542 S    
C59   H20   1.109985 S    
C56   C57   1.524776 S    
C50   H10   1.107862 S    
C64   H37   1.119186 S    
C46   C48   1.528428 S    
C9    O24   1.380364 S    
C20   C33   1.412678 A    
O17   H27   0.991149 S    
C29   C33   1.409978 A    
C50   C54   1.524021 S    
C30   C34   1.413522 A    
O20   C64   1.420219 S    
C49   C53   1.524107 S    
