data_mof_unit_27105.cif
_audit_creation_date              2012-12-10T20:28:01-0500
_audit_creation_method            fapswitch 2.2
_symmetry_space_group_name_H-M    P1
_symmetry_Int_Tables_number       1
_space_group_crystal_system       triclinic
_cell_length_a                    12.944901
_cell_length_b                    10.666167
_cell_length_c                    9.901786
_cell_angle_alpha                 90.643809
_cell_angle_beta                  96.824082
_cell_angle_gamma                 90.222018
_cell_volume                      1357.3742583

loop_
_atom_site_label
_atom_site_type_symbol
_atom_type_description
_atom_site_fract_x
_atom_site_fract_y
_atom_site_fract_z
_atom_type_partial_charge
C1    C     C_R   0.499155 0.260270 0.498882 1.003408
C2    C     C_R   0.029902 0.516127 0.560653 -0.017903
C3    C     C_R   0.972130 0.510433 0.430763 -0.069410
C4    C     C_R   0.865591 0.487201 0.422605 0.447757
C5    C     C_R   0.873322 0.513142 0.670334 0.415154
C6    C     C_R   0.981315 0.516388 0.678832 -0.201314
C7    C     C_R   0.410560 0.061943 0.452797 -0.101825
C8    C     C_R   0.502422 0.127843 0.495179 -0.220973
C9    C     C_R   0.597651 0.063577 0.524245 0.367606
C10   C     C_R   0.595941 0.933196 0.525314 -0.230564
C11   C     C_R   0.500942 0.870261 0.502628 -0.036886
C12   C     C_R   0.298698 0.507015 0.473360 0.990495
C13   C     C_R   0.409764 0.933995 0.463852 -0.139979
C14   C     C_3   0.305094 0.928334 0.515120 0.607233
C15   C     C_3   0.302512 0.071573 0.495343 0.712276
C16   C     C_R   0.414861 0.459063 0.057327 0.061172
C17   C     C_R   0.578198 0.556768 0.082841 0.464205
C18   C     C_R   0.578790 0.553513 0.939808 -0.082517
C19   C     C_R   0.415059 0.458751 0.915130 0.126227
C20   C     C_3   0.365467 0.332429 0.897701 0.066392
C21   C     C_3   0.363580 0.332889 0.052038 0.727714
C22   C     C_R   0.499349 0.739126 0.500821 0.861288
C23   C     C_R   0.702106 0.498934 0.526277 1.008970
C24   C     C_R   0.815194 0.499343 0.540966 -0.155022
C25   C     C_R   0.187058 0.520225 0.455842 -0.140375
C26   C     C_R   0.022017 0.528251 0.312829 0.375179
C27   C     C_R   0.131108 0.538857 0.326797 0.393822
C28   C     C_R   0.136460 0.517596 0.571883 -0.138564
H1    H     H_    0.642513 0.596159 0.895262 0.218572
H2    H     H_    0.416662 0.260924 0.857858 0.126255
H3    H     H_    0.027417 0.522099 0.777675 0.172175
H4    H     H_    0.179944 0.514943 0.672260 0.250937
H5    H     H_    0.667345 0.880675 0.547299 0.176056
N1    N     N_R   0.499290 0.499140 0.142710 -0.194705
N2    N     N_R   0.499290 0.499180 0.857070 -0.164707
O1    O     O_R   0.500010 0.316790 0.614690 -0.613483
O2    O     O_R   0.500000 0.316760 0.385350 -0.554580
O3    O     O_R   0.346360 0.499990 0.595720 -0.579605
O4    O     O_R   0.346350 0.499960 0.366370 -0.532631
O5    O     O_R   0.500000 0.683240 0.614650 -0.574117
O6    O     O_R   0.499990 0.683210 0.385310 -0.665810
O7    O     O_R   0.653650 0.500040 0.633630 -0.568889
O8    O     O_R   0.653640 0.500010 0.404280 -0.575331
Zn1   Zn    Zn3+2 0.500010 0.500020 0.653130 1.065045
Zn2   Zn    Zn3+2 0.499990 0.499980 0.346870 1.067418
O9    O     O_3   0.810433 0.447118 0.301732 -0.621504
H6    H     H_    0.852492 0.382180 0.261348 0.376915
S1    S     S_3+6 0.306029 0.877805 0.688947 0.034152
O10   O     O_2   0.215989 0.936204 0.748818 -0.219808
O11   O     O_2   0.295168 0.737844 0.692519 -0.316177
O12   O     O_3   0.417941 0.920965 0.782255 -0.594135
H7    H     H_    0.413204 0.886466 0.873784 0.398721
S2    S     S_3+6 0.208575 0.122665 0.360100 0.129165
O13   O     O_2   0.101178 0.094417 0.395417 -0.212615
O14   O     O_2   0.219922 0.261147 0.343039 -0.280236
O15   O     O_3   0.227291 0.047973 0.214450 -0.509460
H8    H     H_    0.160346 0.055215 0.155293 0.384821
O16   O     O_3   0.296753 0.143917 0.613842 -0.732761
H9    H     H_    0.361037 0.130946 0.676844 0.338646
O17   O     O_3   0.658053 0.620494 0.157787 -0.676486
H10   H     H_    0.630173 0.656436 0.237886 0.371315
O18   O     O_3   0.266350 0.340011 0.824324 -0.696299
H11   H     H_    0.235886 0.254630 0.825233 0.388922
O19   O     O_3   0.263497 0.340062 0.091836 -0.618034
H12   H     H_    0.230050 0.257606 0.068662 0.368741
O20   O     O_3   0.423723 0.238242 0.120762 -0.710851
H13   H     H_    0.494224 0.240317 0.090684 0.303615
O21   O     O_3   0.824018 0.520931 0.786581 -0.710832
H14   H     H_    0.876683 0.530398 0.867431 0.358200
O22   O     O_3   0.963464 0.539955 0.187503 -0.719585
H15   H     H_    0.003491 0.504986 0.116641 0.344798
O23   O     O_3   0.183991 0.569512 0.218296 -0.696229
H16   H     H_    0.138981 0.622736 0.154798 0.357952
S3    S     S_3+6 0.718493 0.142332 0.558639 0.046180
O24   O     O_2   0.715356 0.230967 0.677020 -0.250314
O25   O     O_2   0.805842 0.051100 0.591714 -0.243733
O26   O     O_3   0.740037 0.223892 0.420690 -0.549408
H17   H     H_    0.736602 0.160998 0.345920 0.366040
O27   O     O_3   0.231546 0.862206 0.425509 -0.684667
H18   H     H_    0.257732 0.775296 0.420120 0.328779

loop_
_geom_bond_atom_site_label_1
_geom_bond_atom_site_label_2
_ccdc_geom_bond_type
C16   C21   S    
C21   O20   S    
C1    C8    S    
C19   C20   S    
C7    C8    A    
C20   H2    S    
S2    O13   D    
C25   C28   A    
C26   C27   A    
C23   O7    A    
S3    O25   D    
C15   S2    S    
C5    C6    A    
C4    C24   A    
C22   O6    A    
C23   O8    A    
O15   H8    S    
C21   O19   S    
C16   N1    A    
S1    O12   S    
C8    C9    A    
S3    O26   S    
C23   C24   S    
O22   H15   S    
C18   N2    A    
C1    O2    A    
O4    Zn2   S    
S1    O11   D    
O20   H13   S    
C13   C14   S    
C12   O3    A    
C4    O9    S    
O7    Zn1   S    
C5    O21   S    
S2    O14   D    
S3    O24   D    
O12   H7    S    
C28   H4    S    
N1    Zn2   S    
O21   H14   S    
C14   S1    S    
O16   H9    S    
O26   H17   S    
C2    C6    A    
O17   H10   S    
O3    Zn1   S    
O18   H11   S    
O5    Zn1   S    
C22   O5    A    
C17   C18   A    
C18   H1    S    
C14   O27   S    
N2    Zn1   S    
O8    Zn2   S    
S1    O10   D    
C26   O22   S    
C15   O16   S    
O1    Zn1   S    
C17   N1    A    
O2    Zn2   S    
C3    C4    A    
C9    C10   A    
S2    O15   S    
O9    H6    S    
C3    C26   A    
O23   H16   S    
C25   C27   A    
C11   C22   S    
C12   C25   S    
O19   H12   S    
C12   O4    A    
C2    C3    A    
C19   N2    A    
C11   C13   A    
C5    C24   A    
C16   C19   A    
C7    C15   S    
C6    H3    S    
C10   H5    S    
C20   O18   S    
C10   C11   A    
C17   O17   S    
O27   H18   S    
C7    C13   A    
C20   C21   S    
C9    S3    S    
O6    Zn2   S    
C14   C15   S    
C2    C28   A    
C27   O23   S    
C1    O1    A    
