data_mof_unit_46312.cif
_audit_creation_date              2012-12-10T20:34:13-0500
_audit_creation_method            fapswitch 2.2
_symmetry_space_group_name_H-M    P1
_symmetry_Int_Tables_number       1
_space_group_crystal_system       triclinic
_cell_length_a                    9.904211
_cell_length_b                    10.680228
_cell_length_c                    13.675767
_cell_angle_alpha                 90.919024
_cell_angle_beta                  84.496277
_cell_angle_gamma                 90.087126
_cell_volume                      1439.75796608

loop_
_atom_site_label
_atom_site_type_symbol
_atom_type_description
_atom_site_fract_x
_atom_site_fract_y
_atom_site_fract_z
_atom_type_partial_charge
C1    C     C_R   0.500254 0.739664 0.497746 0.866468
C2    C     C_3   0.266695 0.924693 0.583440 -0.532152
C3    C     C_R   0.920394 0.573715 0.565069 0.137009
C4    C     C_R   0.477736 0.500741 0.685193 0.909570
C5    C     C_R   0.935224 0.436686 0.429459 0.103131
C6    C     C_R   0.079989 0.438933 0.427489 -0.053860
C7    C     C_R   0.062674 0.573406 0.565566 0.133973
C8    C     C_3   0.050740 0.564744 0.675357 -0.124152
C9    C     C_3   0.897379 0.566556 0.673814 -0.500624
C10   C     C_R   0.499973 0.260169 0.499196 0.895668
C11   C     C_R   0.522754 0.499139 0.315057 0.908786
C12   C     C_1   0.467074 0.515496 0.787486 -0.177914
C13   C     C_1   0.538155 0.491931 0.212785 -0.164222
C14   C     C_2   0.558580 0.476907 0.022439 -0.042654
C15   C     C_2   0.476787 0.551453 0.975188 -0.044431
C16   C     C_1   0.467727 0.531724 0.873404 -0.054323
C17   C     C_1   0.550235 0.484615 0.126042 -0.047649
C18   C     C_R   0.391221 0.652952 0.024856 0.151691
C19   C     C_R   0.251668 0.658197 0.013725 -0.163449
C20   C     C_R   0.171633 0.754439 0.058987 -0.137294
C21   C     C_R   0.230283 0.846890 0.114779 -0.114916
C22   C     C_R   0.369172 0.843445 0.125215 -0.151014
C23   C     C_R   0.378225 0.935554 0.502272 0.110315
C24   C     C_R   0.449552 0.747297 0.080231 -0.144742
C25   C     C_R   0.158781 0.373223 0.345031 0.187242
C26   C     C_R   0.177142 0.429039 0.252221 -0.142166
C27   C     C_R   0.236542 0.361124 0.170908 -0.131811
C28   C     C_R   0.277896 0.237452 0.181596 -0.136939
C29   C     C_R   0.257738 0.180860 0.273203 -0.169272
C30   C     C_R   0.196131 0.247881 0.354025 -0.122658
C31   C     C_R   0.650388 0.378842 0.974649 0.153718
C32   C     C_R   0.752636 0.409973 0.900694 -0.136038
C33   C     C_R   0.847462 0.319768 0.863811 -0.148615
C34   C     C_R   0.500127 0.870931 0.486003 -0.090933
C35   C     C_R   0.840759 0.198138 0.899832 -0.111065
C36   C     C_R   0.740095 0.166471 0.973764 -0.163505
C37   C     C_R   0.645867 0.256352 0.011466 -0.171545
C38   C     C_R   0.302381 0.123248 0.684774 0.196709
C39   C     C_R   0.215017 0.212217 0.734051 -0.147322
C40   C     C_R   0.242602 0.261823 0.825221 -0.153634
C41   C     C_R   0.357497 0.222993 0.868113 -0.100820
C42   C     C_R   0.446027 0.135815 0.819307 -0.139713
C43   C     C_R   0.419192 0.086273 0.728003 -0.168480
C44   C     C_R   0.620258 0.934679 0.455681 -0.241738
C45   C     C_R   0.620026 0.064246 0.457004 -0.228587
C46   C     C_R   0.499979 0.128201 0.489433 -0.098750
C47   C     C_R   0.378289 0.063004 0.505716 0.061458
C48   C     C_3   0.265927 0.067166 0.588139 -0.197927
H1    H     H_    0.091284 0.476114 0.702409 0.171847
H2    H     H_    0.064114 0.757448 0.050653 0.130632
H3    H     H_    0.168241 0.921481 0.149562 0.125156
H4    H     H_    0.414760 0.915576 0.167802 0.123719
H5    H     H_    0.557371 0.746916 0.087921 0.123531
H6    H     H_    0.143942 0.524314 0.242788 0.129976
H7    H     H_    0.250018 0.404034 0.099539 0.134447
H8    H     H_    0.323470 0.184822 0.118684 0.121405
H9    H     H_    0.287080 0.084281 0.281231 0.130315
H10   H     H_    0.173896 0.201483 0.422890 0.117226
H11   H     H_    0.207006 0.676591 0.711338 0.212532
H12   H     H_    0.847588 0.477324 0.696629 0.199967
H13   H     H_    0.066262 0.757204 0.692433 0.189743
H14   H     H_    0.761473 0.504835 0.874098 0.133620
H15   H     H_    0.927903 0.344220 0.808500 0.114938
H16   H     H_    0.914518 0.128876 0.871176 0.131991
H17   H     H_    0.735459 0.072465 0.002315 0.129753
H18   H     H_    0.569812 0.230617 0.069863 0.127071
H19   H     H_    0.124720 0.242324 0.702274 0.100629
H20   H     H_    0.174686 0.330076 0.862839 0.129686
H21   H     H_    0.377881 0.260852 0.939011 0.127165
H22   H     H_    0.535013 0.105643 0.852387 0.151042
H23   H     H_    0.846590 0.651996 0.707046 0.203160
H24   H     H_    0.488627 0.018203 0.691746 0.140351
H25   H     H_    0.900089 0.270799 0.362541 0.155705
H26   H     H_    0.898357 0.397345 0.288942 0.178065
H27   H     H_    0.714699 0.885311 0.436052 0.169458
H28   H     H_    0.714221 0.113495 0.437557 0.169522
H29   H     H_    0.170024 0.104982 0.564672 0.136039
H30   H     H_    0.300080 0.878129 0.649143 0.193059
H31   H     H_    0.173233 0.884671 0.556404 0.192221
H32   H     H_    0.204725 0.587238 0.970704 0.130298
N1    N     N_R   0.857130 0.500860 0.500650 -0.103949
N2    N     N_R   0.142770 0.500820 0.500650 -0.138033
N3    N     N_3   0.101325 0.676199 0.723826 -0.445184
N4    N     N_3   0.869011 0.363980 0.359193 -0.390035
O1    O     O_R   0.385310 0.683210 0.499990 -0.616498
O2    O     O_R   0.614650 0.683240 0.500000 -0.622996
O3    O     O_R   0.368820 0.499950 0.640340 -0.624507
O4    O     O_R   0.598170 0.499990 0.640350 -0.613339
O5    O     O_R   0.385350 0.316760 0.500000 -0.620666
O6    O     O_R   0.614690 0.316790 0.500010 -0.606803
O7    O     O_R   0.401830 0.500010 0.359650 -0.601396
O8    O     O_R   0.631180 0.500050 0.359660 -0.600164
Zn1   Zn    Zn3+2 0.346870 0.499980 0.499990 0.944383
Zn2   Zn    Zn3+2 0.653130 0.500020 0.500010 0.954090

loop_
_geom_bond_atom_site_label_1
_geom_bond_atom_site_label_2
_ccdc_geom_bond_type
C15   C18   S    
C43   H24   S    
C6    N2    A    
C8    N3    S    
C41   C42   A    
C35   C36   A    
C14   C31   S    
C28   H8    S    
C7    C8    S    
C4    O3    A    
C45   C46   A    
C26   C27   A    
C45   H28   S    
C18   C24   A    
C22   H4    S    
C36   C37   A    
H11   N3    S    
C3    C7    A    
C5    C6    A    
C27   H7    S    
C6    C25   S    
C15   C16   S    
O3    Zn1   S    
C42   H22   S    
C18   C19   A    
C20   H2    S    
C2    H31   S    
O2    Zn2   S    
O1    Zn1   S    
C11   O8    A    
C31   C32   A    
C10   O5    A    
C8    C9    S    
C3    N1    A    
C35   H16   S    
C4    C12   S    
H25   N4    S    
C38   C48   S    
N2    Zn1   S    
C21   C22   A    
C14   C17   S    
C26   H6    S    
C1    C34   S    
O6    Zn2   S    
C1    O1    A    
O4    Zn2   S    
C23   C47   A    
C12   C16   T    
C34   C44   A    
H13   N3    S    
C39   C40   A    
C5    N4    S    
C36   H17   S    
C2    C48   S    
C24   H5    S    
C31   C37   A    
C48   H29   S    
C44   H27   S    
C10   C46   S    
C29   C30   A    
C3    C9    S    
O7    Zn1   S    
C5    N1    A    
C47   C48   S    
C33   H15   S    
C23   C34   A    
C37   H18   S    
O8    Zn2   S    
C40   C41   A    
C29   H9    S    
C22   C24   A    
C2    H30   S    
C42   C43   A    
C21   H3    S    
C44   C45   A    
C41   H21   S    
C25   C30   A    
C46   C47   A    
C28   C29   A    
C39   H19   S    
C9    H23   S    
H26   N4    S    
C4    O4    A    
C13   C17   T    
C9    H12   S    
C32   C33   A    
C19   C20   A    
C25   C26   A    
C32   H14   S    
C38   C43   A    
N1    Zn2   S    
C11   C13   S    
C38   C39   A    
C30   H10   S    
C33   C35   A    
O5    Zn1   S    
C19   H32   S    
C11   O7    A    
C1    O2    A    
C7    N2    A    
C20   C21   A    
C10   O6    A    
C40   H20   S    
C2    C23   S    
C14   C15   D    
C8    H1    S    
C27   C28   A    
