data_mof_unit_64153.cif
_audit_creation_date              2013-03-05T16:31:45-0500
_audit_creation_method            fapswitch 2.2
_symmetry_space_group_name_H-M    P1
_symmetry_Int_Tables_number       1
_space_group_crystal_system       triclinic
_cell_length_a                    41.336442
_cell_length_b                    35.649954
_cell_length_c                    21.603517
_cell_angle_alpha                 90.001869
_cell_angle_beta                  59.487398
_cell_angle_gamma                 89.999767
_cell_volume                      27427.1469068

loop_
_atom_site_label
_atom_site_type_symbol
_atom_site_description
_atom_site_fract_x
_atom_site_fract_y
_atom_site_fract_z
_atom_type_partial_charge
O1    O     O_R   0.945620 0.531450 0.554380 -0.583863
O2    O     O_R   0.054380 0.531450 0.445620 -0.583902
O3    O     O_R   0.445620 0.031450 0.554380 -0.583913
O4    O     O_R   0.554380 0.031450 0.445620 -0.583845
O5    O     O_R   0.945570 0.468490 0.554430 -0.591951
O6    O     O_R   0.054430 0.468490 0.445570 -0.592154
O7    O     O_R   0.445570 0.968490 0.554430 -0.592087
O8    O     O_R   0.554430 0.968490 0.445570 -0.592001
C1    C     C_R   0.927599 0.499983 0.572653 0.790524
C2    C     C_R   0.072401 0.499982 0.427347 0.790367
C3    C     C_R   0.427599 0.999983 0.572653 0.790483
C4    C     C_R   0.572401 0.999982 0.427347 0.790465
O9    O     O_R   0.999990 0.531450 0.408860 -0.565302
O10   O     O_R   0.000010 0.531450 0.591140 -0.565291
O11   O     O_R   0.499990 0.031450 0.408860 -0.565295
O12   O     O_R   0.500010 0.031450 0.591140 -0.565430
O13   O     O_R   0.999940 0.468490 0.408900 -0.603201
O14   O     O_R   0.000060 0.468490 0.591100 -0.603217
O15   O     O_R   0.499940 0.968490 0.408900 -0.603169
O16   O     O_R   0.500060 0.968490 0.591100 -0.603231
C5    C     C_R   0.998627 0.499962 0.381251 0.823488
C6    C     C_R   0.001371 0.499963 0.618751 0.823393
C7    C     C_R   0.498629 0.999962 0.381249 0.823384
C8    C     C_R   0.501384 0.999963 0.618737 0.823576
Cu1   Cu    Cu3+1 0.000000 0.537250 0.500000 0.960025
Cu2   Cu    Cu3+1 0.500000 0.037250 0.500000 0.959998
Cu3   Cu    Cu3+1 0.000000 0.462700 0.500000 0.926371
Cu4   Cu    Cu3+1 0.500000 0.962700 0.500000 0.926457
C9    C     C_3   0.972185 0.529917 0.312206 -0.415666
C10   C     C_3   0.027838 0.529895 0.687773 -0.415795
C11   C     C_3   0.472160 0.029893 0.312232 -0.415807
C12   C     C_3   0.527711 0.030016 0.687905 -0.415524
H1    H     H_    0.977059 0.557979 0.328439 0.196484
H2    H     H_    0.022988 0.557961 0.671517 0.196422
H3    H     H_    0.477007 0.057958 0.328493 0.196415
H4    H     H_    0.522727 0.058063 0.671796 0.196527
H5    H     H_    0.942794 0.522013 0.352478 0.161924
H6    H     H_    0.057223 0.521965 0.647509 0.161741
H7    H     H_    0.442776 0.021961 0.352494 0.161716
H8    H     H_    0.557131 0.022226 0.647594 0.161898
C13   C     C_3   0.976640 0.532658 0.237192 -0.400210
C14   C     C_3   0.023383 0.532642 0.762787 -0.400187
C15   C     C_3   0.476614 0.032640 0.237219 -0.400211
C16   C     C_3   0.523253 0.032733 0.762923 -0.400265
H9    H     H_    0.948309 0.532308 0.243117 0.192659
H10   H     H_    0.051714 0.532271 0.756864 0.192521
H11   H     H_    0.448284 0.032268 0.243143 0.192488
H12   H     H_    0.551586 0.032470 0.756995 0.192567
H13   H     H_    0.988463 0.560449 0.213876 0.204461
H14   H     H_    0.011579 0.560442 0.786085 0.204419
H15   H     H_    0.488416 0.060440 0.213926 0.204421
H16   H     H_    0.511345 0.060485 0.786340 0.204514
C17   C     C_3   0.040470 0.508847 0.250019 -0.076495
C18   C     C_3   0.959536 0.508886 0.749978 -0.076517
C19   C     C_3   0.540463 0.008885 0.250023 -0.076513
C20   C     C_3   0.459505 0.008688 0.749998 -0.076616
C21   C     C_3   0.987172 0.461127 0.297915 -0.473827
C22   C     C_3   0.012795 0.461119 0.702114 -0.473972
C23   C     C_3   0.487208 0.961117 0.297878 -0.473908
C24   C     C_3   0.512979 0.961171 0.701926 -0.474204
C25   C     C_3   0.999633 0.500074 0.311594 0.069604
C26   C     C_3   0.000365 0.500077 0.688408 0.069791
C27   C     C_3   0.499635 0.000075 0.311592 0.069758
C28   C     C_3   0.500375 0.000073 0.688396 0.069768
H17   H     H_    0.007610 0.439158 0.292275 0.164894
H18   H     H_    0.992339 0.439168 0.707770 0.164974
H19   H     H_    0.507665 0.939166 0.292219 0.165039
H20   H     H_    0.492622 0.939128 0.707484 0.164817
H21   H     H_    0.959739 0.452901 0.345242 0.183055
H22   H     H_    0.040221 0.452870 0.654794 0.182806
H23   H     H_    0.459782 0.952867 0.345197 0.182859
H24   H     H_    0.540442 0.953046 0.654567 0.182768
C29   C     C_3   0.001672 0.499868 0.187895 0.009541
C30   C     C_3   0.998326 0.499872 0.812106 0.009642
C31   C     C_3   0.501674 0.999870 0.187894 0.009585
C32   C     C_3   0.498334 0.999858 0.812097 0.009700
C33   C     C_3   0.043644 0.503994 0.174398 0.402148
C34   C     C_3   0.956358 0.504032 0.825602 0.401765
C35   C     C_3   0.543642 0.004032 0.174398 0.401736
C36   C     C_3   0.456349 0.003838 0.825603 0.402227
C37   C     C_3   0.984526 0.462086 0.228849 -0.045769
C38   C     C_3   0.015442 0.462076 0.771179 -0.045590
C39   C     C_3   0.484561 0.962074 0.228814 -0.045604
C40   C     C_3   0.515618 0.962137 0.770999 -0.045434
H25   H     H_    0.001076 0.438288 0.193649 0.127226
H26   H     H_    0.998874 0.438292 0.806395 0.127190
H27   H     H_    0.501131 0.938291 0.193593 0.127346
H28   H     H_    0.499154 0.938279 0.806110 0.126716
H29   H     H_    0.059253 0.488084 0.254889 0.141233
H30   H     H_    0.940734 0.488142 0.745120 0.141369
H31   H     H_    0.559267 0.988142 0.254877 0.141366
H32   H     H_    0.440805 0.987847 0.745056 0.141341
C41   C     C_R   0.673234 0.500431 0.885370 -0.153347
C42   C     C_R   0.326766 0.500423 0.114630 -0.154084
C43   C     C_R   0.173234 0.000444 0.885370 -0.154678
C44   C     C_R   0.826766 0.000424 0.114630 -0.153198
H33   H     H_    0.688387 0.500822 0.914136 0.137848
H34   H     H_    0.311613 0.500810 0.085865 0.137622
H35   H     H_    0.188387 0.000844 0.914136 0.137258
H36   H     H_    0.811613 0.000812 0.085864 0.137807
C45   C     C_R   0.633980 0.500435 0.923951 -0.187757
C46   C     C_R   0.366020 0.500428 0.076049 -0.188395
C47   C     C_R   0.133980 0.000447 0.923952 -0.189629
C48   C     C_R   0.866020 0.000429 0.076049 -0.187630
H37   H     H_    0.619540 0.500839 0.982082 0.157104
H38   H     H_    0.380459 0.500829 0.017918 0.157198
H39   H     H_    0.119540 0.000860 0.982082 0.156511
H40   H     H_    0.880459 0.000832 0.017918 0.157038
C49   C     C_R   0.613732 0.499964 0.887686 -0.036805
C50   C     C_R   0.386268 0.499964 0.112314 -0.036571
C51   C     C_R   0.113732 0.999966 0.887686 -0.036327
C52   C     C_R   0.886268 0.999963 0.112314 -0.036654
C53   C     C_R   0.633611 0.499438 0.812079 -0.189155
C54   C     C_R   0.366389 0.499443 0.187921 -0.190699
C55   C     C_R   0.133611 0.999431 0.812080 -0.191031
C56   C     C_R   0.866389 0.999439 0.187920 -0.189089
H41   H     H_    0.618906 0.499034 0.782501 0.158062
H42   H     H_    0.381094 0.499043 0.217499 0.157364
H43   H     H_    0.118906 0.999017 0.782502 0.157243
H44   H     H_    0.881094 0.999037 0.217499 0.157733
C57   C     C_R   0.672834 0.499431 0.773672 -0.158709
C58   C     C_R   0.327166 0.499434 0.226328 -0.159811
C59   C     C_R   0.172834 0.999424 0.773673 -0.160033
C60   C     C_R   0.827166 0.999430 0.226328 -0.158598
H45   H     H_    0.687665 0.499037 0.715473 0.134237
H46   H     H_    0.312335 0.499045 0.284527 0.133651
H47   H     H_    0.187665 0.999022 0.715474 0.133547
H48   H     H_    0.812335 0.999038 0.284527 0.134082
C61   C     C_R   0.692698 0.499944 0.810211 0.143783
C62   C     C_R   0.307302 0.499941 0.189789 0.144171
C63   C     C_R   0.192698 0.999947 0.810212 0.144459
C64   C     C_R   0.807302 0.999939 0.189789 0.143880
C65   C     C_1   0.733046 0.499985 0.770429 -0.059904
C66   C     C_1   0.266954 0.499981 0.229572 -0.060882
C67   C     C_1   0.233046 0.999988 0.770430 -0.061251
C68   C     C_1   0.766954 0.999979 0.229571 -0.059845
C69   C     C_1   0.766858 0.500013 0.736631 -0.059734
C70   C     C_1   0.233142 0.500008 0.263370 -0.060551
C71   C     C_1   0.266858 0.000015 0.736633 -0.060745
C72   C     C_1   0.733142 0.000007 0.263369 -0.059724
C73   C     C_R   0.826832 0.466050 0.675039 -0.154401
C74   C     C_R   0.173169 0.466046 0.324961 -0.155004
C75   C     C_R   0.326832 0.966051 0.675041 -0.154837
C76   C     C_R   0.673169 0.966046 0.324962 -0.154603
H49   H     H_    0.811833 0.439606 0.689754 0.133974
H50   H     H_    0.188168 0.439602 0.310246 0.133435
H51   H     H_    0.311832 0.939608 0.689755 0.133582
H52   H     H_    0.688168 0.939601 0.310248 0.133857
C77   C     C_R   0.866048 0.466002 0.634876 -0.193772
C78   C     C_R   0.133952 0.465999 0.365124 -0.194344
C79   C     C_R   0.366048 0.966003 0.634877 -0.194277
C80   C     C_R   0.633952 0.965999 0.365125 -0.193874
H53   H     H_    0.880620 0.439356 0.619379 0.153937
H54   H     H_    0.119381 0.439353 0.380620 0.153529
H55   H     H_    0.380620 0.939356 0.619380 0.153652
H56   H     H_    0.619380 0.939353 0.380622 0.153866
C81   C     C_R   0.886103 0.500005 0.615007 -0.038598
C82   C     C_R   0.113896 0.500003 0.384992 -0.038285
C83   C     C_R   0.386103 0.000005 0.615009 -0.038301
C84   C     C_R   0.613897 0.000003 0.384993 -0.038586
C85   C     C_R   0.866091 0.534016 0.636304 -0.186563
C86   C     C_R   0.133908 0.534014 0.363696 -0.186754
C87   C     C_R   0.366092 0.034017 0.636307 -0.186773
C88   C     C_R   0.633908 0.034013 0.363695 -0.186552
H57   H     H_    0.880700 0.560654 0.621965 0.156959
H58   H     H_    0.119298 0.560652 0.378035 0.156787
H59   H     H_    0.380701 0.060655 0.621969 0.156720
H60   H     H_    0.619299 0.060652 0.378033 0.157030
C89   C     C_R   0.826870 0.533981 0.676478 -0.152359
C90   C     C_R   0.173129 0.533978 0.323522 -0.152933
C91   C     C_R   0.326871 0.033982 0.676482 -0.153255
C92   C     C_R   0.673129 0.033977 0.323521 -0.152206
H61   H     H_    0.811900 0.560430 0.692326 0.136023
H62   H     H_    0.188098 0.560426 0.307674 0.135505
H63   H     H_    0.311901 0.060431 0.692330 0.135232
H64   H     H_    0.688099 0.060425 0.307673 0.136227
C93   C     C_R   0.807196 0.500017 0.695866 0.145066
C94   C     C_R   0.192804 0.500013 0.304134 0.145495
C95   C     C_R   0.307196 0.000019 0.695869 0.145529
C96   C     C_R   0.692804 0.000012 0.304134 0.145041
O17   O     O_R   0.968510 0.554330 0.031500 -0.573214
O18   O     O_R   0.031490 0.554330 0.968500 -0.573350
O19   O     O_R   0.468510 0.054330 0.031500 -0.573409
O20   O     O_R   0.531490 0.054330 0.968500 -0.573183
C97   C     C_R   1.000000 0.572338 0.000000 0.832379
C98   C     C_R   0.500000 0.072338 0.000000 0.832182
O21   O     O_R   0.968510 0.499950 0.122650 -0.568693
O22   O     O_R   0.031490 0.499950 0.877350 -0.568895
O23   O     O_R   0.468510 0.999950 0.122650 -0.568884
O24   O     O_R   0.531490 0.999950 0.877350 -0.568662
O25   O     O_R   0.031450 0.499990 0.059700 -0.566834
O26   O     O_R   0.968550 0.499990 0.940300 -0.566802
O27   O     O_R   0.531450 0.999990 0.059700 -0.566766
O28   O     O_R   0.468550 0.999990 0.940300 -0.566569
C99   C     C_R   0.000461 0.499978 0.119896 0.829477
C100  C     C_R   0.999539 0.499980 0.880104 0.829543
C101  C     C_R   0.500461 0.999980 0.119896 0.829674
C102  C     C_R   0.499540 0.999972 0.880102 0.828923
Cu5   Cu    Cu3+1 0.962700 0.499940 0.037300 1.006817
Cu6   Cu    Cu3+1 0.037300 0.499940 0.962700 1.005859
Cu7   Cu    Cu3+1 0.462700 0.999940 0.037300 1.005892
Cu8   Cu    Cu3+1 0.537300 0.999940 0.962700 1.006514
O29   O     O_R   0.968500 0.445560 0.031500 -0.593387
O30   O     O_R   0.031500 0.445560 0.968500 -0.593919
O31   O     O_R   0.468500 0.945560 0.031500 -0.593789
O32   O     O_R   0.531500 0.945560 0.968500 -0.593601
C103  C     C_R   0.000001 0.427592 0.000000 0.793967
C104  C     C_R   0.500000 0.927592 0.999988 0.793821
O33   O     O_R   0.499920 0.445680 0.947340 -0.556606
O34   O     O_R   0.500080 0.445680 0.052660 -0.556716
O35   O     O_R   0.999920 0.945680 0.947340 -0.556609
O36   O     O_R   0.000080 0.945680 0.052660 -0.556634
C105  C     C_R   0.500000 0.427894 0.999999 0.814007
C106  C     C_R   1.000000 0.927894 0.999999 0.814505
O37   O     O_R   0.554340 0.500070 0.892900 -0.583985
O38   O     O_R   0.445660 0.500070 0.107100 -0.585003
O39   O     O_R   0.054340 0.000070 0.892900 -0.584907
O40   O     O_R   0.945660 0.000070 0.107100 -0.584227
O41   O     O_R   0.554350 0.500090 0.998410 -0.587492
O42   O     O_R   0.445650 0.500090 0.001590 -0.587212
O43   O     O_R   0.054350 0.000090 0.998410 -0.587990
O44   O     O_R   0.945650 0.000090 0.001590 -0.587325
C107  C     C_R   0.572190 0.500035 0.928265 0.779137
C108  C     C_R   0.427809 0.500035 0.071735 0.777999
C109  C     C_R   0.072190 0.000036 0.928266 0.777631
C110  C     C_R   0.927809 0.000035 0.071735 0.779817
Cu9   Cu    Cu3+1 0.499970 0.500070 0.937560 0.962277
Cu10  Cu    Cu3+1 0.500030 0.500070 0.062440 0.959500
Cu11  Cu    Cu3+1 0.999970 0.000070 0.937560 0.958846
Cu12  Cu    Cu3+1 0.000030 0.000070 0.062440 0.958881
O45   O     O_R   0.500010 0.554450 0.947200 -0.587907
O46   O     O_R   0.499990 0.554450 0.052800 -0.585734
O47   O     O_R   0.000010 0.054450 0.947200 -0.587554
O48   O     O_R   0.999990 0.054450 0.052800 -0.587438
C111  C     C_R   0.499993 0.572256 0.000011 0.812535
C112  C     C_R   0.000015 0.072259 0.999986 0.812594
C113  C     C_R   0.521670 0.326892 0.935864 -0.191475
C114  C     C_R   0.478326 0.326895 0.064133 -0.191708
C115  C     C_R   0.021669 0.826892 0.935863 -0.191666
C116  C     C_R   0.978326 0.826895 0.064132 -0.191545
H65   H     H_    0.538540 0.311404 0.886441 0.137106
H66   H     H_    0.461455 0.311409 0.113556 0.136903
H67   H     H_    0.038540 0.811404 0.886440 0.136927
H68   H     H_    0.961454 0.811409 0.113555 0.137037
C117  C     C_R   0.522050 0.366314 0.935129 0.118575
C118  C     C_R   0.477946 0.366317 0.064868 0.118745
C119  C     C_R   0.022050 0.866314 0.935128 0.118701
C120  C     C_R   0.977946 0.866316 0.064868 0.118595
C121  C     C_R   0.499999 0.386328 0.999999 -0.063694
C122  C     C_R   0.999999 0.886328 0.999998 -0.063795
C123  C     C_R   0.499997 0.307322 0.999999 0.078581
C124  C     C_R   0.999997 0.807322 0.999997 0.078588
C125  C     C_1   0.499997 0.266952 0.999999 -0.029739
C126  C     C_1   0.999997 0.766952 0.999997 -0.029756
C127  C     C_1   0.999997 0.733140 0.999997 -0.059352
C128  C     C_1   0.499998 0.233140 0.000000 -0.059373
C129  C     C_R   0.033995 0.673108 0.967451 -0.153221
C130  C     C_R   0.966001 0.673109 0.032546 -0.152988
C131  C     C_R   0.533995 0.173108 0.967452 -0.152927
C132  C     C_R   0.466001 0.173109 0.032551 -0.153327
H69   H     H_    0.060474 0.688075 0.942110 0.136827
H70   H     H_    0.939521 0.688076 0.057886 0.137041
H71   H     H_    0.560474 0.188075 0.942110 0.137088
H72   H     H_    0.439521 0.188077 0.057893 0.136709
C133  C     C_R   0.034036 0.633892 0.967409 -0.161120
C134  C     C_R   0.965961 0.633892 0.032590 -0.160934
C135  C     C_R   0.534036 0.133891 0.967409 -0.160926
C136  C     C_R   0.465961 0.133892 0.032595 -0.161363
H73   H     H_    0.060707 0.619307 0.941918 0.166145
H74   H     H_    0.939290 0.619308 0.058081 0.166308
H75   H     H_    0.560707 0.119307 0.941917 0.166315
H76   H     H_    0.439290 0.119308 0.058087 0.166055
C137  C     C_R   0.999999 0.613846 1.000000 -0.035642
C138  C     C_R   0.499999 0.113846 0.000002 -0.035680
C139  C     C_R   0.999997 0.692784 0.999998 0.137102
C140  C     C_R   0.499998 0.192784 0.000001 0.137148
C141  C     C_R   0.499892 0.673073 0.056648 0.169805
C142  C     C_R   0.499696 0.672847 0.943832 0.131820
C143  C     C_R   0.000734 0.173050 0.055804 0.149389
C144  C     C_R   0.000107 0.173045 0.943362 0.147576
C145  C     C_R   0.500055 0.633681 0.056046 -0.228367
C146  C     C_R   0.499753 0.633663 0.944206 -0.161015
C147  C     C_R   0.000499 0.133675 0.055575 -0.226736
C148  C     C_R   0.999892 0.133671 0.944039 -0.225551
H77   H     H_    0.500178 0.618654 0.099495 0.160258
H78   H     H_    0.499660 0.618864 0.900498 0.176614
H79   H     H_    0.000709 0.118642 0.098934 0.159254
H80   H     H_    0.999615 0.118635 0.900747 0.159288
C149  C     C_R   0.499944 0.613732 0.000075 -0.123049
C150  C     C_R   0.000113 0.113743 0.999889 -0.095669
C151  C     C_R   0.499800 0.692689 0.000182 0.070396
C152  C     C_R   0.000411 0.192683 0.999591 0.100940
C153  C     C_1   0.499913 0.733092 0.000045 -0.023634
C154  C     C_1   0.000189 0.233088 0.999809 0.020116
C155  C     C_1   0.000084 0.266826 0.999915 0.018307
C156  C     C_1   0.499966 0.766829 0.999963 0.013456
C157  C     C_R   0.034330 0.326882 0.966136 0.143069
C158  C     C_R   0.965743 0.326851 0.033804 0.148443
C159  C     C_R   0.534279 0.826860 0.965848 0.144946
C160  C     C_R   0.465695 0.826874 0.033983 0.143899
C161  C     C_R   0.034027 0.366254 0.966233 -0.229540
C162  C     C_R   0.966010 0.366226 0.033742 -0.232764
C163  C     C_R   0.534001 0.866234 0.965956 -0.231660
C164  C     C_R   0.465987 0.866246 0.033916 -0.231155
H81   H     H_    0.060434 0.381326 0.940075 0.160645
H82   H     H_    0.939592 0.381279 0.059913 0.161236
H83   H     H_    0.560414 0.881292 0.939615 0.161222
H84   H     H_    0.439578 0.881313 0.060267 0.160886
C165  C     C_R   0.000010 0.386146 0.999994 -0.094506
C166  C     C_R   0.499997 0.886146 0.999955 -0.094660
C167  C     C_R   0.000046 0.307230 0.999957 0.101152
C168  C     C_R   0.499983 0.807232 0.999919 0.103354
N1    N     N_3   0.066246 0.469862 0.140278 -0.577172
H85   H     H_    0.064368 0.461078 0.096207 0.228143
H86   H     H_    0.058557 0.447281 0.175788 0.173779
N2    N     N_3   0.933728 0.469919 0.859737 -0.576659
H87   H     H_    0.935595 0.461130 0.903816 0.228393
H88   H     H_    0.941401 0.447333 0.824238 0.174130
N3    N     N_3   0.566274 0.969919 0.140257 -0.576685
H89   H     H_    0.564408 0.961130 0.096176 0.228425
H90   H     H_    0.558603 0.947333 0.175751 0.174178
N4    N     N_3   0.433872 0.969629 0.859625 -0.577174
H91   H     H_    0.435797 0.960863 0.903655 0.227929
H92   H     H_    0.441638 0.947071 0.824045 0.173704
N5    N     N_3   0.545369 0.386115 0.869054 -0.560925
H93   H     H_    0.558327 0.367388 0.825943 0.213665
H94   H     H_    0.566874 0.399033 0.873297 0.207355
N6    N     N_3   0.454628 0.386121 0.130944 -0.561130
H95   H     H_    0.441669 0.367396 0.174055 0.213358
H96   H     H_    0.433123 0.399040 0.126700 0.207262
N7    N     N_3   0.045369 0.886116 0.869053 -0.561191
H97   H     H_    0.058327 0.867388 0.825942 0.213350
H98   H     H_    0.066874 0.899033 0.873297 0.207358
N8    N     N_3   0.954628 0.886121 0.130943 -0.561148
H99   H     H_    0.941669 0.867395 0.174054 0.213514
H100  H     H_    0.933123 0.899040 0.126700 0.207311
N9    N     N_3   0.500095 0.693315 0.114027 -0.582665
H101  H     H_    0.502249 0.674787 0.149287 0.213201
H102  H     H_    0.474088 0.706679 0.143562 0.221108
N10   N     N_3   0.499546 0.691922 0.885588 -0.593464
H103  H     H_    0.475749 0.709065 0.906835 0.220537
H104  H     H_    0.523317 0.709085 0.860306 0.229577
N11   N     N_3   0.001006 0.193280 0.113129 -0.580709
H105  H     H_    0.999139 0.174749 0.152332 0.215904
H106  H     H_    0.027052 0.206628 0.091533 0.211549
N12   N     N_3   0.999721 0.193271 0.886148 -0.586234
H107  H     H_    0.997423 0.174736 0.851058 0.215690
H108  H     H_    0.025723 0.206613 0.856367 0.218503
N13   N     N_3   0.069276 0.306675 0.931451 -0.592674
H109  H     H_    0.091904 0.325225 0.905677 0.217050
H110  H     H_    0.072055 0.293305 0.971583 0.214038
N14   N     N_3   0.930817 0.306613 0.068474 -0.577334
H111  H     H_    0.908174 0.325144 0.094291 0.216222
H112  H     H_    0.928041 0.293253 0.028328 0.222376
N15   N     N_3   0.569208 0.806630 0.930908 -0.586643
H113  H     H_    0.591836 0.825166 0.904953 0.216287
H114  H     H_    0.572102 0.793261 0.970909 0.224148
N16   N     N_3   0.430758 0.806657 0.068885 -0.589209
H115  H     H_    0.408133 0.825201 0.094803 0.216855
H116  H     H_    0.427881 0.793285 0.028866 0.213505
N17   N     N_3   0.052410 0.546022 0.260776 -0.562708
H117  H     H_    0.081650 0.548068 0.229819 0.263498
H118  H     H_    0.040718 0.567463 0.245389 0.258912
N18   N     N_3   0.947628 0.546074 0.739200 -0.562601
H119  H     H_    0.918390 0.548146 0.770151 0.263618
H120  H     H_    0.959338 0.567502 0.754579 0.258918
N19   N     N_3   0.552369 0.046074 0.260808 -0.562557
H121  H     H_    0.581607 0.048147 0.229857 0.263641
H122  H     H_    0.540658 0.067501 0.245433 0.258932
N20   N     N_3   0.447416 0.045811 0.739364 -0.562915
H123  H     H_    0.418170 0.047746 0.770347 0.263441
H124  H     H_    0.459032 0.067303 0.754804 0.258963
N21   N     N_R   0.064691 0.535891 0.126740 0.145980
O49   O     O_R   0.048440 0.562252 0.110604 -0.406214
O50   O     O_R   0.100970 0.537515 0.098559 -0.336341
N22   N     N_R   0.935336 0.535946 0.873244 0.146018
O51   O     O_R   0.951606 0.562285 0.889383 -0.406167
O52   O     O_R   0.899059 0.537604 0.901414 -0.335772
N23   N     N_R   0.564662 0.035946 0.126762 0.146020
O53   O     O_R   0.548389 0.062285 0.110629 -0.406137
O54   O     O_R   0.600939 0.037605 0.098592 -0.335782
N24   N     N_R   0.435186 0.035667 0.873356 0.146056
O55   O     O_R   0.451348 0.062119 0.889497 -0.406144
O56   O     O_R   0.398897 0.037142 0.901593 -0.336569
N25   N     N_3   0.945623 0.456499 0.245654 -0.557074
H125  H     H_    0.938137 0.428588 0.261374 0.217195
H126  H     H_    0.927137 0.473088 0.289350 0.233388
N26   N     N_3   0.054340 0.456457 0.754379 -0.557596
H127  H     H_    0.061805 0.428540 0.738677 0.216362
H128  H     H_    0.072840 0.473031 0.710672 0.233202
N27   N     N_3   0.445663 0.956454 0.245613 -0.557552
H129  H     H_    0.438200 0.928537 0.261309 0.216531
H130  H     H_    0.427162 0.973027 0.289323 0.233178
N28   N     N_3   0.554541 0.956684 0.754171 -0.557277
H131  H     H_    0.562126 0.928799 0.738349 0.216363
H132  H     H_    0.572968 0.973338 0.710535 0.233353

loop_
_geom_bond_atom_site_label_1
_geom_bond_atom_site_label_2
_geom_bond_distance
_ccdc_geom_bond_type
N4    H92   1.044044 S    
C65   C69   1.204287 T    
C74   H50   1.083539 S    
C34   N22   1.483429 S    
Cu10  O46   1.949892 S    
C68   C72   1.204287 T    
N9    H101  1.045647 S    
C3    C83   1.478407 S    
C67   C71   1.204294 T    
C142  C151  1.409815 A    
C90   C94   1.398947 A    
C129  H69   1.083513 S    
C131  H71   1.083516 S    
C22   C38   1.550833 S    
C43   H35   1.083511 S    
C24   H24   1.113527 S    
O43   C109  1.305906 A    
C116  H68   1.083998 S    
C10   H6    1.113123 S    
C158  C162  1.403745 A    
C77   H53   1.082830 S    
C80   H56   1.082829 S    
O44   Cu11  1.949681 S    
N22   O52   1.302242 A    
C143  C147  1.403773 A    
O4    C4    1.292501 A    
O35   Cu11  1.950376 S    
C132  H72   1.083517 S    
C57   C61   1.398513 A    
C75   C79   1.397291 A    
C50   C108  1.479389 S    
Cu5   Cu6   2.657057 S    
C143  N11   1.438051 S    
C112  C150  1.478910 S    
C62   C66   1.436928 S    
O48   C112  1.305276 A    
C13   H13   1.106437 S    
C120  C122  1.416582 A    
C30   C100  1.495059 S    
C15   C31   1.565982 S    
C129  C139  1.399257 A    
C55   C59   1.396831 A    
C51   C109  1.479389 S    
C88   H60   1.082835 S    
C129  C133  1.398071 A    
N10   H103  1.045605 S    
C41   C45   1.397953 A    
C160  N16   1.438031 S    
C22   H22   1.113523 S    
O16   Cu4   1.980120 S    
O28   Cu7   1.983733 S    
C70   C94   1.436916 S    
O13   C5    1.285113 A    
O7    Cu4   1.949607 S    
O42   Cu9   1.949681 S    
N2    H87   1.041903 S    
O18   C97   1.292320 A    
C142  N10   1.433072 S    
C164  C166  1.403805 A    
O38   C108  1.304094 A    
Cu11  Cu12  2.699105 S    
C17   N17   1.473274 S    
C160  C168  1.407709 A    
O4    Cu2   1.947874 S    
Cu9   Cu10  2.699105 S    
C161  H81   1.083131 S    
N14   H111  1.045662 S    
C113  C117  1.405473 A    
C131  C140  1.399257 A    
C61   C65   1.436928 S    
C141  N9    1.438017 S    
C33   N21   1.483430 S    
C44   C48   1.397953 A    
C17   H29   1.115691 S    
O8    Cu4   1.949617 S    
C158  N14   1.438001 S    
C84   C88   1.406991 A    
C59   H47   1.083579 S    
C117  N5    1.438038 S    
C90   H62   1.083529 S    
C119  C122  1.416580 A    
O23   C101  1.291563 A    
O34   Cu10  1.950362 S    
O3    Cu2   1.947884 S    
C40   H28   1.112540 S    
C23   C39   1.550837 S    
C98   C138  1.479769 S    
C21   C25   1.560452 S    
C162  H82   1.083128 S    
C23   C27   1.560470 S    
C24   C28   1.560409 S    
C152  C154  1.440454 S    
C40   N28   1.471288 S    
C91   H63   1.083531 S    
C72   C96   1.436916 S    
Cu12  O48   1.949892 S    
O3    C3    1.292506 A    
N28   H131  1.046182 S    
C119  N7    1.438038 S    
C42   C46   1.397953 A    
C136  C138  1.407166 A    
C29   C33   1.613388 S    
C128  C140  1.438714 S    
C47   H39   1.082780 S    
C15   H11   1.111677 S    
O40   C110  1.304094 A    
C85   H57   1.082835 S    
C16   H12   1.111680 S    
N25   H126  1.045118 S    
Cu9   O45   1.949878 S    
N3    H90   1.044039 S    
N13   H109  1.045662 S    
C115  C119  1.405473 A    
C9    H1    1.111809 S    
Cu8   O32   1.949625 S    
C31   C39   1.569241 S    
C13   C29   1.565962 S    
N20   H123  1.045295 S    
C57   H45   1.083580 S    
C37   N25   1.471275 S    
O38   Cu10  1.944236 S    
C11   C15   1.538390 S    
C12   H4    1.111808 S    
N2    H88   1.044041 S    
C151  C153  1.440396 S    
C18   H30   1.115692 S    
C64   C68   1.436928 S    
N1    H86   1.044040 S    
O22   Cu6   1.976662 S    
C134  C137  1.407167 A    
C38   N26   1.471270 S    
N18   H119  1.045289 S    
C60   C64   1.398510 A    
C16   C32   1.565899 S    
C23   H19   1.112407 S    
O5    Cu3   1.949607 S    
C17   C25   1.560974 S    
C76   C96   1.398841 A    
N18   H120  1.044744 S    
N26   H127  1.046179 S    
C19   C27   1.560984 S    
O43   Cu12  1.949675 S    
C20   C28   1.560917 S    
C105  C121  1.481833 S    
C104  C166  1.477548 S    
O41   Cu10  1.949675 S    
C132  C136  1.398071 A    
C50   C54   1.407317 A    
C49   C107  1.479389 S    
Cu6   O30   1.949625 S    
C85   C89   1.397448 A    
C16   H16   1.106410 S    
C91   C95   1.398947 A    
C130  H70   1.083515 S    
C89   C93   1.398948 A    
C43   C47   1.397949 A    
O7    C3    1.292416 A    
C147  C150  1.404207 A    
C9    C25   1.550529 S    
C10   H2    1.111804 S    
O13   Cu3   1.980137 S    
C11   C27   1.550516 S    
C71   C95   1.436912 S    
O25   Cu6   1.983730 S    
C12   C28   1.550592 S    
O19   C98   1.292325 A    
C48   C52   1.407291 A    
N8    H99   1.045674 S    
O24   Cu8   1.976662 S    
C43   C63   1.399081 A    
C56   H44   1.082796 S    
C18   N18   1.473274 S    
C79   C83   1.406992 A    
O5    C1    1.292415 A    
N12   H108  1.045565 S    
O8    C4    1.292417 A    
N16   H116  1.045588 S    
O15   Cu4   1.980137 S    
C14   H14   1.106438 S    
C53   H41   1.082795 S    
C133  C137  1.407169 A    
N15   H114  1.045573 S    
C79   H55   1.082829 S    
N11   H106  1.045575 S    
C88   C92   1.397444 A    
O17   Cu5   1.950020 S    
C41   H33   1.083509 S    
C52   C56   1.407317 A    
N27   H130  1.045112 S    
C117  C121  1.416580 A    
C13   H9    1.111678 S    
C9    C13   1.538384 S    
C115  C124  1.395936 A    
O14   C6    1.285106 A    
C32   C36   1.613389 S    
N6    H95   1.045671 S    
C125  C128  1.205371 T    
C115  H67   1.083997 S    
N10   H104  1.045589 S    
C73   H49   1.083540 S    
O34   C105  1.303872 A    
C39   N27   1.471272 S    
C20   C36   1.580630 S    
C113  H65   1.083997 S    
O10   C6    1.285736 A    
C76   C80   1.397294 A    
C127  C139  1.438718 S    
C74   C94   1.398842 A    
C31   C35   1.613384 S    
C44   H36   1.083508 S    
C162  C165  1.403815 A    
O37   Cu9   1.944236 S    
Cu11  O47   1.949878 S    
O47   C112  1.305263 A    
O25   C99   1.280812 A    
C148  C150  1.404209 A    
C132  C140  1.399260 A    
C159  C168  1.407713 A    
C164  H84   1.083130 S    
O35   C106  1.303874 A    
C53   C57   1.396827 A    
C143  C152  1.407602 A    
C157  C161  1.403629 A    
O45   C111  1.305268 A    
C35   N23   1.483430 S    
C37   H25   1.112543 S    
C92   H64   1.083531 S    
O39   C109  1.304095 A    
C118  C121  1.416582 A    
C130  C134  1.398071 A    
C22   C26   1.560474 S    
C39   H27   1.112541 S    
N24   O55   1.301438 A    
C118  N6    1.438037 S    
C32   C40   1.569361 S    
N23   O53   1.301430 A    
N17   H118  1.044753 S    
C52   C110  1.479389 S    
C73   C93   1.398838 A    
O26   C100  1.280806 A    
C159  N15   1.438008 S    
C153  C156  1.202710 T    
N21   O50   1.302239 A    
C154  C155  1.202764 T    
O32   C104  1.291936 A    
C42   H34   1.083507 S    
C45   C49   1.407290 A    
C47   C51   1.407293 A    
C14   H10   1.111678 S    
C29   C37   1.569264 S    
C133  H73   1.082836 S    
O40   Cu12  1.944236 S    
C19   H31   1.115694 S    
C86   H58   1.082832 S    
C135  H75   1.082833 S    
N14   H112  1.045570 S    
N24   O56   1.302246 A    
C87   C91   1.397444 A    
C5    C25   1.484155 S    
C60   H48   1.083583 S    
C120  N8    1.438040 S    
C92   C96   1.398949 A    
C7    C27   1.484160 S    
N4    H91   1.041946 S    
C8    C28   1.484140 S    
Cu5   O29   1.949615 S    
C30   C38   1.569238 S    
C41   C61   1.399081 A    
N9    H102  1.045561 S    
C31   C101  1.495059 S    
O12   Cu2   1.979983 S    
C14   C30   1.565983 S    
C147  H79   1.083058 S    
C111  C149  1.478608 S    
C148  H80   1.083056 S    
O1    C1    1.292506 A    
C20   N20   1.473266 S    
C18   C26   1.560982 S    
C38   H26   1.112540 S    
O27   Cu8   1.983730 S    
C103  C165  1.477555 S    
C55   H43   1.082793 S    
O21   Cu5   1.976657 S    
O19   Cu7   1.950020 S    
C17   C33   1.580629 S    
N7    H97   1.045672 S    
C126  C127  1.205371 T    
C158  C167  1.407733 A    
C19   C35   1.580627 S    
C86   C90   1.397444 A    
O30   C103  1.291906 A    
C1    C81   1.478406 S    
C114  C118  1.405472 A    
O18   Cu6   1.950011 S    
N19   H122  1.044746 S    
C42   C62   1.399082 A    
C4    C84   1.478406 S    
N28   H132  1.045124 S    
C141  C151  1.407789 A    
O36   C106  1.303874 A    
C116  C124  1.395934 A    
C10   C26   1.550514 S    
C11   H3    1.111805 S    
C46   C50   1.407288 A    
C81   C85   1.406991 A    
C48   H40   1.082781 S    
O24   C102  1.291533 A    
C124  C126  1.439210 S    
N25   H125  1.046180 S    
C141  C145  1.404374 A    
C78   C82   1.406993 A    
C59   C63   1.398516 A    
C130  C139  1.399258 A    
C21   H17   1.112409 S    
C144  N12   1.438047 S    
O6    C2    1.292417 A    
N20   H124  1.044753 S    
C74   C78   1.397294 A    
C32   C102  1.495072 S    
C15   H15   1.106439 S    
N1    H85   1.041912 S    
O20   C98   1.292320 A    
O2    Cu1   1.947874 S    
O10   Cu1   1.979983 S    
N5    H93   1.045672 S    
O33   C105  1.303876 A    
N23   O54   1.302240 A    
O41   C107  1.305910 A    
N3    H89   1.041905 S    
C24   H20   1.112415 S    
N26   H128  1.045112 S    
C30   C34   1.613382 S    
C9    H5    1.113127 S    
C116  C120  1.405472 A    
C10   C14   1.538394 S    
O33   Cu9   1.950376 S    
C159  C163  1.403710 A    
C160  C164  1.403653 A    
C18   C34   1.580630 S    
N11   H105  1.045653 S    
C80   C84   1.406994 A    
C135  C138  1.407170 A    
C114  C123  1.395934 A    
C36   N4    1.482353 S    
Cu7   Cu8   2.657057 S    
O15   C7    1.285112 A    
N19   H121  1.045288 S    
C76   H52   1.083539 S    
C73   C77   1.397294 A    
N27   H129  1.046176 S    
O28   C102  1.280849 A    
C75   H51   1.083541 S    
C144  C152  1.407593 A    
C63   C67   1.436928 S    
N8    H100  1.045704 S    
C123  C125  1.439210 S    
O44   C110  1.305910 A    
N5    H94   1.045707 S    
O26   Cu5   1.983733 S    
C157  C167  1.407721 A    
C19   N19   1.473277 S    
C22   H18   1.112406 S    
C157  N13   1.438039 S    
N15   H113  1.045665 S    
C156  C168  1.440351 S    
C106  C122  1.481833 S    
C49   C53   1.407318 A    
C44   C64   1.399083 A    
O39   Cu11  1.944236 S    
O11   C7    1.285729 A    
C161  C165  1.403796 A    
O12   C8    1.285739 A    
O1    Cu1   1.947884 S    
O9    Cu1   1.979976 S    
C36   N24   1.483443 S    
C45   H37   1.082780 S    
C155  C167  1.440426 S    
O20   Cu8   1.950011 S    
O9    C5    1.285730 A    
C136  H76   1.082836 S    
N6    H96   1.045706 S    
C134  H74   1.082835 S    
O17   C97   1.292326 A    
O11   Cu2   1.979976 S    
C163  H83   1.083131 S    
O23   Cu7   1.976657 S    
O29   C103  1.291946 A    
O46   C111  1.305166 A    
C58   H46   1.083582 S    
C87   H59   1.082835 S    
C97   C137  1.479769 S    
C6    C26   1.484162 S    
O36   Cu12  1.950362 S    
C146  C149  1.404081 A    
O6    Cu3   1.949617 S    
C12   C16   1.538367 S    
C35   N3    1.482368 S    
N7    H98   1.045707 S    
C54   H42   1.082793 S    
C163  C166  1.403816 A    
Cu7   O31   1.949615 S    
C146  H78   1.083337 S    
C75   C95   1.398841 A    
C78   H54   1.082830 S    
C83   C87   1.406994 A    
O2    C2    1.292501 A    
O42   C108  1.305910 A    
N22   O51   1.301430 A    
O31   C104  1.291916 A    
C2    C82   1.478406 S    
C89   H61   1.083529 S    
O21   C99   1.291559 A    
O14   Cu3   1.980120 S    
C144  C148  1.403757 A    
C21   C37   1.550837 S    
O37   C107  1.304091 A    
C66   C70   1.204287 T    
Cu1   Cu3   2.657701 S    
C33   N1    1.482367 S    
N17   H117  1.045289 S    
C114  H66   1.083997 S    
Cu2   Cu4   2.657701 S    
C21   H21   1.113526 S    
C29   C99   1.495059 S    
N21   O49   1.301441 A    
C24   C40   1.550829 S    
N12   H107  1.045650 S    
C131  C135  1.398071 A    
O27   C101  1.280804 A    
C11   H7    1.113126 S    
C46   H38   1.082782 S    
C12   H8    1.113127 S    
N16   H115  1.045660 S    
O16   C8    1.285109 A    
C34   N2    1.482369 S    
C82   C86   1.406993 A    
C54   C58   1.396831 A    
C20   H32   1.115693 S    
C69   C93   1.436916 S    
O22   C100  1.291559 A    
N13   H110  1.045582 S    
C142  C146  1.396944 A    
C145  C149  1.404799 A    
C113  C123  1.395935 A    
C51   C55   1.407315 A    
C77   C81   1.406992 A    
C56   C60   1.396831 A    
C58   C62   1.398512 A    
C23   H23   1.113521 S    
C145  H77   1.083049 S    
