data_mof_unit_12947.cif
_audit_creation_date              2012-12-10T17:21:17-0500
_audit_creation_method            fapswitch 2.2
_symmetry_space_group_name_H-M    P1
_symmetry_Int_Tables_number       1
_space_group_crystal_system       triclinic
_cell_length_a                    9.643806
_cell_length_b                    10.903093
_cell_length_c                    13.86285
_cell_angle_alpha                 93.913556
_cell_angle_beta                  83.882707
_cell_angle_gamma                 88.80899
_cell_volume                      1445.3831958

loop_
_atom_site_label
_atom_site_type_symbol
_atom_type_description
_atom_site_fract_x
_atom_site_fract_y
_atom_site_fract_z
_atom_type_partial_charge
C1    C     C_R   0.497941 0.739051 0.502699 0.842257
C2    C     C_1   0.461442 0.500307 0.786274 -0.172093
C3    C     C_R   0.239506 0.899802 0.577606 -0.277405
C4    C     C_R   0.142164 0.964404 0.646802 0.482800
C5    C     C_R   0.175187 0.079823 0.685340 -0.130462
C6    C     C_R   0.289525 0.139587 0.642575 -0.268325
C7    C     C_R   0.385234 0.075899 0.572179 0.086673
C8    C     C_R   0.372506 0.948235 0.551700 -0.013489
C9    C     C_R   0.495268 0.876302 0.513397 -0.165464
C10   C     C_R   0.625969 0.935901 0.506457 0.352821
C11   C     C_R   0.630149 0.064385 0.523081 -0.101327
C12   C     C_R   0.476385 0.500162 0.682844 0.790211
C13   C     C_R   0.504236 0.133351 0.533469 -0.203034
C14   C     C_R   0.880575 0.349599 0.359546 -0.101095
C15   C     C_R   0.964390 0.279211 0.287915 -0.217191
C16   C     C_R   0.107570 0.278686 0.287582 -0.218412
C17   C     C_R   0.167699 0.348634 0.358816 -0.124646
C18   C     C_R   0.087032 0.428673 0.428876 0.146051
C19   C     C_R   0.937620 0.428768 0.429120 0.201268
C20   C     C_R   0.912781 0.565673 0.568597 -0.027158
C21   C     C_R   0.059329 0.565632 0.569779 0.404502
C22   C     C_R   0.500356 0.264533 0.511603 0.790344
C23   C     C_R   0.523751 0.499154 0.317066 0.811491
C24   C     C_1   0.540116 0.498522 0.213461 -0.166762
C25   C     C_2   0.567709 0.500222 0.021981 0.022600
C26   C     C_2   0.450446 0.504037 0.977376 -0.213033
C27   C     C_1   0.453627 0.501386 0.873358 -0.003047
C28   C     C_1   0.553596 0.498650 0.126277 -0.041816
Cu1   Cu    Cu3+1 0.359340 0.500010 0.500010 0.917490
Cu2   Cu    Cu3+1 0.640660 0.499990 0.499990 0.957401
H1    H     H_    0.348797 0.506439 0.019827 0.158667
H2    H     H_    0.772029 0.333241 0.361121 0.189748
H3    H     H_    0.917486 0.219921 0.235302 0.147880
H4    H     H_    0.172312 0.218877 0.234710 0.151467
H5    H     H_    0.276389 0.330464 0.359439 0.195667
H6    H     H_    0.206992 0.815381 0.544454 0.175384
H7    H     H_    0.104979 0.128020 0.742303 0.154029
H8    H     H_    0.307069 0.233354 0.668567 0.156562
H9    H     H_    0.847014 0.619537 0.624795 0.153069
N1    N     N_R   0.852210 0.498790 0.499090 -0.225726
N2    N     N_R   0.148080 0.498710 0.499060 -0.248637
O1    O     O_R   0.381190 0.680360 0.500010 -0.621852
O2    O     O_R   0.618760 0.680340 0.500000 -0.506960
O3    O     O_R   0.364420 0.499990 0.637850 -0.586987
O4    O     O_R   0.601990 0.499960 0.637840 -0.581322
O5    O     O_R   0.381240 0.319660 0.500000 -0.603485
O6    O     O_R   0.618810 0.319640 0.499990 -0.590469
O7    O     O_R   0.398010 0.500040 0.362160 -0.584908
O8    O     O_R   0.635580 0.500010 0.362150 -0.582768
O9    O     O_3   0.107273 0.631120 0.646948 -0.786976
H10   H     H_    0.204662 0.650737 0.628633 0.373521
C29   C     C_R   0.710409 0.497421 0.968857 0.152495
C30   C     C_R   0.809010 0.406614 0.985557 -0.140129
C31   C     C_R   0.943564 0.403965 0.936270 -0.168904
C32   C     C_R   0.981313 0.492582 0.870815 -0.113179
C33   C     C_R   0.884690 0.584281 0.854835 -0.121609
C34   C     C_R   0.750021 0.587083 0.903693 -0.150309
H11   H     H_    0.781324 0.337263 0.036019 0.126940
H12   H     H_    0.018615 0.333202 0.948858 0.136082
H13   H     H_    0.085448 0.490380 0.832717 0.163805
H14   H     H_    0.914191 0.653778 0.805038 0.186444
H15   H     H_    0.677205 0.659871 0.891413 0.139666
O10   O     O_3   0.748819 0.867737 0.484631 -0.717758
H16   H     H_    0.811223 0.891131 0.534690 0.327314
O11   O     O_3   0.014142 0.918253 0.677400 -0.740418
H17   H     H_    0.000384 0.841989 0.637019 0.332407
C35   C     C_R   0.758428 0.123535 0.551786 0.141350
C36   C     C_R   0.885609 0.111578 0.492191 -0.147063
C37   C     C_R   0.001235 0.174474 0.519689 -0.108809
C38   C     C_R   0.988318 0.255447 0.603119 -0.135188
C39   C     C_R   0.864017 0.264606 0.664430 -0.121492
C40   C     C_R   0.750532 0.196650 0.640264 -0.054985
H18   H     H_    0.894859 0.055441 0.424206 0.160364
H19   H     H_    0.100206 0.162699 0.475102 0.155078
H20   H     H_    0.076050 0.308808 0.621815 0.149441
H21   H     H_    0.855327 0.324618 0.730344 0.146739
H22   H     H_    0.654179 0.205225 0.688453 0.104663

loop_
_geom_bond_atom_site_label_1
_geom_bond_atom_site_label_2
_ccdc_geom_bond_type
C8    C9    A    
C32   C33   A    
C5    H7    S    
Cu1   O1    S    
Cu2   O4    S    
C10   O10   S    
C2    C12   S    
C7    C8    A    
C30   C31   A    
C25   C28   S    
C26   C27   S    
Cu1   Cu2   S    
C5    C6    A    
C35   C40   A    
C39   H21   S    
C20   N1    A    
C23   O8    A    
C15   C16   A    
C33   C34   A    
C18   C19   A    
C16   H4    S    
C36   C37   A    
C1    O2    A    
C16   C17   A    
C23   C24   S    
C6    H8    S    
C2    C27   T    
C9    C10   A    
C22   O6    A    
C26   H1    S    
C32   H13   S    
C21   O9    S    
C11   C35   S    
C17   C18   A    
C31   H12   S    
Cu1   O7    S    
C35   C36   A    
Cu2   O6    S    
C34   H15   S    
C1    C9    S    
C3    C8    A    
C19   N1    A    
C18   N2    A    
C20   H9    S    
C4    C5    A    
C25   C26   D    
C40   H22   S    
O9    H10   S    
Cu2   N1    S    
C37   H19   S    
C38   C39   A    
C21   N2    A    
C22   O5    A    
Cu2   O8    S    
Cu1   O3    S    
Cu2   O2    S    
C29   C34   A    
C29   C30   A    
C31   C32   A    
C23   O7    A    
Cu1   N2    S    
C33   H14   S    
C14   C19   A    
C24   C28   T    
C14   H2    S    
C12   O4    A    
C30   H11   S    
C6    C7    A    
Cu1   O5    S    
C36   H18   S    
C25   C29   S    
C39   C40   A    
C12   O3    A    
C11   C13   A    
C4    O11   S    
C3    H6    S    
C13   C22   S    
C37   C38   A    
C10   C11   A    
O10   H16   S    
C1    O1    A    
C7    C13   A    
C20   C21   A    
O11   H17   S    
C38   H20   S    
C14   C15   A    
C17   H5    S    
C15   H3    S    
C3    C4    A    
