data_mof_unit_31963.cif
_audit_creation_date              2012-12-10T17:34:22-0500
_audit_creation_method            fapswitch 2.2
_symmetry_space_group_name_H-M    P1
_symmetry_Int_Tables_number       1
_space_group_crystal_system       triclinic
_cell_length_a                    12.372737
_cell_length_b                    13.167417
_cell_length_c                    14.303956
_cell_angle_alpha                 77.471682
_cell_angle_beta                  100.140414
_cell_angle_gamma                 116.618431
_cell_volume                      2025.43405409

loop_
_atom_site_label
_atom_site_type_symbol
_atom_type_description
_atom_site_fract_x
_atom_site_fract_y
_atom_site_fract_z
_atom_type_partial_charge
C1    C     C_R   0.854668 0.286341 0.512425 0.791121
C2    C     C_1   0.000302 0.499886 0.229108 -0.188909
C3    C     C_R   0.278436 0.025226 0.385298 -0.000180
C4    C     C_R   0.225278 0.835988 0.477511 -0.188217
C5    C     C_R   0.809407 0.092755 0.603392 -0.267625
C6    C     C_R   0.727173 0.983914 0.638853 -0.237598
C7    C     C_R   0.604124 0.944619 0.607757 0.682789
C8    C     C_R   0.558904 0.014810 0.536624 -0.029260
C9    C     C_R   0.647303 0.122389 0.494794 -0.083644
C10   C     C_R   0.433231 0.981407 0.499476 -0.109475
C11   C     C_R   0.401563 0.056248 0.422214 -0.106625
C12   C     C_R   0.999618 0.499590 0.668607 0.815263
C13   C     C_R   0.493451 0.156022 0.378846 0.596074
C14   C     C_R   0.613016 0.185472 0.412562 -0.229994
C15   C     C_R   0.337043 0.875281 0.532014 0.629522
C16   C     C_R   0.193510 0.912363 0.408415 -0.341676
C17   C     C_R   0.770720 0.163783 0.532917 -0.073040
C18   C     C_R   0.324403 0.303737 0.637236 -0.207454
C19   C     C_R   0.754903 0.634591 0.366379 0.724421
C20   C     C_R   0.646090 0.630304 0.317250 -0.361087
C21   C     C_R   0.538244 0.558835 0.358730 0.572665
C22   C     C_R   0.540150 0.504926 0.455153 -0.114777
C23   C     C_R   0.144468 0.713323 0.489820 0.863609
C24   C     C_R   0.648893 0.495543 0.494989 0.031912
C25   C     C_R   0.436545 0.452969 0.510113 -0.102248
C26   C     C_R   0.431194 0.364555 0.588651 -0.106507
C27   C     C_R   0.535674 0.344561 0.619877 0.567786
C28   C     C_R   0.643217 0.412837 0.576737 -0.167538
C29   C     C_R   0.345091 0.494475 0.496432 0.079337
C30   C     C_R   0.233990 0.343579 0.617066 0.714504
C31   C     C_R   0.000129 0.500058 0.331440 0.788320
C32   C     C_1   0.999483 0.499676 0.770977 -0.142217
C33   C     C_1   0.999703 0.499715 0.856537 0.018736
C34   C     C_1   0.000105 0.499744 0.957335 0.022541
C35   C     C_1   0.000361 0.499784 0.042897 0.015097
C36   C     C_1   0.000435 0.499844 0.143623 -0.004912
Cu1   Cu    Cu3+1 0.098280 0.475420 0.520190 1.013213
Cu2   Cu    Cu3+1 0.901720 0.524580 0.479810 0.999561
H1    H     H_    0.102253 0.884221 0.372833 0.220189
H2    H     H_    0.644643 0.675845 0.244621 0.201048
H3    H     H_    0.719498 0.396062 0.608591 0.212357
H4    H     H_    0.903128 0.122504 0.633359 0.230578
H5    H     H_    0.759182 0.928997 0.692227 0.185190
H6    H     H_    0.679588 0.257839 0.370587 0.186740
N1    N     N_R   0.246290 0.438200 0.550780 -0.238605
N2    N     N_R   0.754310 0.561180 0.449760 -0.233902
O1    O     O_R   0.972510 0.318130 0.525390 -0.529312
O2    O     O_R   0.806530 0.359650 0.491290 -0.599274
O3    O     O_R   0.083010 0.479240 0.641000 -0.492958
O4    O     O_R   0.917030 0.520750 0.606900 -0.594510
O5    O     O_R   0.193470 0.640350 0.508710 -0.542736
O6    O     O_R   0.027490 0.681870 0.474610 -0.537649
O7    O     O_R   0.082970 0.479250 0.393100 -0.614202
O8    O     O_R   0.916990 0.520760 0.359000 -0.497681
F1    F     F_    0.539496 0.266615 0.698450 -0.664021
C37   C     C_R   0.300700 0.194871 0.704767 0.231006
C38   C     C_R   0.289515 0.097338 0.671539 -0.079260
C39   C     C_R   0.264557 0.993816 0.734575 -0.097826
C40   C     C_R   0.250432 0.986858 0.830917 -0.101621
C41   C     C_R   0.261008 0.083395 0.864371 -0.141726
C42   C     C_R   0.285758 0.187106 0.801549 -0.028413
H7    H     H_    0.299869 0.101483 0.596997 0.113255
H8    H     H_    0.255751 0.918882 0.708710 0.179028
H9    H     H_    0.231043 0.906603 0.879600 0.143972
H10   H     H_    0.249814 0.077805 0.938959 0.141216
H11   H     H_    0.293627 0.261313 0.828221 0.145540
C43   C     C_R   0.372919 0.612269 0.440800 0.178024
C44   C     C_R   0.316195 0.630818 0.348358 -0.007073
C45   C     C_R   0.354228 0.740669 0.293813 -0.156089
C46   C     C_R   0.455404 0.832275 0.327439 -0.129375
C47   C     C_R   0.518096 0.813767 0.415569 -0.148970
C48   C     C_R   0.474929 0.705855 0.473486 -0.100833
H12   H     H_    0.252143 0.559605 0.313234 0.162809
H13   H     H_    0.309564 0.753270 0.222979 0.143388
H14   H     H_    0.487987 0.916502 0.283670 0.152128
H15   H     H_    0.601602 0.882790 0.438086 0.140330
H16   H     H_    0.525879 0.692967 0.541118 0.180311
F2    F     F_    0.859118 0.699683 0.323381 -0.658313
F3    F     F_    0.433877 0.528590 0.300316 -0.675511
F4    F     F_    0.470058 0.222038 0.298128 -0.652148
C49   C     C_R   0.234375 0.108350 0.325055 0.202699
C50   C     C_R   0.246913 0.204041 0.362001 -0.074175
C51   C     C_R   0.201032 0.280229 0.307405 -0.049818
C52   C     C_R   0.143330 0.262119 0.215366 -0.093265
C53   C     C_R   0.130572 0.167185 0.178066 -0.128559
C54   C     C_R   0.175245 0.090022 0.232834 -0.106296
H17   H     H_    0.291028 0.218829 0.433325 0.109598
H18   H     H_    0.209678 0.352921 0.336663 0.156634
H19   H     H_    0.108133 0.321376 0.173101 0.138794
H20   H     H_    0.085557 0.153093 0.106866 0.142493
H21   H     H_    0.164235 0.016435 0.203400 0.133164
F5    F     F_    0.342569 0.812074 0.619304 -0.617484
F6    F     F_    0.536935 0.833788 0.642975 -0.622642
F7    F     F_    0.132199 0.286882 0.664350 -0.679733

loop_
_geom_bond_atom_site_label_1
_geom_bond_atom_site_label_2
_ccdc_geom_bond_type
C8    C9    A    
C5    H4    S    
C30   N1    A    
C19   C20   A    
C18   C26   A    
C12   O3    A    
C38   C39   A    
C19   N2    A    
C7    C8    A    
C53   C54   A    
C26   C27   A    
C48   H16   S    
C34   C35   T    
C10   C15   A    
C5    C6    A    
C20   H2    S    
C27   F1    S    
C5    C17   A    
C50   H17   S    
C28   H3    S    
C37   C38   A    
C43   C48   A    
C15   F5    S    
C29   C43   S    
C42   H11   S    
C35   C36   S    
C44   C45   A    
C22   C25   A    
C3    C49   S    
C46   C47   A    
C18   C30   A    
Cu1   O1    S    
Cu2   O2    S    
C49   C54   A    
C18   C37   S    
Cu1   O7    S    
C51   H18   S    
C13   F4    S    
C40   C41   A    
C21   C22   A    
C12   C32   S    
C49   C50   A    
C25   C29   A    
C7    F6    S    
C43   C44   A    
C38   H7    S    
C52   C53   A    
C4    C23   S    
C1    O1    A    
C44   H12   S    
C29   N1    A    
C41   C42   A    
C4    C16   A    
C19   F2    S    
C9    C14   A    
Cu1   Cu2   S    
Cu1   O3    S    
C23   O5    A    
C51   C52   A    
Cu2   O8    S    
C21   F3    S    
C33   C34   S    
C40   H9    S    
C45   H13   S    
C31   O7    A    
C9    C17   A    
C41   H10   S    
C6    H5    S    
C22   C24   A    
C39   C40   A    
C52   H19   S    
Cu1   N1    S    
C46   H14   S    
C14   H6    S    
C2    C36   T    
C39   H8    S    
C24   C28   A    
C12   O4    A    
C53   H20   S    
C1    O2    A    
C6    C7    A    
Cu2   O4    S    
C1    C17   S    
C54   H21   S    
C24   N2    A    
C32   C33   T    
C4    C15   A    
C25   C26   A    
C47   C48   A    
C30   F7    S    
C11   C13   A    
C23   O6    A    
C47   H15   S    
Cu1   O5    S    
C31   O8    A    
C45   C46   A    
Cu2   N2    S    
C3    C11   A    
C10   C11   A    
C16   H1    S    
Cu2   O6    S    
C20   C21   A    
C8    C10   A    
C50   C51   A    
C27   C28   A    
C37   C42   A    
C2    C31   S    
C13   C14   A    
C3    C16   A    
