data_mof_unit_37186.cif
_audit_creation_date              2012-12-10T18:44:24-0500
_audit_creation_method            fapswitch 2.2
_symmetry_space_group_name_H-M    P1
_symmetry_Int_Tables_number       1
_space_group_crystal_system       triclinic
_cell_length_a                    12.88628
_cell_length_b                    10.633975
_cell_length_c                    9.909296
_cell_angle_alpha                 90.144126
_cell_angle_beta                  96.687829
_cell_angle_gamma                 90.851619
_cell_volume                      1348.49319378

loop_
_atom_site_label
_atom_site_type_symbol
_atom_type_description
_atom_site_fract_x
_atom_site_fract_y
_atom_site_fract_z
_atom_type_partial_charge
C1    C     C_R   0.502111 0.260790 0.500507 0.879415
C2    C     C_R   0.497891 0.739084 0.499536 0.918086
C3    C     C_R   0.498895 0.871657 0.497815 -0.142326
C4    C     C_R   0.500979 0.128001 0.502458 -0.133795
C5    C     C_R   0.553079 0.590570 0.081294 -0.043148
C6    C     C_R   0.447768 0.408876 0.918702 -0.049359
C7    C     C_R   0.553146 0.591681 0.937824 0.024372
C8    C     C_R   0.445269 0.409446 0.061753 0.003224
C9    C     C_R   0.298341 0.493104 0.474468 0.910452
C10   C     C_R   0.701267 0.493681 0.525988 0.892289
C11   C     C_R   0.812861 0.480464 0.541810 -0.149100
C12   C     C_R   0.185933 0.479710 0.461853 -0.156027
C13   C     C_R   0.019646 0.493178 0.322442 0.168203
C14   C     C_R   0.977687 0.504993 0.683952 0.136612
C15   C     C_R   0.128174 0.503203 0.336596 -0.185552
C16   C     C_R   0.869533 0.515590 0.665277 -0.170450
C17   C     C_R   0.135066 0.451921 0.576915 -0.083356
C18   C     C_R   0.864103 0.438337 0.433100 -0.097952
C19   C     C_R   0.028402 0.471876 0.569289 0.073249
C20   C     C_R   0.970352 0.465350 0.439408 0.112908
C21   C     C_R   0.596342 0.065436 0.533765 -0.007645
C22   C     C_R   0.403319 0.934081 0.467890 -0.002724
C23   C     C_R   0.595401 0.934478 0.530648 -0.085271
C24   C     C_R   0.404520 0.065047 0.469675 -0.107336
H1    H     H_    0.829072 0.549701 0.747804 0.155087
H2    H     H_    0.167691 0.530616 0.250204 0.176942
H3    H     H_    0.596280 0.661727 0.143940 0.172042
H4    H     H_    0.406210 0.336716 0.855913 0.183380
N1    N     N_R   0.499970 0.499970 0.857200 -0.145631
N2    N     N_R   0.500030 0.500030 0.142800 -0.145694
O1    O     O_R   0.499990 0.316750 0.614620 -0.576399
O2    O     O_R   0.500010 0.683250 0.385380 -0.580353
O3    O     O_R   0.499990 0.316780 0.385290 -0.665211
O4    O     O_R   0.500010 0.683220 0.614710 -0.645378
O5    O     O_R   0.346360 0.499970 0.595710 -0.656903
O6    O     O_R   0.653640 0.500030 0.404290 -0.663678
O7    O     O_R   0.346360 0.499990 0.366380 -0.617407
O8    O     O_R   0.653640 0.500010 0.633620 -0.613413
Zn1   Zn    Zn3+2 0.500000 0.499980 0.653120 0.969388
Zn2   Zn    Zn3+2 0.500000 0.500020 0.346880 0.954191
C25   C     C_2   0.814826 0.342762 0.333607 0.394521
H5    H     H_    0.731626 0.323378 0.321813 0.105009
O9    O     O_2   0.868639 0.276105 0.270163 -0.543689
C26   C     C_2   0.187488 0.383703 0.695434 0.412522
H6    H     H_    0.243758 0.431406 0.768513 0.080555
O10   O     O_2   0.164358 0.273984 0.714457 -0.527759
C27   C     C_3   0.960122 0.538531 0.190935 -0.419626
C28   C     C_3   0.908202 0.665014 0.212091 -0.406441
C29   C     C_3   0.860023 0.719798 0.077628 -0.763151
H7    H     H_    0.921986 0.748227 0.014462 0.265588
H8    H     H_    0.807232 0.649308 0.021237 0.240380
H9    H     H_    0.814483 0.804303 0.097492 0.293382
H10   H     H_    0.845534 0.652346 0.279146 0.229116
H11   H     H_    0.967063 0.733267 0.261484 0.254065
H12   H     H_    0.015221 0.551291 0.114187 0.197466
H13   H     H_    0.901081 0.468834 0.147032 0.245760
C30   C     C_3   0.034458 0.546523 0.820324 -0.443496
C31   C     C_3   0.101554 0.666009 0.808687 -0.394405
C32   C     C_3   0.165858 0.698801 0.943813 -0.771847
H14   H     H_    0.113943 0.719789 0.022519 0.267110
H15   H     H_    0.217599 0.619685 0.978471 0.246228
H16   H     H_    0.215358 0.783291 0.930927 0.279600
H17   H     H_    0.156354 0.654182 0.731407 0.226666
H18   H     H_    0.049813 0.745914 0.776675 0.256408
H19   H     H_    0.976431 0.568284 0.890723 0.201764
H20   H     H_    0.080852 0.468965 0.869678 0.222146
C33   C     C_2   0.697194 0.136030 0.562322 0.457256
H21   H     H_    0.764786 0.107084 0.514818 0.104135
O11   O     O_2   0.706691 0.223284 0.643186 -0.541110
C34   C     C_2   0.301909 0.863605 0.443464 0.460727
H22   H     H_    0.234510 0.896259 0.488980 0.095353
O12   O     O_2   0.291715 0.771825 0.368725 -0.569614
C35   C     C_2   0.693364 0.861140 0.563385 0.369305
H23   H     H_    0.702036 0.771248 0.514285 0.038646
O13   O     O_2   0.763318 0.897685 0.648843 -0.539631
C36   C     C_2   0.306654 0.138094 0.436367 0.415563
H24   H     H_    0.297511 0.227399 0.486104 0.056873
O14   O     O_2   0.237329 0.101734 0.349942 -0.520839
C37   C     C_2   0.612985 0.692162 0.877952 0.411279
H25   H     H_    0.649054 0.675584 0.786866 0.121691
O15   O     O_2   0.624140 0.795684 0.931751 -0.552087
C38   C     C_2   0.379600 0.313160 0.119833 0.443174
H26   H     H_    0.351874 0.326903 0.216901 0.125322
O16   O     O_2   0.353186 0.216573 0.057310 -0.529650

loop_
_geom_bond_atom_site_label_1
_geom_bond_atom_site_label_2
_ccdc_geom_bond_type
C11   C18   A    
C7    N1    A    
C25   O9    D    
C35   H23   S    
C3    C23   A    
C19   C20   A    
C30   H20   S    
C1    O3    A    
C28   H11   S    
C8    C38   S    
C7    C37   S    
C36   O14   D    
O7    Zn2   S    
O8    Zn1   S    
C4    C24   A    
C1    O1    A    
C2    O2    A    
C25   H5    S    
C5    H3    S    
C13   C27   S    
C6    H4    S    
C29   H8    S    
C12   C17   A    
C34   H22   S    
C18   C20   A    
C2    O4    A    
C32   H14   S    
C21   C33   S    
C35   O13   D    
C23   C35   S    
C26   O10   D    
C5    C7    A    
C31   H18   S    
C28   H10   S    
C32   H15   S    
O3    Zn2   S    
C33   H21   S    
O6    Zn2   S    
C36   H24   S    
C18   C25   S    
C37   O15   D    
C24   C36   S    
C15   H2    S    
C6    C8    A    
C31   C32   S    
O4    Zn1   S    
C33   O11   D    
O5    Zn1   S    
C16   H1    S    
C27   C28   S    
C12   C15   A    
C29   H9    S    
N1    Zn1   S    
C9    O7    A    
N2    Zn2   S    
C28   C29   S    
C38   H26   S    
C38   O16   D    
C13   C15   A    
C14   C16   A    
C26   H6    S    
C27   H12   S    
C5    N2    A    
C31   H17   S    
C14   C30   S    
C32   H16   S    
C13   C20   A    
C14   C19   A    
C30   H19   S    
C10   O6    A    
C10   O8    A    
C1    C4    S    
C8    N2    A    
C21   C23   A    
C2    C3    S    
C17   C26   S    
C4    C21   A    
C30   C31   S    
C17   C19   A    
O1    Zn1   S    
C22   C24   A    
O2    Zn2   S    
C9    C12   S    
C11   C16   A    
C10   C11   S    
C37   H25   S    
C6    N1    A    
C29   H7    S    
C9    O5    A    
C3    C22   A    
C34   O12   D    
C22   C34   S    
C27   H13   S    
