data_mof_unit_52908.cif
_audit_creation_date              2012-12-11T15:56:58-0500
_audit_creation_method            fapswitch 2.2
_symmetry_space_group_name_H-M    P1
_symmetry_Int_Tables_number       1
_space_group_crystal_system       triclinic
_cell_length_a                    17.606367
_cell_length_b                    24.331243
_cell_length_c                    15.263153
_cell_angle_alpha                 89.673518
_cell_angle_beta                  126.588466
_cell_angle_gamma                 90.397599
_cell_volume                      5249.87251915

loop_
_atom_site_label
_atom_site_type_symbol
_atom_type_description
_atom_site_fract_x
_atom_site_fract_y
_atom_site_fract_z
_atom_type_partial_charge
C1    C     C_R   0.357029 0.153592 0.908279 -0.179608
C2    C     C_R   0.554921 0.154161 0.912206 -0.057097
C3    C     C_R   0.809480 0.366981 0.998729 -0.078718
C4    C     C_R   0.548893 0.000600 0.357867 -0.120712
C5    C     C_R   0.065638 0.500045 0.366922 -0.113133
C6    C     C_R   0.172492 0.999195 0.702449 -0.135444
C7    C     C_R   0.690537 0.500822 0.636955 -0.118694
C8    C     C_R   0.454996 0.047233 0.700133 -0.003486
C9    C     C_R   0.445022 0.956186 0.692664 -0.058150
C10   C     C_R   0.958454 0.546621 0.700980 -0.024163
C11   C     C_R   0.947401 0.455300 0.694278 -0.099587
C12   C     C_R   0.754876 0.954626 0.306405 -0.108091
C13   C     C_R   0.095116 0.370135 0.911556 -0.117522
C14   C     C_R   0.755841 0.045762 0.305154 -0.080241
C15   C     C_R   0.270217 0.454727 0.253146 -0.145852
C16   C     C_R   0.268547 0.546482 0.246160 -0.054312
C17   C     C_2   0.670892 0.054608 0.565769 0.561307
C18   C     C_2   0.396431 0.916000 0.324904 0.481860
C19   C     C_2   0.184097 0.554815 0.576248 0.550890
C20   C     C_2   0.910367 0.416320 0.331777 0.457948
C21   C     C_2   0.350100 0.090575 0.449606 0.952849
C22   C     C_2   0.286686 0.001447 0.364734 1.068956
C23   C     C_2   0.861505 0.589206 0.454792 0.903034
C24   C     C_R   0.048987 0.655398 0.912608 0.000809
C25   C     C_2   0.799313 0.502821 0.360386 1.089460
C26   C     C_2   0.575291 0.101966 0.340853 0.976672
C27   C     C_2   0.611570 0.907300 0.362407 0.890925
C28   C     C_2   0.105496 0.597075 0.351873 0.977108
C29   C     C_2   0.119001 0.406118 0.358708 0.903587
C30   C     C_2   0.198688 0.903226 0.658272 0.373333
C31   C     C_2   0.195808 0.100523 0.684854 0.470473
C32   C     C_2   0.722817 0.398646 0.649044 0.508641
C33   C     C_2   0.738155 0.600081 0.647132 0.445573
C34   C     C_2   0.445490 0.106148 0.676596 0.436024
C35   C     C_R   0.435475 0.002715 0.632711 -0.061253
C36   C     C_2   0.384501 0.907772 0.638465 0.570049
C37   C     C_2   0.972348 0.604853 0.688396 0.438748
C38   C     C_2   0.899784 0.401610 0.650262 0.516365
C39   C     C_2   0.711096 0.168973 0.206618 0.908182
C40   C     C_2   0.720874 0.833471 0.206678 0.916912
C41   C     C_2   0.154313 0.675739 0.191757 0.984222
C42   C     C_2   0.205854 0.324140 0.187298 0.964285
C43   C     C_R   0.941935 0.501457 0.634639 0.050764
C44   C     C_R   0.800109 0.000399 0.366867 0.008280
C45   C     C_R   0.324002 0.500852 0.273706 -0.015057
C46   C     C_R   0.619731 0.184718 0.002771 -0.123600
C47   C     C_R   0.629788 0.819169 0.001827 -0.124129
C48   C     C_R   0.104981 0.687900 0.003064 -0.095139
C49   C     C_R   0.312679 0.870518 0.910021 -0.106266
C50   C     C_R   0.174797 0.347116 0.003793 -0.082497
C51   C     C_3   0.003714 0.951274 0.597466 -0.176644
C52   C     C_3   0.001319 0.040535 0.616165 -0.166625
C53   C     C_3   0.522168 0.458568 0.507995 -0.177112
C54   C     C_3   0.526511 0.548587 0.501650 -0.163381
C55   C     C_3   0.931068 0.992436 0.584577 -0.095312
C56   C     C_3   0.451859 0.505255 0.474747 -0.076281
C57   C     C_3   0.893606 0.000718 0.465922 0.185232
C58   C     C_3   0.424003 0.501900 0.358733 0.172891
C59   C     C_3   0.964155 0.959522 0.477131 -0.179599
C60   C     C_R   0.807186 0.620884 0.906428 -0.065002
C61   C     C_3   0.961351 0.048861 0.495536 -0.140705
C62   C     C_3   0.493538 0.455063 0.390926 -0.164750
C63   C     C_3   0.497376 0.545553 0.384188 -0.160183
C64   C     C_3   0.032107 0.007606 0.506543 -0.132353
C65   C     C_3   0.569538 0.498637 0.418527 -0.115658
C66   C     C_R   0.403838 0.873574 0.091809 0.004074
C67   C     C_R   0.448154 0.154268 0.088388 -0.088042
C68   C     C_R   0.899981 0.378434 0.090672 0.010252
C69   C     C_R   0.898899 0.620994 0.089112 -0.088543
C70   C     C_3   0.071289 0.999351 0.625594 0.155670
C71   C     C_R   0.806233 0.381001 0.908892 -0.064789
C72   C     C_3   0.596668 0.501793 0.534033 0.148195
C73   C     C_3   0.258934 0.819545 0.104571 -0.380570
C74   C     C_3   0.261013 0.205004 0.005340 -0.375967
C75   C     C_3   0.732113 0.330396 0.081079 -0.353415
C76   C     C_3   0.730496 0.670880 0.075000 -0.386382
C77   C     C_3   0.677830 0.280615 0.081578 -0.402459
C78   C     C_3   0.684035 0.722937 0.080293 -0.359249
C79   C     C_3   0.202119 0.772152 0.106451 -0.401202
C80   C     C_3   0.208424 0.249073 0.018948 -0.390111
C81   C     C_3   0.811044 0.268678 0.024065 -0.374887
C82   C     C_R   0.652783 0.151427 0.092445 -0.020929
C83   C     C_3   0.820106 0.732270 0.029646 -0.350509
C84   C     C_3   0.294869 0.759453 0.998935 -0.392197
C85   C     C_3   0.400280 0.271440 0.093241 -0.390018
C86   C     C_3   0.150348 0.820711 0.900348 -0.396932
C87   C     C_3   0.284385 0.265690 0.888610 -0.404246
C88   C     C_3   0.655166 0.314165 0.882641 -0.405512
C89   C     C_3   0.661998 0.690829 0.879962 -0.411358
C90   C     C_3   0.255731 0.815780 0.001058 0.368527
C91   C     C_3   0.336226 0.231718 0.995921 0.375444
C92   C     C_3   0.751948 0.321699 0.996188 0.349735
C93   C     C_R   0.657891 0.850529 0.092263 -0.008489
C94   C     C_3   0.755675 0.680506 0.994832 0.350020
C95   C     C_3   0.663471 0.236290 0.999655 0.359140
C96   C     C_3   0.672399 0.767425 0.999104 0.341697
C97   C     C_3   0.156666 0.736182 0.002643 0.354523
C98   C     C_3   0.234285 0.306596 0.999717 0.381733
C99   C     C_3   0.759783 0.219155 0.026900 -0.376661
C100  C     C_3   0.769997 0.783201 0.028327 -0.412231
C101  C     C_3   0.236344 0.712949 0.998558 -0.368252
C102  C     C_3   0.340962 0.319612 0.086271 -0.402677
C103  C     C_3   0.603672 0.263366 0.884311 -0.376524
C104  C     C_R   0.139989 0.654433 0.092745 -0.124550
C105  C     C_3   0.612159 0.741307 0.883034 -0.357015
C106  C     C_3   0.091724 0.773863 0.901798 -0.375660
C107  C     C_3   0.217004 0.306267 0.886668 -0.392648
C108  C     C_3   0.556056 0.027022 0.607581 -0.352638
C109  C     C_3   0.459215 0.941057 0.517087 -0.480168
C110  C     C_3   0.066594 0.526241 0.614062 -0.378007
C111  C     C_3   0.972664 0.440403 0.523582 -0.485716
C112  C     C_R   0.538059 0.046519 0.296909 -0.094956
C113  C     C_R   0.550129 0.955269 0.304631 -0.004736
C114  C     C_R   0.051406 0.545802 0.304143 -0.132292
C115  C     C_R   0.175823 0.360439 0.093694 -0.095024
C116  C     C_R   0.058529 0.455096 0.307721 -0.006417
C117  C     C_3   0.599190 0.012558 0.548513 -0.297356
C118  C     C_3   0.479963 0.939723 0.432431 -0.192351
C119  C     C_3   0.112527 0.512205 0.557390 -0.275745
C120  C     C_3   0.994027 0.439762 0.439485 -0.195104
C121  C     C_3   0.380002 0.033656 0.437602 -0.255894
C122  C     C_3   0.892842 0.533407 0.441226 -0.227945
C123  C     C_3   0.454167 0.001779 0.548562 0.184292
C124  C     C_3   0.964435 0.500677 0.552876 0.177043
C125  C     C_3   0.515633 0.998370 0.427833 0.269202
C126  C     C_R   0.562232 0.848848 0.910928 -0.103988
C127  C     C_3   0.030697 0.498389 0.435912 0.276101
C128  C     C_3   0.431127 0.039809 0.382164 -0.434728
C129  C     C_3   0.947551 0.540929 0.390111 -0.446574
C130  C     C_R   0.228438 0.953691 0.725784 -0.005200
C131  C     C_R   0.228444 0.045882 0.735290 0.002978
C132  C     C_R   0.739618 0.454537 0.695719 -0.048646
C133  C     C_R   0.742577 0.546260 0.695366 -0.022430
C134  C     C_R   0.390328 0.186105 0.997277 -0.030893
C135  C     C_R   0.316109 0.857932 0.000733 -0.068089
C136  C     C_R   0.809888 0.634322 0.996105 -0.053062
H1    H     H_    0.323911 0.168546 0.826857 0.146589
H2    H     H_    0.943296 0.089139 0.453119 0.160523
H3    H     H_    0.700522 0.449470 0.336230 0.319604
H4    H     H_    0.551331 0.178654 0.368546 0.350824
H5    H     H_    0.723126 0.875576 0.504237 0.334003
H6    H     H_    0.110779 0.674317 0.402356 0.352446
H7    H     H_    0.230025 0.370428 0.495499 0.332520
H8    H     H_    0.125953 0.896687 0.589420 0.057164
H9    H     H_    0.135217 0.119398 0.673959 0.007417
H10   H     H_    0.663464 0.390817 0.565181 0.060374
H11   H     H_    0.682323 0.608687 0.562076 0.069601
H12   H     H_    0.380986 0.126978 0.650470 0.117896
H13   H     H_    0.477597 0.416962 0.342985 0.136391
H14   H     H_    0.309286 0.913553 0.577418 0.099122
H15   H     H_    0.912713 0.632500 0.644872 0.108903
H16   H     H_    0.924204 0.365671 0.701887 0.051006
H17   H     H_    0.715742 0.203099 0.329616 0.350499
H18   H     H_    0.854833 0.826500 0.342625 0.323551
H19   H     H_    0.101309 0.721003 0.253954 0.330063
H20   H     H_    0.310943 0.287522 0.327244 0.341768
H21   H     H_    0.484432 0.580932 0.330713 0.132812
H22   H     H_    0.075509 0.013632 0.476386 0.159794
H23   H     H_    0.620552 0.496625 0.398773 0.175049
H24   H     H_    0.332601 0.816290 0.179683 0.151064
H25   H     H_    0.294069 0.176322 0.076205 0.186560
H26   H     H_    0.799690 0.334773 0.163553 0.161706
H27   H     H_    0.794718 0.660987 0.158180 0.180773
H28   H     H_    0.229798 0.859592 0.106407 0.204009
H29   H     H_    0.259178 0.856260 0.830106 0.149122
H30   H     H_    0.209676 0.180490 0.930787 0.163093
H31   H     H_    0.690728 0.368651 0.062561 0.185493
H32   H     H_    0.681203 0.635306 0.047625 0.182258
H33   H     H_    0.146724 0.788638 0.112658 0.187673
H34   H     H_    0.130839 0.241539 0.960708 0.169878
H35   H     H_    0.608001 0.293881 0.059386 0.160844
H36   H     H_    0.614052 0.712567 0.061369 0.173854
H37   H     H_    0.719421 0.265406 0.166274 0.187962
H38   H     H_    0.730789 0.737216 0.165569 0.191657
H39   H     H_    0.252595 0.747648 0.180702 0.179053
H40   H     H_    0.748311 0.625520 0.822122 0.121112
H41   H     H_    0.228469 0.244942 0.102461 0.192196
H42   H     H_    0.881207 0.272173 0.104999 0.182773
H43   H     H_    0.886661 0.727104 0.113517 0.196857
H44   H     H_    0.369967 0.755055 0.071514 0.174288
H45   H     H_    0.431532 0.249889 0.172188 0.188527
H46   H     H_    0.805458 0.199936 0.108973 0.204895
H47   H     H_    0.815004 0.803293 0.109453 0.210665
H48   H     H_    0.283601 0.685620 0.069944 0.160003
H49   H     H_    0.359672 0.327663 0.167967 0.212597
H50   H     H_    0.142531 0.817935 0.822755 0.156955
H51   H     H_    0.743890 0.379933 0.826564 0.126686
H52   H     H_    0.336780 0.288217 0.883348 0.162294
H53   H     H_    0.665008 0.307467 0.818025 0.177361
H54   H     H_    0.676072 0.699284 0.819164 0.166792
H55   H     H_    0.432372 0.867208 0.175801 0.134971
H56   H     H_    0.493947 0.169217 0.170256 0.172913
H57   H     H_    0.928541 0.369591 0.174248 0.128501
H58   H     H_    0.925459 0.628142 0.172348 0.147406
H59   H     H_    0.121569 0.861189 0.900869 0.167878
H60   H     H_    0.241275 0.239273 0.815166 0.160520
H61   H     H_    0.610841 0.351440 0.860614 0.160307
H62   H     H_    0.023089 0.911645 0.642290 0.112800
H63   H     H_    0.614862 0.654165 0.852066 0.167279
H64   H     H_    0.034588 0.791216 0.903990 0.165014
H65   H     H_    0.143118 0.293109 0.821472 0.159705
H66   H     H_    0.532991 0.275379 0.861186 0.151615
H67   H     H_    0.541046 0.729386 0.859343 0.177269
H68   H     H_    0.592423 0.234041 0.821827 0.204055
H69   H     H_    0.602233 0.771006 0.821304 0.172351
H70   H     H_    0.057552 0.750412 0.824609 0.173397
H71   H     H_    0.227831 0.348042 0.865608 0.155684
H72   H     H_    0.824569 0.261811 0.962358 0.189213
H73   H     H_    0.018528 0.073014 0.676264 0.120079
H74   H     H_    0.840505 0.738679 0.973834 0.177336
H75   H     H_    0.293242 0.756023 0.925086 0.181563
H76   H     H_    0.459377 0.287187 0.092460 0.161079
H77   H     H_    0.749130 0.188042 0.967146 0.187361
H78   H     H_    0.761529 0.813152 0.967607 0.171532
H79   H     H_    0.205696 0.687760 0.923742 0.210086
H80   H     H_    0.360022 0.357688 0.062509 0.160124
H81   H     H_    0.550691 0.072007 0.608286 0.272145
H82   H     H_    0.392789 0.918151 0.484100 0.175033
H83   H     H_    0.059955 0.571206 0.612142 0.264680
H84   H     H_    0.531644 0.423410 0.560304 0.111877
H85   H     H_    0.908353 0.416116 0.490265 0.230663
H86   H     H_    0.605068 0.012722 0.693817 0.169275
H87   H     H_    0.516703 0.918588 0.591429 0.199500
H88   H     H_    0.114298 0.512563 0.700789 0.172232
H89   H     H_    0.030377 0.418649 0.598939 0.152819
H90   H     H_    0.642323 0.974848 0.588361 0.153679
H91   H     H_    0.537403 0.909371 0.463967 0.122250
H92   H     H_    0.155799 0.474580 0.597695 0.143151
H93   H     H_    0.051456 0.409398 0.470627 0.123053
H94   H     H_    0.463655 0.080616 0.401148 0.247540
H95   H     H_    0.539883 0.586617 0.548803 0.117268
H96   H     H_    0.380728 0.038676 0.291784 0.236188
H97   H     H_    0.980797 0.582028 0.410048 0.245884
H98   H     H_    0.898853 0.540424 0.299576 0.226876
H99   H     H_    0.766662 0.913544 0.338372 0.148341
H100  H     H_    0.769334 0.087011 0.335584 0.174658
H101  H     H_    0.296426 0.413773 0.279183 0.150425
H102  H     H_    0.291454 0.588607 0.257224 0.150505
H103  H     H_    0.517478 0.834070 0.829177 0.187944
H104  H     H_    0.502752 0.171244 0.833058 0.122426
H105  H     H_    0.072069 0.367167 0.828943 0.070451
H106  H     H_    0.947966 0.926182 0.418871 0.157654
H107  H     H_    0.997304 0.671167 0.831845 0.131697
H108  H     H_    0.886129 0.986409 0.612623 0.128537
H109  H     H_    0.401601 0.507996 0.495953 0.139526
H110  H     H_    0.719277 0.043176 0.547070 0.042837
H111  H     H_    0.368969 0.876047 0.325358 0.018429
H112  H     H_    0.234755 0.543587 0.560939 0.048500
H113  H     H_    0.886610 0.375065 0.331506 0.017412
H114  H     H_    0.371364 0.172866 0.464709 0.342491
H115  H     H_    0.184081 0.957858 0.355461 0.324635
H116  H     H_    0.874994 0.671986 0.463118 0.338157
N1    N     N_R   0.392450 0.103580 0.942190 -0.044193
N2    N     N_R   0.525490 0.971610 0.207550 -0.064759
N3    N     N_R   0.025490 0.528390 0.207550 -0.074383
N4    N     N_R   0.025490 0.471610 0.207550 -0.062276
N5    N     N_R   0.317450 0.971190 0.792000 -0.056859
N6    N     N_R   0.317450 0.028810 0.792000 -0.062353
N7    N     N_R   0.817450 0.471190 0.792000 -0.060976
N8    N     N_R   0.817450 0.528810 0.792000 -0.055664
N9    N     N_R   0.473900 0.028390 0.792280 -0.076817
N10   N     N_R   0.473900 0.971610 0.792280 -0.070288
N11   N     N_R   0.973900 0.528390 0.792280 -0.062577
N12   N     N_R   0.392450 0.896420 0.942190 -0.036034
N13   N     N_R   0.973900 0.471610 0.792280 -0.085445
N14   N     N_R   0.682310 0.971180 0.208170 -0.061151
N15   N     N_R   0.682310 0.028820 0.208170 -0.061496
N16   N     N_R   0.182310 0.471180 0.208170 -0.056724
N17   N     N_R   0.182310 0.528820 0.208170 -0.047054
N18   N     N_R   0.606470 0.103570 0.057210 -0.073753
N19   N     N_R   0.606470 0.896430 0.057210 -0.073674
N20   N     N_R   0.106470 0.603570 0.057210 -0.083917
N21   N     N_R   0.106470 0.396430 0.057210 -0.054817
N22   N     N_R   0.549740 0.896000 0.943240 -0.048641
N23   N     N_R   0.892450 0.603580 0.942190 -0.029160
N24   N     N_R   0.549740 0.104000 0.943240 -0.054295
N25   N     N_R   0.049740 0.396000 0.943240 -0.045470
N26   N     N_R   0.049740 0.604000 0.943240 -0.049199
N27   N     N_R   0.892450 0.396420 0.942190 -0.033942
N28   N     N_R   0.450490 0.896000 0.057360 -0.045633
N29   N     N_R   0.450490 0.104000 0.057360 -0.048213
N30   N     N_R   0.950490 0.396000 0.057360 -0.037653
N31   N     N_R   0.950490 0.604000 0.057360 -0.047326
N32   N     N_R   0.525490 0.028390 0.207550 -0.070510
Ni1   Ni    Ni4+2 0.433780 0.065390 0.868430 0.233032
Ni2   Ni    Ni4+2 0.433780 0.934610 0.868430 0.275653
Ni3   Ni    Ni4+2 0.933780 0.565390 0.868430 0.265777
Ni4   Ni    Ni4+2 0.933780 0.434610 0.868430 0.262108
Ni5   Ni    Ni4+2 0.565800 0.934190 0.131570 0.276866
Ni6   Ni    Ni4+2 0.565800 0.065810 0.131570 0.251014
Ni7   Ni    Ni4+2 0.065800 0.434190 0.131570 0.289969
Ni8   Ni    Ni4+2 0.065800 0.565810 0.131570 0.264589
O1    O     O_2   0.677524 0.100390 0.602273 -0.530464
O2    O     O_R   0.904172 0.638223 0.455692 -0.771099
O3    O     O_2   0.751569 0.513864 0.262918 -0.629848
O4    O     O_R   0.762201 0.467093 0.397832 -0.778175
O5    O     O_2   0.658397 0.112173 0.383352 -0.648895
O6    O     O_R   0.516529 0.142757 0.334182 -0.808109
O7    O     O_2   0.600618 0.865458 0.312554 -0.617738
O8    O     O_R   0.684819 0.910632 0.474131 -0.843129
O9    O     O_2   0.187871 0.598806 0.384510 -0.611590
O10   O     O_R   0.064597 0.642653 0.363770 -0.801134
O11   O     O_2   0.106205 0.366347 0.303116 -0.618456
O12   O     O_2   0.359599 0.940103 0.238194 -0.578728
O13   O     O_R   0.193054 0.406033 0.470382 -0.833231
O14   O     O_2   0.256117 0.868318 0.677357 -0.585172
O15   O     O_2   0.234274 0.124028 0.650070 -0.595984
O16   O     O_2   0.776790 0.360877 0.701908 -0.603421
O17   O     O_2   0.798874 0.634971 0.701141 -0.630282
O18   O     O_2   0.511466 0.132833 0.692211 -0.591076
O19   O     O_2   0.417981 0.862231 0.651627 -0.610854
O20   O     O_2   0.052003 0.623505 0.733498 -0.600844
O21   O     O_2   0.826237 0.397532 0.558630 -0.556210
O22   O     O_2   0.797295 0.167604 0.260105 -0.670182
O23   O     O_2   0.188107 0.600842 0.610379 -0.532025
O24   O     O_R   0.668053 0.190223 0.251698 -0.811317
O25   O     O_2   0.688284 0.810200 0.248642 -0.594337
O26   O     O_R   0.818441 0.841276 0.265367 -0.836580
O27   O     O_2   0.230485 0.670365 0.280767 -0.630493
O28   O     O_R   0.081916 0.705492 0.181820 -0.817440
O29   O     O_2   0.145234 0.302125 0.190963 -0.574230
O30   O     O_R   0.301277 0.313526 0.269271 -0.851240
O31   O     O_2   0.869150 0.442114 0.246375 -0.585173
O32   O     O_2   0.280370 0.095173 0.448803 -0.613800
O33   O     O_R   0.399891 0.138165 0.459284 -0.750755
O34   O     O_2   0.242322 0.001551 0.265401 -0.606260
O35   O     O_R   0.246790 0.976504 0.411427 -0.831863
O36   O     O_2   0.796082 0.591432 0.462398 -0.666991

loop_
_geom_bond_atom_site_label_1
_geom_bond_atom_site_label_2
_ccdc_geom_bond_type
C63   C65   S    
C60   N23   A    
C87   C91   S    
C12   H99   S    
C80   H34   S    
C40   C93   S    
N23   Ni3   S    
C16   N17   A    
H18   O26   S    
C73   H24   S    
C100  H78   S    
C4    C125  S    
C75   H26   S    
C81   H42   S    
C7    C133  A    
C52   C61   S    
C21   O32   D    
C95   C99   S    
C57   C59   S    
H19   O28   S    
C89   C94   S    
C84   H44   S    
C99   H46   S    
C109  H82   S    
C33   H11   S    
N13   Ni4   S    
C76   C94   S    
C34   H12   S    
H5    O8    S    
C31   O15   D    
C119  H92   S    
C68   H57   S    
C18   C118  S    
C107  H71   S    
C53   H84   S    
N32   Ni6   S    
C128  H96   S    
N1    N29   A    
C109  C118  S    
C23   C122  S    
N9    Ni1   S    
N24   Ni1   S    
C88   H53   S    
N25   Ni4   S    
N11   Ni3   S    
C55   H108  S    
C111  H89   S    
C27   O7    D    
C4    C113  A    
C121  C128  S    
C15   N16   A    
C86   C90   S    
C99   H77   S    
C98   C102  S    
C22   O34   D    
C3    C92   S    
C8    C35   A    
C88   H61   S    
C114  N3    A    
H17   O24   S    
N18   N24   A    
C115  N21   A    
C44   C57   S    
C77   H35   S    
C78   H36   S    
C47   C93   A    
C7    C132  A    
C101  H48   S    
C108  H81   S    
H115  O35   S    
C83   C100  S    
C59   H106  S    
C60   H40   S    
C20   C120  S    
C47   C126  A    
C116  N4    A    
N11   N13   A    
N20   N26   A    
C113  N2    A    
C111  C124  S    
C79   C97   S    
C71   H51   S    
C16   C45   A    
C106  H70   S    
C57   C61   S    
N31   Ni8   S    
C15   H101  S    
N28   Ni5   S    
N12   Ni2   S    
C80   H41   S    
C30   O14   D    
C12   C44   A    
C36   H14   S    
C101  H79   S    
N5    Ni2   S    
C76   H32   S    
C51   C55   S    
C33   O17   D    
N7    Ni4   S    
C12   N14   A    
C28   O9    D    
C121  C123  S    
C31   H9    S    
C87   C107  S    
C54   C63   S    
N21   Ni7   S    
N19   Ni5   S    
N2    N32   A    
C6    C130  A    
C84   H75   S    
C17   O1    D    
C76   C78   S    
C73   C90   S    
H7    O13   S    
H3    O4    S    
C61   H2    S    
N5    N6    A    
C112  N32   A    
C100  H47   S    
C31   C131  S    
C46   C82   A    
C81   C92   S    
C18   H111  S    
C133  N8    A    
C9    C36   S    
C89   H54   S    
N22   Ni2   S    
C23   O2    S    
N23   N31   A    
C60   C136  A    
C109  H87   S    
C126  N22   A    
C16   H102  S    
C25   O3    D    
C86   C106  S    
C84   C90   S    
C49   N12   A    
C95   C103  S    
C19   H112  S    
C68   N30   A    
C117  H90   S    
C50   C98   S    
C24   C48   A    
C67   C134  A    
C78   C96   S    
C7    C72   S    
C42   O30   S    
C67   H56   S    
C109  C123  S    
C41   O28   S    
C71   N27   A    
C26   O5    D    
C127  C129  S    
C131  N6    A    
N30   Ni7   S    
C20   O31   D    
C93   N19   A    
C9    N10   A    
C73   C79   S    
C8    C34   S    
C110  H83   S    
C75   C77   S    
C27   C113  S    
C102  H80   S    
N10   Ni2   S    
C63   H21   S    
C122  C124  S    
C1    H1    S    
C14   N15   A    
C106  H64   S    
C53   C56   S    
C85   H45   S    
C108  C117  S    
N15   Ni6   S    
C39   C82   S    
C110  C119  S    
C17   C117  S    
C65   C72   S    
C56   H109  S    
C41   C104  S    
C83   H43   S    
C129  H98   S    
C35   C123  S    
C25   O4    S    
C90   C135  S    
C91   C134  S    
C96   C100  S    
C56   C58   S    
C107  H65   S    
C13   C50   A    
C64   H22   S    
C76   H27   S    
C8    N9    A    
C117  C125  S    
N4    Ni7   S    
C85   C102  S    
C1    C134  A    
C119  C127  S    
C58   C62   S    
N19   N22   A    
C96   C105  S    
C3    C68   A    
C110  H88   S    
C130  N5    A    
C40   O26   S    
C48   C97   S    
N6    Ni1   S    
C34   O18   D    
C105  H67   S    
C32   H10   S    
C22   O35   S    
C30   H8    S    
C10   N11   A    
C50   C115  A    
C103  H68   S    
C110  C124  S    
C47   C96   S    
C118  C125  S    
C122  C129  S    
C52   C55   S    
C67   N29   A    
N29   Ni6   S    
C19   C119  S    
H6    O10   S    
C36   O19   D    
C74   C80   S    
C126  H103  S    
C1    N1    A    
C89   H63   S    
C45   C58   S    
C120  C127  S    
C102  H49   S    
N26   Ni3   S    
C30   C130  S    
C83   C94   S    
N21   N25   A    
C98   C107  S    
C74   C91   S    
C61   C64   S    
C3    C71   A    
C104  N20   A    
C49   H29   S    
C51   H62   S    
C74   H25   S    
C5    C127  S    
N16   Ni7   S    
C28   O10   S    
N17   Ni8   S    
C81   H72   S    
C97   C106  S    
C86   H50   S    
C69   C136  A    
C52   H73   S    
C108  C123  S    
C26   C112  S    
C74   H30   S    
C22   C121  S    
C14   C44   A    
C6    C70   S    
C32   O16   D    
C77   H37   S    
C80   C98   S    
C37   O20   D    
C27   O8    S    
C6    C131  A    
C120  H93   S    
N18   Ni6   S    
C105  H69   S    
C118  H91   S    
C81   C99   S    
C79   H33   S    
C103  H66   S    
C2    H104  S    
C20   H113  S    
N9    N10   A    
C69   H58   S    
C83   H74   S    
C66   C135  A    
C42   C115  S    
N16   N17   A    
C9    C35   A    
C19   O23   D    
C53   C72   S    
C62   H13   S    
C5    C114  A    
C11   C38   S    
C38   O21   D    
C65   H23   S    
C14   H100  S    
C85   C91   S    
C13   N25   A    
C2    C46   A    
C59   C64   S    
C10   C37   S    
H116  O2    S    
C87   H60   S    
C73   H28   S    
N1    Ni1   S    
C41   O27   D    
C48   C104  A    
N3    N4    A    
C26   O6    S    
C24   H107  S    
C111  H85   S    
N27   N30   A    
C23   O36   D    
C13   H105  S    
C46   C95   S    
C88   C92   S    
C18   O12   D    
C125  C128  S    
C94   C136  S    
C11   C43   A    
C51   C70   S    
C64   C70   S    
N2    Ni5   S    
C25   C122  S    
C4    C112  A    
C21   C121  S    
C84   C101  S    
C37   H15   S    
C39   O24   S    
C38   H16   S    
C132  N7    A    
C54   C56   S    
C79   H39   S    
H4    O6    S    
C77   C95   S    
C129  H97   S    
C111  C120  S    
N3    Ni8   S    
C86   H59   S    
C108  H86   S    
C53   C62   S    
C66   H55   S    
C11   N13   A    
C29   O13   S    
C66   N28   A    
C28   C114  S    
C75   C92   S    
C29   O11   D    
C29   C116  S    
C5    C116  A    
C51   C59   S    
C15   C45   A    
C89   C105  S    
N7    N8    A    
C85   H76   S    
C54   H95   S    
C32   C132  S    
C88   C103  S    
C58   C63   S    
C128  H94   S    
C62   C65   S    
C10   C43   A    
C42   O29   D    
H20   O30   S    
C87   H52   S    
C82   N18   A    
N27   Ni4   S    
C55   C57   S    
N20   Ni8   S    
C69   N31   A    
C24   N26   A    
C17   H110  S    
N12   N28   A    
N14   Ni5   S    
H114  O33   S    
C49   C135  A    
N8    Ni3   S    
C52   C70   S    
N14   N15   A    
C2    N24   A    
C33   C133  S    
C54   C72   S    
C78   H38   S    
C75   H31   S    
C39   O22   D    
C43   C124  S    
C97   C101  S    
C40   O25   D    
C21   O33   S    
