data_mof_unit_46045.cif
_audit_creation_date              2012-12-11T15:09:39-0500
_audit_creation_method            fapswitch 2.2
_symmetry_space_group_name_H-M    P1
_symmetry_Int_Tables_number       1
_space_group_crystal_system       triclinic
_cell_length_a                    20.926645
_cell_length_b                    7.129113
_cell_length_c                    14.085561
_cell_angle_alpha                 90.005198
_cell_angle_beta                  98.292678
_cell_angle_gamma                 89.99449
_cell_volume                      2079.43074664

loop_
_atom_site_label
_atom_site_type_symbol
_atom_type_description
_atom_site_fract_x
_atom_site_fract_y
_atom_site_fract_z
_atom_type_partial_charge
O1    O     O_R   0.447130 0.507140 0.597350 -0.559759
O2    O     O_R   0.552870 0.007140 0.402650 -0.559679
O3    O     O_R   0.578910 0.181280 0.586990 -0.539621
O4    O     O_R   0.421090 0.681280 0.413010 -0.539700
C1    C     C_R   0.604070 0.344654 0.608362 0.715638
C2    C     C_R   0.395926 0.844656 0.391646 0.715886
O5    O     O_R   0.449230 0.177860 0.608640 -0.538380
O6    O     O_R   0.550770 0.677860 0.391360 -0.538353
O7    O     O_R   0.422260 0.000770 0.424450 -0.536463
O8    O     O_R   0.577740 0.500770 0.575550 -0.536546
C3    C     C_R   0.432669 0.346437 0.634250 0.810269
C4    C     C_R   0.567332 0.846408 0.365745 0.810252
O9    O     O_3   0.491310 0.336980 0.439550 -0.381964
O10   O     O_3   0.508690 0.836980 0.560450 -0.382011
V1    V     V_3+5 0.501610 0.064760 0.511210 1.415736
V2    V     V_3+5 0.498390 0.564760 0.488790 1.415575
C5    C     C_R   0.621101 0.840171 0.123043 -0.262741
C6    C     C_R   0.378889 0.341627 0.876944 -0.262738
H1    H     H_    0.704392 0.844697 0.999279 0.122474
H2    H     H_    0.295608 0.346949 0.000704 0.122541
C7    C     C_R   0.608501 0.854868 0.290287 -0.218762
C8    C     C_R   0.391484 0.355038 0.709680 -0.218621
C9    C     C_R   0.923196 0.841494 0.304706 -0.154785
C10   C     C_R   0.076792 0.340432 0.695326 -0.154741
C11   C     C_R   0.887150 0.817809 0.378971 -0.159263
C12   C     C_R   0.112846 0.316277 0.621104 -0.159345
C13   C     C_R   0.820010 0.815984 0.360393 -0.168506
C14   C     C_R   0.179988 0.314829 0.639674 -0.168363
C15   C     C_R   0.786571 0.843776 0.266508 0.102327
C16   C     C_R   0.213416 0.343513 0.733490 0.102179
C17   C     C_R   0.824112 0.854396 0.189968 0.059188
C18   C     C_R   0.175874 0.354673 0.810013 0.059158
C19   C     C_R   0.717487 0.853523 0.245143 -0.014241
C20   C     C_R   0.282496 0.353673 0.754820 -0.014157
C21   C     C_R   0.688393 0.845641 0.147403 0.033203
C22   C     C_R   0.311596 0.346702 0.852574 0.033217
C23   C     C_R   0.726436 0.847268 0.073811 -0.149840
C24   C     C_R   0.273558 0.348825 0.926169 -0.149903
C25   C     C_R   0.793071 0.857411 0.094546 -0.191680
C26   C     C_R   0.206919 0.358585 0.905424 -0.191666
C27   C     C_R   0.675739 0.874657 0.315874 0.264860
C28   C     C_R   0.324229 0.374384 0.684040 0.265061
C29   C     C_R   0.580833 0.846910 0.193805 0.361631
C30   C     C_R   0.419159 0.347941 0.806176 0.361485
C31   C     C_R   0.892346 0.857410 0.210417 -0.071207
C32   C     C_R   0.107640 0.357260 0.789573 -0.071181
H3    H     H_    0.975446 0.841797 0.320395 0.102401
H4    H     H_    0.024541 0.340355 0.679651 0.102379
H5    H     H_    0.911391 0.798530 0.451574 0.124243
H6    H     H_    0.088613 0.296298 0.548548 0.124229
C33   C     C_1   0.166887 0.857171 0.167647 -0.192015
C34   C     C_1   0.833120 0.357181 0.832334 -0.192065
C35   C     C_1   0.219506 0.854931 0.218231 0.006527
C36   C     C_1   0.780505 0.354936 0.781739 0.006490
C37   C     C_1   0.281452 0.853535 0.277751 0.004065
C38   C     C_1   0.718561 0.353527 0.722215 0.004431
C39   C     C_1   0.333811 0.851307 0.328998 -0.195932
C40   C     C_1   0.666197 0.351292 0.670984 -0.195742
O11   O     O_R   0.922300 0.202240 0.924350 -0.533164
O12   O     O_R   0.077700 0.702240 0.075650 -0.533182
O13   O     O_R   0.050780 0.535130 0.891350 -0.541300
O14   O     O_R   0.949220 0.035130 0.108650 -0.541280
C41   C     C_R   0.067401 0.367851 0.865793 0.683920
C42   C     C_R   0.932587 0.867879 0.134196 0.683935
O15   O     O_R   0.921100 0.531560 0.912990 -0.538532
O16   O     O_R   0.078900 0.031560 0.087010 -0.538500
O17   O     O_R   0.947120 0.708470 0.097370 -0.537937
O18   O     O_R   0.052880 0.208470 0.902630 -0.537917
C43   C     C_R   0.895814 0.363572 0.893588 0.714740
C44   C     C_R   0.104188 0.863568 0.106407 0.714768
O19   O     O_3   0.008710 0.375800 0.060400 -0.374384
O20   O     O_3   0.991290 0.875800 0.939600 -0.374396
V3    V     V_3+5 0.998380 0.648080 0.988790 1.428534
V4    V     V_3+5 0.001620 0.148080 0.011210 1.428627
O21   O     O_3   0.514223 0.840529 0.169625 -0.578966
C45   C     C_3   0.491128 0.011251 0.125489 0.029063
H7    H     H_    0.441435 0.985199 0.088187 0.152637
H8    H     H_    0.519823 0.058942 0.069249 0.124466
C46   C     C_3   0.488077 0.166649 0.200304 -0.304016
H9    H     H_    0.459529 0.116376 0.255837 0.212594
H10   H     H_    0.537658 0.201564 0.235310 0.187303
C47   C     C_3   0.456968 0.345006 0.155224 -0.786633
H11   H     H_    0.484216 0.397500 0.098558 0.229521
H12   H     H_    0.457493 0.455077 0.211150 0.256810
H13   H     H_    0.406036 0.317413 0.124056 0.210934
O22   O     O_3   0.485774 0.341816 0.830358 -0.578986
C48   C     C_3   0.508809 0.512657 0.874429 0.029174
H14   H     H_    0.558520 0.486786 0.911711 0.152561
H15   H     H_    0.480118 0.560350 0.930679 0.124487
C49   C     C_3   0.511782 0.667959 0.799558 -0.304154
H16   H     H_    0.540360 0.617712 0.744047 0.212743
H17   H     H_    0.462183 0.702630 0.764529 0.187358
C50   C     C_3   0.542798 0.846490 0.844583 -0.786461
H18   H     H_    0.515540 0.898910 0.901261 0.229419
H19   H     H_    0.542195 0.956516 0.788630 0.256900
H20   H     H_    0.593750 0.819150 0.875737 0.210893
H21   H     H_    0.599534 0.829922 0.048675 0.134184
H22   H     H_    0.400453 0.332009 0.951329 0.134254
O23   O     O_3   0.699078 0.921998 0.409684 -0.588874
C51   C     C_3   0.695884 0.119003 0.422072 0.103811
H23   H     H_    0.676674 0.143827 0.490185 0.150401
H24   H     H_    0.662861 0.193355 0.364685 0.102671
C52   C     C_3   0.763370 0.205051 0.430883 -0.338036
H25   H     H_    0.796253 0.130252 0.487505 0.206785
H26   H     H_    0.782321 0.191079 0.361566 0.207433
C53   C     C_3   0.762403 0.412254 0.456512 -0.814873
H27   H     H_    0.731893 0.491175 0.398867 0.241249
H28   H     H_    0.812496 0.467242 0.464758 0.231007
H29   H     H_    0.743351 0.432885 0.525225 0.236014
O24   O     O_3   0.300855 0.420660 0.590096 -0.588965
C54   C     C_3   0.303928 0.617530 0.577135 0.103362
H30   H     H_    0.322611 0.641602 0.508540 0.150400
H31   H     H_    0.337322 0.692324 0.633891 0.103076
C55   C     C_3   0.236487 0.703707 0.569175 -0.338004
H32   H     H_    0.203261 0.628585 0.513105 0.206844
H33   H     H_    0.218037 0.690336 0.638902 0.207346
C56   C     C_3   0.237284 0.910703 0.543104 -0.815349
H34   H     H_    0.268180 0.989993 0.600184 0.241424
H35   H     H_    0.187217 0.965773 0.535557 0.231059
H36   H     H_    0.255786 0.930718 0.473930 0.236123
H37   H     H_    0.796136 0.787392 0.421231 0.185562
H38   H     H_    0.203873 0.285818 0.578894 0.185574
H39   H     H_    0.820158 0.863038 0.034672 0.119234
H40   H     H_    0.179833 0.364632 0.965291 0.119235

loop_
_geom_bond_atom_site_label_1
_geom_bond_atom_site_label_2
_ccdc_geom_bond_type
C24   C26   A    
C48   H14   S    
C50   H18   S    
C9    C31   A    
C13   C15   A    
C54   H30   S    
C20   C28   A    
C45   C46   S    
O2    C4    A    
C2    O7    A    
C55   H32   S    
C13   H37   S    
O15   V3    S    
C54   H31   S    
O16   C44   A    
O5    C3    A    
C1    C40   S    
C21   C23   A    
C10   C12   A    
C12   H6    S    
C14   H38   S    
C53   H27   S    
O18   V4    S    
O16   V4    S    
C15   C19   A    
O12   V3    S    
C25   H39   S    
O13   C41   A    
O24   C54   S    
O14   C42   A    
C34   C43   S    
H1    C23   S    
C7    C29   A    
C8    C30   A    
C17   C25   A    
C14   C16   A    
O1    C3    A    
C27   O23   S    
O17   V3    S    
C33   C44   S    
C52   C53   S    
O5    V1    S    
O6    V2    S    
C2    C39   S    
C30   O22   S    
C34   C36   T    
C35   C37   S    
C29   O21   S    
C50   H19   S    
C26   H40   S    
C36   C38   S    
C9    H3    S    
C16   C20   A    
C10   H4    S    
C42   O17   A    
C45   H7    S    
O20   V4    S    
C56   H36   S    
O19   V3    S    
O22   C48   S    
O13   V3    S    
C4    C7    S    
C51   C52   S    
C33   C35   T    
O4    V2    S    
O21   C45   S    
C5    C29   A    
C6    C30   A    
O19   V4    S    
H2    C24   S    
C49   H17   S    
O23   C51   S    
O12   C44   A    
O6    C4    A    
C51   H24   S    
C52   H26   S    
O1    V2    S    
O2    V1    S    
O11   V4    S    
O11   C43   A    
C7    C27   A    
O4    C2    A    
C50   H20   S    
C47   H12   S    
C37   C39   T    
C48   C49   S    
O3    V1    S    
C49   C50   S    
C46   H10   S    
C41   O18   A    
C3    C8    S    
C18   C32   A    
C45   H8    S    
O20   V3    S    
O3    C1    A    
C46   C47   S    
C55   H33   S    
C11   C13   A    
C47   H13   S    
C6    H22   S    
C31   C42   S    
C12   C14   A    
C5    H21   S    
C32   C41   S    
C19   C27   A    
C56   H35   S    
C28   O24   S    
C10   C32   A    
C1    O8    A    
C15   C17   A    
O8    V2    S    
C56   H34   S    
C16   C18   A    
C49   H16   S    
C8    C28   A    
C53   H28   S    
O15   C43   A    
C22   C24   A    
C51   H23   S    
C19   C21   A    
C38   C40   T    
C54   C55   S    
C20   C22   A    
C18   C26   A    
O7    V1    S    
C11   H5    S    
C55   C56   S    
C46   H9    S    
C9    C11   A    
C23   C25   A    
C47   H11   S    
C17   C31   A    
O9    V2    S    
C52   H25   S    
C48   H15   S    
O10   V1    S    
O14   V4    S    
C5    C21   A    
C6    C22   A    
C53   H29   S    
