data_mof_unit_27771.cif
_audit_creation_date              2013-03-05T16:41:26-0500
_audit_creation_method            fapswitch 2.2
_symmetry_space_group_name_H-M    P1
_symmetry_Int_Tables_number       1
_space_group_crystal_system       triclinic
_cell_length_a                    10.835925
_cell_length_b                    10.723355
_cell_length_c                    9.99054
_cell_angle_alpha                 89.669528
_cell_angle_beta                  102.381177
_cell_angle_gamma                 91.85241
_cell_volume                      1133.2833735

loop_
_atom_site_label
_atom_site_type_symbol
_atom_site_description
_atom_site_fract_x
_atom_site_fract_y
_atom_site_fract_z
_atom_type_partial_charge
O1    O     O_R   0.500020 0.316790 0.614700 -0.613958
O2    O     O_R   0.500000 0.316760 0.385350 -0.583263
C1    C     C_R   0.502196 0.260239 0.500861 0.888190
O3    O     O_R   0.317820 0.500020 0.571850 -0.615161
O4    O     O_R   0.317800 0.499980 0.342510 -0.628656
C2    C     C_R   0.260523 0.493770 0.443990 0.939151
Zn1   Zn    Zn3+2 0.500010 0.500020 0.653140 0.957833
Zn2   Zn    Zn3+2 0.499990 0.499980 0.346860 0.980655
O5    O     O_R   0.500000 0.683240 0.614650 -0.612895
O6    O     O_R   0.499980 0.683210 0.385300 -0.648151
O7    O     O_R   0.682200 0.500020 0.657490 -0.625361
O8    O     O_R   0.682180 0.499980 0.428150 -0.612515
C3    C     C_R   0.487914 0.738837 0.496029 0.855315
C4    C     C_R   0.739483 0.498416 0.556790 0.940056
H1    H     H_    0.883313 0.418621 0.399682 0.189386
H2    H     H_    0.114776 0.530587 0.612363 0.186508
C5    C     C_2   0.127021 0.467292 0.416652 -0.346971
C6    C     C_2   0.066743 0.487160 0.516227 -0.106428
H3    H     H_    0.925227 0.534939 0.688149 0.148069
C7    C     C_2   0.874486 0.498036 0.589713 -0.348414
C8    C     C_2   0.933980 0.460262 0.495636 -0.125137
H4    H     H_    0.079811 0.425642 0.319577 0.157180
C9    C     C_R   0.475614 0.061598 0.612994 0.075663
C10   C     C_R   0.502412 0.127092 0.501210 -0.087178
C11   C     C_R   0.504697 0.064603 0.379421 -0.170724
H5    H     H_    0.518065 0.115803 0.290143 0.227924
C12   C     C_R   0.473406 0.938532 0.366783 -0.011789
C13   C     C_R   0.466131 0.870737 0.486577 -0.123937
C14   C     C_R   0.455120 0.933410 0.604448 -0.015438
C15   C     C_3   0.335075 0.945453 0.655736 0.159586
C16   C     C_3   0.365369 0.082672 0.676349 -0.489848
H6    H     H_    0.335554 0.895653 0.751496 0.117114
H7    H     H_    0.294193 0.145114 0.615767 0.229856
H8    H     H_    0.397006 0.107465 0.786388 0.207724
C17   C     C_R   0.390896 0.480240 0.044993 0.092473
N1    N     N_R   0.499160 0.499140 0.142600 -0.108779
C18   C     C_R   0.606317 0.535776 0.092805 0.058152
C19   C     C_R   0.604435 0.533750 0.949582 -0.134363
H9    H     H_    0.687242 0.562388 0.911560 0.153497
N2    N     N_R   0.499160 0.499180 0.856960 -0.097716
C20   C     C_R   0.390353 0.483038 0.904145 0.140443
C21   C     C_3   0.293822 0.379633 0.872449 -0.534301
C22   C     C_3   0.297178 0.372858 0.026053 0.136734
H10   H     H_    0.202274 0.412388 0.812476 0.166125
H11   H     H_    0.329846 0.297526 0.828409 0.236457
H12   H     H_    0.206325 0.395873 0.053589 0.093489
C23   C     C_R   0.726428 0.588479 0.177279 0.155857
C24   C     C_R   0.727581 0.701214 0.247876 -0.125372
C25   C     C_R   0.840035 0.769447 0.296932 -0.135549
C26   C     C_R   0.952705 0.729975 0.267974 -0.020966
C27   C     C_R   0.953108 0.620759 0.193217 -0.175072
C28   C     C_R   0.842245 0.547734 0.153034 -0.221320
H13   H     H_    0.641396 0.741127 0.257059 0.163274
H14   H     H_    0.838551 0.856334 0.351107 0.157507
H15   H     H_    0.038920 0.785311 0.300604 0.186657
H16   H     H_    0.039487 0.592678 0.165944 0.125871
H17   H     H_    0.844984 0.463777 0.094080 0.141385
N3    N     N_R   0.350307 0.257101 0.087488 0.242273
O9    O     O_R   0.454986 0.216656 0.062032 -0.443684
O10   O     O_R   0.286424 0.188006 0.157823 -0.383183
C29   C     C_R   0.428831 0.885340 0.227464 0.175142
C30   C     C_R   0.498880 0.903979 0.125558 -0.137580
C31   C     C_R   0.461178 0.843169 0.999692 -0.151513
C32   C     C_R   0.349139 0.770407 0.971560 -0.131137
C33   C     C_R   0.274757 0.758045 0.068812 -0.149275
C34   C     C_R   0.314488 0.814707 0.196550 -0.015622
H18   H     H_    0.586556 0.958868 0.146459 0.136563
H19   H     H_    0.519225 0.851985 0.924240 0.142699
H20   H     H_    0.319533 0.723074 0.874155 0.143725
H21   H     H_    0.187885 0.702187 0.046130 0.118868
H22   H     H_    0.257793 0.800964 0.272622 0.136526
N4    N     N_R   0.220044 0.918052 0.551288 0.214859
O11   O     O_R   0.138776 0.833633 0.575608 -0.443834
O12   O     O_R   0.196044 0.979063 0.436003 -0.403695

loop_
_geom_bond_atom_site_label_1
_geom_bond_atom_site_label_2
_geom_bond_distance
_ccdc_geom_bond_type
C33   H21   1.081616 S    
O4    Zn2   1.965338 S    
C15   N4    1.466623 S    
C9    C10   1.393409 A    
C16   H7    1.112670 S    
C3    C13   1.440721 S    
N2    C20   1.366198 A    
C30   C31   1.394739 A    
C5    H4    1.085919 S    
C18   C23   1.487447 S    
C6    C8    1.429009 S    
C17   C22   1.495847 S    
C20   C21   1.486927 S    
C34   H22   1.081576 S    
C15   C16   1.502865 S    
Zn2   O8    1.967096 S    
C26   H15   1.080248 S    
C32   C33   1.392342 A    
C29   C30   1.404229 A    
H3    C7    1.088381 S    
C5    C6    1.323532 D    
N3    O9    1.302381 A    
C16   H8    1.110244 S    
C2    C5    1.432765 S    
C25   H14   1.082501 S    
O6    C3    1.292817 A    
C32   H20   1.081122 S    
C10   C11   1.397677 A    
Zn1   O7    1.965336 S    
N1    C18   1.402153 A    
C1    C10   1.427843 S    
C14   C15   1.506236 S    
C21   H10   1.109803 S    
C30   H18   1.082973 S    
O3    Zn1   1.967096 S    
O4    C2    1.297653 A    
C9    C14   1.385510 A    
O3    C2    1.296106 A    
C13   C14   1.388239 A    
C19   N2    1.348685 A    
C18   C19   1.426927 A    
O8    C4    1.302206 A    
C25   C26   1.392728 A    
O2    C1    1.296441 A    
C33   C34   1.392691 A    
Zn2   N1    2.038828 S    
C24   H13   1.061512 S    
C17   C20   1.406049 A    
O7    C4    1.290893 A    
C22   H12   1.112834 S    
C11   C12   1.382945 A    
C28   H17   1.083356 S    
N3    O10   1.300522 A    
C27   C28   1.397681 A    
C15   H6    1.092070 S    
C4    C7    1.429075 S    
H1    C8    1.087734 S    
C19   H9    1.082003 S    
C7    C8    1.320673 D    
N4    O11   1.300651 A    
H2    C6    1.088738 S    
C27   H16   1.081445 S    
C21   C22   1.528570 S    
C23   C28   1.411234 A    
C12   C13   1.412009 A    
Zn1   O5    1.999830 S    
N4    O12   1.302339 A    
O5    C3    1.306658 A    
C31   H19   1.082339 S    
C24   C25   1.396715 A    
C12   C29   1.482907 S    
C22   N3    1.461114 S    
C26   C27   1.393293 A    
C11   H5    1.078237 S    
O1    Zn1   2.004200 S    
Zn1   N2    2.038234 S    
C29   C34   1.407891 A    
C21   H11   1.105225 S    
Zn2   O6    2.004199 S    
O2    Zn2   1.999832 S    
C23   C24   1.401467 A    
C31   C32   1.398813 A    
O1    C1    1.296977 A    
C17   N1    1.365492 A    
C9    C16   1.490681 S    
