data_mof_unit_43301.cif
_audit_creation_date              2012-12-10T20:41:46-0500
_audit_creation_method            fapswitch 2.2
_symmetry_space_group_name_H-M    P1
_symmetry_Int_Tables_number       1
_space_group_crystal_system       triclinic
_cell_length_a                    15.042864
_cell_length_b                    15.227041
_cell_length_c                    9.882179
_cell_angle_alpha                 89.999112
_cell_angle_beta                  88.956347
_cell_angle_gamma                 90.000601
_cell_volume                      2263.21967774

loop_
_atom_site_label
_atom_site_type_symbol
_atom_type_description
_atom_site_fract_x
_atom_site_fract_y
_atom_site_fract_z
_atom_type_partial_charge
C1    C     C_R   0.381867 0.877914 0.500344 0.880602
C2    C     C_R   0.381943 0.121974 0.500459 0.879743
C3    C     C_R   0.881951 0.378017 0.500459 0.879745
C4    C     C_R   0.881872 0.622091 0.500343 0.880605
C5    C     C_3   0.253066 0.187208 0.741794 -0.499984
C6    C     C_3   0.275102 0.787331 0.752170 -0.506410
C7    C     C_3   0.775109 0.712671 0.752170 -0.506403
C8    C     C_3   0.753135 0.312730 0.741846 -0.499968
C9    C     C_R   0.426241 0.025709 0.073581 0.195632
C10   C     C_R   0.926238 0.474295 0.073584 0.195630
C11   C     C_R   0.576825 0.989064 0.069066 0.009938
C12   C     C_R   0.076828 0.510930 0.069066 0.009919
C13   C     C_R   0.576358 0.987786 0.925132 -0.182298
C14   C     C_R   0.076361 0.512205 0.925131 -0.182289
C15   C     C_R   0.426243 0.025989 0.931272 0.215484
C16   C     C_R   0.926240 0.474016 0.931273 0.215473
C17   C     C_3   0.336711 0.984572 0.930663 -0.532986
C18   C     C_3   0.836710 0.515443 0.930667 -0.532972
C19   C     C_3   0.336346 0.985992 0.084007 -0.492887
C20   C     C_3   0.836342 0.514015 0.084012 -0.492834
C21   C     C_R   0.622065 0.117946 0.499327 0.878484
C22   C     C_R   0.622109 0.882236 0.498976 0.881305
C23   C     C_R   0.122108 0.617764 0.498976 0.881311
C24   C     C_R   0.122063 0.382052 0.499328 0.878471
C25   C     C_R   0.294557 0.232286 0.622166 0.136958
C26   C     C_R   0.305789 0.755811 0.616244 0.134941
C27   C     C_R   0.805797 0.744196 0.616244 0.134926
C28   C     C_R   0.794589 0.267677 0.622172 0.136876
C29   C     C_R   0.326378 0.197645 0.500424 -0.107990
C30   C     C_R   0.326126 0.802094 0.498094 -0.108274
C31   C     C_R   0.826140 0.697919 0.498089 -0.108282
C32   C     C_R   0.826410 0.302326 0.500422 -0.107993
C33   C     C_R   0.305843 0.239112 0.377848 -0.227667
C34   C     C_R   0.294872 0.771175 0.373764 -0.223836
C35   C     C_R   0.794894 0.728847 0.373754 -0.223825
C36   C     C_R   0.805898 0.260840 0.377833 -0.227606
C37   C     C_R   0.730167 0.793001 0.372684 -0.201977
C38   C     C_R   0.741167 0.196258 0.377118 -0.212650
C39   C     C_R   0.241123 0.303702 0.377132 -0.212703
C40   C     C_R   0.230149 0.707018 0.372693 -0.202007
C41   C     C_R   0.698302 0.827201 0.495843 -0.102860
C42   C     C_R   0.697863 0.173756 0.498988 -0.104916
C43   C     C_R   0.197849 0.326229 0.498988 -0.104885
C44   C     C_R   0.198293 0.672808 0.495846 -0.102841
C45   C     C_R   0.742535 0.808767 0.614879 0.130201
C46   C     C_R   0.730871 0.203770 0.621452 0.134901
C47   C     C_R   0.230852 0.296205 0.621444 0.134884
C48   C     C_R   0.242532 0.691236 0.614877 0.130198
C49   C     C_3   0.705958 0.784561 0.751137 -0.466963
C50   C     C_3   0.682762 0.241557 0.741650 -0.470330
C51   C     C_3   0.182724 0.258404 0.741609 -0.470371
C52   C     C_3   0.205963 0.715429 0.751139 -0.467015
H1    H     H_    0.334694 0.217790 0.282127 0.171922
H2    H     H_    0.314673 0.800726 0.278414 0.165942
H3    H     H_    0.814700 0.699304 0.278398 0.165930
H4    H     H_    0.834773 0.282144 0.282099 0.171886
H5    H     H_    0.286684 0.032180 0.128674 0.202384
H6    H     H_    0.336911 0.919424 0.129581 0.211298
H7    H     H_    0.836909 0.580584 0.129592 0.211288
H8    H     H_    0.786675 0.467825 0.128675 0.202383
H9    H     H_    0.700618 0.809996 0.277119 0.180167
H10   H     H_    0.721127 0.168956 0.281155 0.178072
H11   H     H_    0.221067 0.330991 0.281182 0.178089
H12   H     H_    0.200597 0.690025 0.277132 0.180170
H13   H     H_    0.717817 0.836473 0.827764 0.198091
H14   H     H_    0.685469 0.197512 0.831231 0.204821
H15   H     H_    0.185441 0.302426 0.831204 0.204835
H16   H     H_    0.217838 0.663516 0.827749 0.198104
H17   H     H_    0.636657 0.759207 0.748243 0.211565
H18   H     H_    0.615381 0.266402 0.717272 0.204722
H19   H     H_    0.115339 0.233589 0.717207 0.204735
H20   H     H_    0.136662 0.740769 0.748265 0.211588
H21   H     H_    0.296176 0.189743 0.831896 0.205130
H22   H     H_    0.326194 0.776277 0.830202 0.202951
H23   H     H_    0.826199 0.723739 0.830205 0.202942
H24   H     H_    0.796265 0.310143 0.831914 0.205145
H25   H     H_    0.226454 0.121246 0.716245 0.198408
H26   H     H_    0.245038 0.853968 0.747921 0.205851
H27   H     H_    0.745053 0.646029 0.747924 0.205854
H28   H     H_    0.726542 0.378710 0.716357 0.198415
H29   H     H_    0.637530 0.977354 0.868045 0.149144
H30   H     H_    0.137536 0.522634 0.868044 0.149145
H31   H     H_    0.285126 0.027236 0.886454 0.199658
H32   H     H_    0.340818 0.917630 0.889722 0.217519
H33   H     H_    0.840827 0.582388 0.889737 0.217511
H34   H     H_    0.785118 0.472788 0.886453 0.199653
N1    N     N_R   0.499140 0.000000 0.142800 -0.128951
N2    N     N_R   0.999140 0.500000 0.142800 -0.128955
N3    N     N_R   0.499160 0.000000 0.857150 -0.108769
N4    N     N_R   0.999160 0.500000 0.857150 -0.108770
O1    O     O_R   0.408400 0.908380 0.614690 -0.615175
O2    O     O_R   0.408400 0.091620 0.614690 -0.614586
O3    O     O_R   0.908400 0.408380 0.614690 -0.614588
O4    O     O_R   0.908400 0.591620 0.614690 -0.615169
O5    O     O_R   0.408370 0.908370 0.385350 -0.625350
O6    O     O_R   0.408370 0.091630 0.385350 -0.623680
O7    O     O_R   0.908370 0.408370 0.385350 -0.623668
O8    O     O_R   0.908370 0.591630 0.385350 -0.625346
O9    O     O_R   0.591610 0.091610 0.614650 -0.620623
O10   O     O_R   0.591610 0.908390 0.614650 -0.624499
O11   O     O_R   0.091610 0.591610 0.614650 -0.624503
O12   O     O_R   0.091610 0.408390 0.614650 -0.620626
O13   O     O_R   0.591590 0.091600 0.385310 -0.620218
O14   O     O_R   0.591590 0.908400 0.385310 -0.617463
O15   O     O_R   0.091590 0.591600 0.385310 -0.617467
O16   O     O_R   0.091590 0.408400 0.385310 -0.620235
Zn1   Zn    Zn3+2 0.500010 0.000000 0.653130 0.941581
Zn2   Zn    Zn3+2 0.000010 0.500000 0.653130 0.941579
Zn3   Zn    Zn3+2 0.499980 1.000000 0.346870 0.951328
Zn4   Zn    Zn3+2 0.999980 0.500000 0.346870 0.951324
C53   C     C_1   0.660629 0.982655 0.135859 0.192908
N5    N     N_1   0.728598 0.978367 0.188483 -0.230279
C54   C     C_1   0.160630 0.517344 0.135862 0.192933
N6    N     N_1   0.228597 0.521639 0.188491 -0.230255

loop_
_geom_bond_atom_site_label_1
_geom_bond_atom_site_label_2
_ccdc_geom_bond_type
O15   Zn4   S    
C16   N4    A    
O8    Zn4   S    
C4    O8    A    
C53   N5    T    
C7    C27   S    
C6    C26   S    
C19   H5    S    
O4    Zn2   S    
C33   C39   A    
C49   H13   S    
C2    C29   S    
C36   H4    S    
C32   C36   A    
C35   C37   A    
C38   C42   A    
O3    Zn2   S    
O14   Zn3   S    
C21   O9    A    
C6    H26   S    
C22   C41   S    
C23   O15   A    
C13   H29   S    
C8    H24   S    
C22   O14   A    
C42   C46   A    
C14   N4    A    
C9    C19   S    
C29   C33   A    
C11   N1    A    
O12   Zn2   S    
C20   H8    S    
C25   C47   A    
C40   C44   A    
C18   C20   S    
C52   H16   S    
C26   C48   A    
N2    Zn4   S    
C27   C45   A    
O11   Zn2   S    
C1    O1    A    
C49   H17   S    
C25   C29   A    
C51   H19   S    
C6    H22   S    
C19   H6    S    
C33   H1    S    
C18   H33   S    
C22   O10   A    
C12   N2    A    
C27   C31   A    
O1    Zn1   S    
C28   C32   A    
C7    C49   S    
O5    Zn3   S    
C10   C20   S    
C18   H34   S    
C30   C34   A    
C47   C51   S    
C11   C53   S    
C35   H3    S    
C23   C44   S    
C17   H31   S    
C52   H20   S    
C15   N3    A    
C3    O7    A    
O2    Zn1   S    
C37   H9    S    
C45   C49   S    
C1    O5    A    
C10   N2    A    
N3    Zn1   S    
C3    O3    A    
C51   H15   S    
C20   H7    S    
C2    O2    A    
C50   H14   S    
C4    O4    A    
C34   C40   A    
C12   C14   A    
C34   H2    S    
C8    C28   S    
C5    C25   S    
C24   O16   A    
C14   H30   S    
C5    H25   S    
C8    C50   S    
O9    Zn1   S    
C7    H27   S    
C54   N6    T    
O16   Zn4   S    
C15   C17   S    
O10   Zn1   S    
C13   N3    A    
C5    H21   S    
C7    H23   S    
C26   C30   A    
N1    Zn3   S    
C39   H11   S    
O6    Zn3   S    
C46   C50   S    
C40   H12   S    
O13   Zn3   S    
C28   C46   A    
C17   H32   S    
C36   C38   A    
C9    C15   A    
N4    Zn2   S    
C10   C16   A    
C9    N1    A    
O7    Zn4   S    
C11   C13   A    
C23   O11   A    
C31   C35   A    
C2    O6    A    
C1    C30   S    
C17   C19   S    
C12   C54   S    
C24   O12   A    
C37   C41   A    
C3    C32   S    
C50   H18   S    
C4    C31   S    
C21   C42   S    
C21   O13   A    
C48   C52   S    
C39   C43   A    
C16   C18   S    
C8    H28   S    
C24   C43   S    
C41   C45   A    
C5    C51   S    
C6    C52   S    
C43   C47   A    
C44   C48   A    
C38   H10   S    
