data_mof_unit_16660.cif
_audit_creation_date              2012-12-10T17:15:15-0500
_audit_creation_method            fapswitch 2.2
_symmetry_space_group_name_H-M    P1
_symmetry_Int_Tables_number       1
_space_group_crystal_system       triclinic
_cell_length_a                    15.838263
_cell_length_b                    13.070649
_cell_length_c                    11.733589
_cell_angle_alpha                 99.79534
_cell_angle_beta                  92.210884
_cell_angle_gamma                 90.690358
_cell_volume                      2391.42472251

loop_
_atom_site_label
_atom_site_type_symbol
_atom_type_description
_atom_site_fract_x
_atom_site_fract_y
_atom_site_fract_z
_atom_type_partial_charge
C1    C     C_R   0.501541 0.299278 0.479178 0.847981
C2    C     C_R   0.500667 0.700519 0.521346 0.843631
C3    C     C_R   0.536599 0.017595 0.356158 -0.256868
C4    C     C_R   0.464214 0.980879 0.643063 -0.273457
C5    C     C_R   0.532342 0.125232 0.364653 0.393991
C6    C     C_R   0.469178 0.873318 0.635922 0.388425
C7    C     C_R   0.494453 0.137989 0.567056 0.380426
C8    C     C_R   0.525856 0.862329 0.442676 0.358639
C9    C     C_R   0.492358 0.029685 0.553880 -0.055631
C10   C     C_R   0.518300 0.969671 0.450452 -0.053641
C11   C     C_R   0.403810 0.429752 0.030992 -0.308619
C12   C     C_R   0.597294 0.567571 0.968435 -0.320410
C13   C     C_R   0.414641 0.434165 0.150778 -0.000953
C14   C     C_R   0.586504 0.562986 0.848757 -0.046970
C15   C     C_R   0.548226 0.517990 0.150023 0.685457
C16   C     C_R   0.451865 0.481587 0.849872 0.660662
C17   C     C_R   0.536871 0.521643 0.029883 -0.083928
C18   C     C_R   0.463444 0.477487 0.969935 -0.091291
C19   C     C_R   0.340012 0.500480 0.501581 0.830574
C20   C     C_R   0.659980 0.500256 0.498482 0.767309
C21   C     C_3   0.972056 0.401058 0.499476 -0.463668
C22   C     C_3   0.027836 0.600862 0.499005 -0.460597
C23   C     C_3   0.026373 0.438236 0.406842 0.465412
C24   C     C_3   0.973546 0.563761 0.591700 0.457899
C25   C     C_1   0.250496 0.502158 0.504616 -0.166175
C26   C     C_1   0.749459 0.499232 0.495246 -0.183316
C27   C     C_3   0.028797 0.468484 0.594611 0.457458
C28   C     C_3   0.971003 0.533409 0.403948 0.453858
C29   C     C_3   0.083266 0.503794 0.502072 -0.068429
C30   C     C_3   0.916611 0.498131 0.496562 -0.068649
C31   C     C_1   0.174956 0.503341 0.504517 0.073650
C32   C     C_1   0.824960 0.498413 0.494746 0.063549
C33   C     C_R   0.499098 0.813704 0.533998 -0.246544
C34   C     C_R   0.508464 0.186005 0.469475 -0.260988
Cu1   Cu    Cu3+1 0.506200 0.507730 0.615930 0.981672
Cu2   Cu    Cu3+1 0.493800 0.492270 0.384070 1.002838
H1    H     H_    0.948210 0.320948 0.499795 0.164705
H2    H     H_    0.052085 0.680864 0.498945 0.168626
H3    H     H_    0.552073 0.971395 0.274296 0.188229
H4    H     H_    0.435843 0.026602 0.716699 0.192495
H5    H     H_    0.635441 0.595179 0.803028 0.160257
H6    H     H_    0.366839 0.399530 0.196249 0.166714
H7    H     H_    0.348257 0.389995 0.987213 0.195830
H8    H     H_    0.653674 0.605631 0.011585 0.183607
N1    N     N_R   0.515540 0.519350 0.790140 -0.224763
N2    N     N_R   0.484460 0.480650 0.209860 -0.214802
O1    O     O_R   0.504400 0.354460 0.582000 -0.552689
O2    O     O_R   0.495600 0.645540 0.418000 -0.531483
O3    O     O_R   0.493920 0.341410 0.386200 -0.543768
O4    O     O_R   0.506080 0.658590 0.613800 -0.563380
O5    O     O_R   0.384320 0.506520 0.597880 -0.528976
O6    O     O_R   0.615680 0.493480 0.402120 -0.545123
O7    O     O_R   0.373840 0.493460 0.402080 -0.598799
O8    O     O_R   0.626160 0.506540 0.597920 -0.604698
O9    O     O_3   0.061225 0.376982 0.309823 -0.568902
C35   C     C_3   0.997558 0.312526 0.246969 -0.305022
H9    H     H_    0.941827 0.357386 0.224657 0.186202
H10   H     H_    0.978247 0.250680 0.295438 0.168436
H11   H     H_    0.023473 0.273835 0.164483 0.183758
O10   O     O_3   0.938956 0.625870 0.688359 -0.574794
C36   C     C_3   0.003504 0.687709 0.752818 -0.310456
H12   H     H_    0.027606 0.746913 0.703883 0.163792
H13   H     H_    0.056216 0.640088 0.779074 0.186517
H14   H     H_    0.976715 0.729739 0.833136 0.179457
O11   O     O_3   0.933409 0.562868 0.303760 -0.591742
C37   C     C_3   0.995382 0.607234 0.243397 -0.314866
H15   H     H_    0.049213 0.554300 0.222690 0.195315
H16   H     H_    0.018226 0.683310 0.292847 0.165888
H17   H     H_    0.966357 0.621700 0.160192 0.180964
O12   O     O_3   0.065975 0.438250 0.694651 -0.579439
C38   C     C_3   0.003093 0.396861 0.756270 -0.300872
H18   H     H_    0.977566 0.321885 0.707264 0.161894
H19   H     H_    0.951108 0.452347 0.778142 0.188536
H20   H     H_    0.032073 0.381108 0.838962 0.182735
O13   O     O_3   0.560152 0.805507 0.345324 -0.588007
C39   C     C_3   0.648133 0.795503 0.366164 0.094029
H21   H     H_    0.659270 0.720283 0.395959 0.181952
H22   H     H_    0.676788 0.858986 0.432986 0.096961
C40   C     C_3   0.693347 0.796929 0.253634 -0.330156
H23   H     H_    0.661491 0.741663 0.182292 0.256582
H24   H     H_    0.689812 0.875866 0.230667 0.190925
C41   C     C_3   0.785912 0.767759 0.265166 -0.865591
H25   H     H_    0.819585 0.823767 0.334317 0.247750
H26   H     H_    0.816784 0.769309 0.182095 0.244674
H27   H     H_    0.790832 0.688338 0.286291 0.296276
O14   O     O_3   0.480226 0.195890 0.675150 -0.579770
C42   C     C_3   0.558640 0.225241 0.735872 0.140800
H28   H     H_    0.550749 0.303229 0.788478 0.182543
H29   H     H_    0.611812 0.233179 0.677893 0.100253
C43   C     C_3   0.582893 0.150330 0.818279 -0.395533
H30   H     H_    0.528140 0.136941 0.870705 0.233597
H31   H     H_    0.601368 0.075279 0.767053 0.209252
C44   C     C_3   0.657346 0.193092 0.899598 -0.936664
H32   H     H_    0.712411 0.209375 0.849183 0.254889
H33   H     H_    0.675928 0.134847 0.954145 0.254115
H34   H     H_    0.639580 0.265699 0.956857 0.252948
O15   O     O_3   0.436834 0.823395 0.721112 -0.595771
C45   C     C_3   0.470536 0.864315 0.833776 0.086487
H35   H     H_    0.439455 0.820702 0.894559 0.169167
H36   H     H_    0.453963 0.946680 0.862122 0.121289
C46   C     C_3   0.566429 0.849559 0.846341 -0.357631
H37   H     H_    0.581288 0.767277 0.815085 0.236084
H38   H     H_    0.600401 0.897765 0.792947 0.196166
C47   C     C_3   0.598359 0.879920 0.972181 -0.940468
H39   H     H_    0.585082 0.962796 0.004764 0.259857
H40   H     H_    0.667667 0.868769 0.978452 0.253713
H41   H     H_    0.567356 0.830575 0.027314 0.266972
O16   O     O_3   0.548493 0.171654 0.269603 -0.583808
C48   C     C_3   0.634015 0.159533 0.239192 0.058466
H42   H     H_    0.640446 0.191035 0.157856 0.170143
H43   H     H_    0.651958 0.076620 0.219324 0.119662
C49   C     C_3   0.695126 0.220381 0.332086 -0.374839
H44   H     H_    0.672501 0.300609 0.356860 0.229404
H45   H     H_    0.697221 0.183108 0.410482 0.194465
C50   C     C_3   0.784274 0.224617 0.288430 -0.951657
H46   H     H_    0.809017 0.144967 0.265031 0.258623
H47   H     H_    0.826248 0.269199 0.357702 0.257910
H48   H     H_    0.784670 0.263937 0.211644 0.251140
O17   O     O_3   0.377326 0.443964 0.792074 -0.548391
C51   C     C_3   0.314567 0.519917 0.817168 -0.279809
H49   H     H_    0.256880 0.493883 0.762847 0.218003
H50   H     H_    0.334916 0.596412 0.796614 0.169007
H51   H     H_    0.296516 0.530179 0.908811 0.136500
O18   O     O_3   0.623795 0.552271 0.207033 -0.576469
C52   C     C_3   0.684359 0.473773 0.180746 -0.335147
H52   H     H_    0.660582 0.396948 0.195947 0.171048
H53   H     H_    0.741418 0.494778 0.238145 0.217789
H54   H     H_    0.704631 0.466501 0.090323 0.147594

loop_
_geom_bond_atom_site_label_1
_geom_bond_atom_site_label_2
_ccdc_geom_bond_type
C25   C31   T    
C37   H16   S    
C42   H28   S    
C11   C18   A    
C26   C32   T    
C46   H37   S    
C22   C29   S    
C27   C29   S    
C47   H39   S    
Cu1   Cu2   S    
C24   C27   S    
O9    C35   S    
Cu1   O1    S    
C49   H45   S    
O15   C45   S    
O16   C48   S    
C44   H32   S    
C23   C29   S    
C39   H22   S    
C48   H43   S    
C13   N2    A    
C37   H17   S    
C50   H46   S    
C22   H2    S    
C35   H9    S    
C15   C17   A    
C36   H13   S    
C49   H44   S    
Cu2   O7    S    
C2    O4    A    
C4    H4    S    
C50   H47   S    
C12   C17   A    
C52   H54   S    
C39   C40   S    
Cu2   N2    S    
O12   C38   S    
C9    C10   A    
Cu2   O6    S    
C51   H51   S    
C19   O7    A    
C37   H15   S    
C21   C27   S    
C3    H3    S    
C46   H38   S    
C22   C28   S    
Cu1   O8    S    
C29   C31   S    
C47   H40   S    
C13   H6    S    
C51   H50   S    
C1    C34   S    
C14   N1    A    
C15   O18   S    
C6    O15   S    
C49   C50   S    
C39   H21   S    
C20   O8    A    
C48   C49   S    
C40   H24   S    
O14   C42   S    
C1    O1    A    
C2    O2    A    
C8    O13   S    
O10   C36   S    
C36   H14   S    
O13   C39   S    
C38   H20   S    
C43   H31   S    
C24   O10   S    
C50   H48   S    
C5    C34   A    
Cu1   O4    S    
C17   C18   A    
C16   C18   A    
C23   C28   S    
C11   H7    S    
C27   O12   S    
C14   H5    S    
C2    C33   S    
C4    C6    A    
C12   C14   A    
C41   H25   S    
C44   H34   S    
C45   H36   S    
C21   C23   S    
Cu1   O5    S    
C52   H52   S    
C7    C34   A    
C22   C24   S    
C16   O17   S    
Cu1   N1    S    
C45   C46   S    
C51   H49   S    
C43   C44   S    
C38   H19   S    
C7    C9    A    
C3    C5    A    
C16   N1    A    
C40   C41   S    
O17   C51   S    
C35   H11   S    
C23   O9    S    
C46   C47   S    
C41   H27   S    
C21   C30   S    
C41   H26   S    
C6    C33   A    
C28   C30   S    
C28   O11   S    
C38   H18   S    
C20   O6    A    
C3    C10   A    
C48   H42   S    
C30   C32   S    
C11   C13   A    
C43   H30   S    
C44   H33   S    
C20   C26   S    
C35   H10   S    
Cu2   O2    S    
C8    C33   A    
O11   C37   S    
C36   H12   S    
C19   C25   S    
C24   C30   S    
C40   H23   S    
C7    O14   S    
C19   O5    A    
C21   H1    S    
C8    C10   A    
C45   H35   S    
C42   C43   S    
C52   H53   S    
C42   H29   S    
C12   H8    S    
C15   N2    A    
C4    C9    A    
C1    O3    A    
C47   H41   S    
Cu2   O3    S    
O18   C52   S    
C5    O16   S    
