data_mof_unit_62621.cif
_audit_creation_date              2012-12-10T19:25:09-0500
_audit_creation_method            fapswitch 2.2
_symmetry_space_group_name_H-M    P1
_symmetry_Int_Tables_number       1
_space_group_crystal_system       triclinic
_cell_length_a                    18.641237
_cell_length_b                    18.606196
_cell_length_c                    18.972991
_cell_angle_alpha                 109.701438
_cell_angle_beta                  109.472331
_cell_angle_gamma                 108.96408
_cell_volume                      5082.78377685

loop_
_atom_site_label
_atom_site_type_symbol
_atom_type_description
_atom_site_fract_x
_atom_site_fract_y
_atom_site_fract_z
_atom_type_partial_charge
C1    C     C_R   0.879242 0.379534 0.999117 0.881289
C2    C     C_R   0.183997 0.497495 0.182877 -0.111079
C3    C     C_R   0.189129 0.420075 0.166615 -0.210999
C4    C     C_R   0.882480 0.502840 0.880958 0.931552
C5    C     C_R   0.253034 0.419940 0.231525 -0.226945
C6    C     C_R   0.312543 0.497706 0.311231 -0.082126
C7    C     C_R   0.306343 0.572370 0.323743 0.128455
C8    C     C_3   0.342787 0.665569 0.388096 -0.521909
C9    C     C_3   0.271293 0.665543 0.317668 -0.462760
C10   C     C_R   0.256814 0.756255 0.074179 0.131662
C11   C     C_R   0.183560 0.685633 0.998465 -0.091706
C12   C     C_R   0.814745 0.311882 0.998827 -0.093073
C13   C     C_R   0.174301 0.679100 0.919486 -0.215216
C14   C     C_R   0.238776 0.744025 0.919385 -0.214979
C15   C     C_R   0.313416 0.813595 0.998147 -0.099658
C16   C     C_R   0.119881 0.620096 0.000116 0.880406
C17   C     C_R   0.319928 0.816682 0.073948 0.128536
C18   C     C_3   0.375977 0.866843 0.169613 -0.471403
C19   C     C_3   0.303912 0.796649 0.169784 -0.498263
C20   C     C_R   0.498191 0.379633 0.378522 0.917182
C21   C     C_R   0.616418 0.497965 0.614739 0.946182
C22   C     C_R   0.496624 0.620126 0.616559 0.877938
C23   C     C_R   0.746440 0.236753 0.920249 -0.208285
C24   C     C_R   0.377631 0.499689 0.377675 0.879583
C25   C     C_R   0.501528 0.880384 0.881181 0.882432
C26   C     C_R   0.620368 0.120260 0.000306 0.875349
C27   C     C_R   0.498360 0.119795 0.119160 0.891207
C28   C     C_R   0.119113 0.499317 0.118850 0.884799
C29   C     C_R   0.379797 0.879840 0.999679 0.882877
C30   C     C_R   0.461295 0.298540 0.230161 0.063431
C31   C     C_R   0.497016 0.312051 0.313595 -0.131489
C32   C     C_R   0.519444 0.251851 0.330025 0.132969
C33   C     C_R   0.517354 0.186478 0.264706 -0.239805
C34   C     C_R   0.681749 0.172775 0.920213 -0.222833
C35   C     C_R   0.491962 0.180859 0.183728 -0.146058
C36   C     C_R   0.458524 0.233379 0.165701 0.154416
C37   C     C_3   0.481748 0.289081 0.127057 -0.468647
C38   C     C_3   0.484813 0.361102 0.198372 -0.481283
C39   C     C_R   0.515785 0.766122 0.691277 0.135332
C40   C     C_2   0.758269 0.507717 0.681194 -0.131887
C41   C     C_R   0.500060 0.685826 0.685433 -0.104279
C42   C     C_R   0.487492 0.670577 0.749452 -0.210456
C43   C     C_R   0.490207 0.735926 0.816246 -0.222133
C44   C     C_R   0.503050 0.815086 0.817245 -0.088629
C45   C     C_R   0.687525 0.183225 0.998899 -0.088399
C46   C     C_R   0.515617 0.827429 0.753602 0.128232
C47   C     C_3   0.530158 0.889423 0.720084 -0.503450
C48   C     C_3   0.529818 0.818753 0.648020 -0.476326
C49   C     C_2   0.680572 0.490587 0.675719 -0.309218
C50   C     C_2   0.819661 0.496252 0.742562 -0.143549
C51   C     C_2   0.822683 0.512288 0.818035 -0.337910
C52   C     C_R   0.824415 0.316286 0.076391 0.111702
C53   C     C_R   0.761912 0.251815 0.076370 0.144428
C54   C     C_3   0.768530 0.316102 0.154522 -0.507861
C55   C     C_3   0.837362 0.387374 0.154332 -0.463961
C56   C     C_R   0.243786 0.571968 0.262727 0.135341
H1    H     H_    0.775067 0.525884 0.637818 0.167521
H2    H     H_    0.231215 0.739166 0.858534 0.161399
H3    H     H_    0.438445 0.865331 0.191014 0.211929
H4    H     H_    0.659810 0.462625 0.711959 0.158676
H5    H     H_    0.382225 0.932928 0.198554 0.206012
H6    H     H_    0.324675 0.754143 0.190403 0.194020
H7    H     H_    0.268977 0.822201 0.199584 0.215362
H8    H     H_    0.538746 0.142684 0.278288 0.186493
H9    H     H_    0.546587 0.304875 0.131579 0.192024
H10   H     H_    0.427348 0.263312 0.061883 0.207255
H11   H     H_    0.551459 0.418849 0.244389 0.218475
H12   H     H_    0.903723 0.419740 0.210663 0.202866
H13   H     H_    0.432159 0.376866 0.174381 0.202749
H14   H     H_    0.476135 0.609073 0.748066 0.164578
H15   H     H_    0.864485 0.477960 0.727141 0.167052
H16   H     H_    0.480202 0.724008 0.865195 0.155391
H17   H     H_    0.473283 0.899810 0.696722 0.213399
H18   H     H_    0.594860 0.950061 0.764916 0.199083
H19   H     H_    0.472632 0.788378 0.583230 0.196468
H20   H     H_    0.594202 0.838670 0.650843 0.213019
H21   H     H_    0.785065 0.540234 0.837641 0.155320
H22   H     H_    0.740771 0.229965 0.859340 0.163357
H23   H     H_    0.143435 0.360130 0.105115 0.167659
H24   H     H_    0.626704 0.116781 0.859447 0.155038
H25   H     H_    0.707540 0.320153 0.140811 0.194364
H26   H     H_    0.795194 0.307181 0.210843 0.212767
H27   H     H_    0.816263 0.432782 0.140318 0.215633
H28   H     H_    0.256513 0.360287 0.219527 0.153301
H29   H     H_    0.333062 0.672055 0.444166 0.197753
H30   H     H_    0.410260 0.707997 0.404124 0.212106
H31   H     H_    0.220938 0.672853 0.333605 0.210862
H32   H     H_    0.297354 0.707678 0.292627 0.195724
H33   H     H_    0.117559 0.624893 0.858768 0.156293
I1    I     I_    0.566361 0.262089 0.453435 -0.386104
O1    O     O_R   0.908050 0.460100 0.051390 -0.624752
O2    O     O_R   0.551950 0.908320 0.960240 -0.621110
O3    O     O_R   0.540220 0.091590 0.948580 -0.624625
O4    O     O_R   0.908730 0.356680 0.948620 -0.622789
O5    O     O_R   0.643000 0.091540 0.051310 -0.617561
O6    O     O_R   0.448050 0.091580 0.039660 -0.619304
O7    O     O_R   0.550830 0.091520 0.142390 -0.624839
O8    O     O_R   0.357000 0.908370 0.948590 -0.622970
O9    O     O_R   0.459780 0.908310 0.051320 -0.624856
O10   O     O_R   0.908630 0.551710 0.960350 -0.622829
O11   O     O_R   0.909310 0.448290 0.857570 -0.616043
O12   O     O_R   0.445680 0.356610 0.405790 -0.602803
O13   O     O_R   0.091270 0.643320 0.051380 -0.621714
O14   O     O_R   0.091950 0.539900 0.948610 -0.625237
O15   O     O_R   0.090690 0.551710 0.142430 -0.624883
O16   O     O_R   0.091370 0.448290 0.039650 -0.624680
O17   O     O_R   0.549120 0.460050 0.405790 -0.627717
O18   O     O_R   0.639540 0.551640 0.587850 -0.620695
O19   O     O_R   0.536110 0.448210 0.587860 -0.609880
O20   O     O_R   0.547900 0.643240 0.587840 -0.622921
O21   O     O_R   0.444470 0.539800 0.587850 -0.627192
O22   O     O_R   0.457480 0.551640 0.405780 -0.625258
O23   O     O_R   0.354050 0.448210 0.405780 -0.621727
O24   O     O_R   0.449170 0.908380 0.857510 -0.624880
Zn1   Zn    Zn3+2 0.999540 0.569060 0.068630 0.947531
Zn2   Zn    Zn3+2 0.000460 0.430940 0.931370 0.956809
Zn3   Zn    Zn3+2 0.565860 0.568990 0.496810 0.951074
Zn4   Zn    Zn3+2 0.427730 0.430860 0.496820 0.980540
Zn5   Zn    Zn3+2 0.431370 0.999990 0.931350 0.951472
Zn6   Zn    Zn3+2 0.568630 0.999910 0.068550 0.957267

loop_
_geom_bond_atom_site_label_1
_geom_bond_atom_site_label_2
_ccdc_geom_bond_type
C43   H16   S    
C41   C42   A    
C48   H20   S    
O6    Zn5   S    
C35   C36   A    
C24   O22   A    
C43   C44   A    
C3    H23   S    
C21   C49   S    
C55   H12   S    
C7    C8    S    
C39   C41   A    
C53   C54   S    
O10   Zn1   S    
C12   C23   A    
C30   C38   S    
C49   H4    S    
C29   O8    A    
O21   Zn4   S    
C5    C6    A    
C36   C37   S    
C18   C19   S    
C9    H32   S    
C30   C31   A    
C22   C41   S    
C20   O12   A    
C10   C17   A    
C40   C49   D    
C42   H14   S    
C25   C44   S    
C8    H29   S    
C46   C47   S    
C26   C45   S    
C34   H24   S    
O9    Zn6   S    
O14   Zn2   S    
C16   O14   A    
C32   I1    S    
C31   C32   A    
C28   O16   A    
C1    O4    A    
C22   O20   A    
C37   H9    S    
C28   O15   A    
O24   Zn5   S    
O12   Zn4   S    
C52   C55   S    
C20   O17   A    
C26   O3    A    
C38   H13   S    
C45   C53   A    
C24   O23   A    
C1    O1    A    
C13   C14   A    
C37   H10   S    
C48   H19   S    
C27   O6    A    
C1    C12   S    
C7    C56   A    
O20   Zn3   S    
C12   C52   A    
C44   C46   A    
O19   Zn4   S    
C15   C29   S    
C14   H2    S    
C29   O9    A    
C4    C51   S    
C19   H6    S    
O8    Zn5   S    
C47   H17   S    
C19   H7    S    
C9    C56   S    
C5    H28   S    
O4    Zn2   S    
C8    C9    S    
C27   C35   S    
O16   Zn2   S    
O13   Zn1   S    
C50   H15   S    
C51   H21   S    
C37   C38   S    
C11   C16   S    
C16   O13   A    
C47   C48   S    
C10   C19   S    
C23   C34   A    
C6    C24   S    
C4    O11   A    
C17   C18   S    
C50   C51   D    
C34   C45   A    
C39   C46   A    
C4    O10   A    
C42   C43   A    
C55   H27   S    
C54   H26   S    
C52   C53   A    
C26   O5    A    
C15   C17   A    
C54   C55   S    
C27   O7    A    
C25   O2    A    
C40   H1    S    
C13   H33   S    
O18   Zn3   S    
O15   Zn1   S    
C47   H18   S    
C3    C5    A    
C21   O19   A    
C18   H5    S    
C6    C7    A    
O5    Zn6   S    
C30   C36   A    
C32   C33   A    
O7    Zn6   S    
C2    C3    A    
O2    Zn6   S    
C2    C56   A    
C25   O24   A    
C9    H31   S    
C11   C13   A    
O22   Zn3   S    
C33   H8    S    
C40   C50   S    
C33   C35   A    
O1    Zn1   S    
C8    H30   S    
C23   H22   S    
C21   O18   A    
C10   C11   A    
O23   Zn4   S    
C18   H3    S    
C38   H11   S    
C22   O21   A    
O11   Zn2   S    
C14   C15   A    
C2    C28   S    
O3    Zn5   S    
O17   Zn3   S    
C54   H25   S    
C39   C48   S    
C20   C31   S    
