data_mof_unit_31364.cif
_audit_creation_date              2013-03-05T16:06:01-0500
_audit_creation_method            fapswitch 2.2
_symmetry_space_group_name_H-M    P1
_symmetry_Int_Tables_number       1
_space_group_crystal_system       triclinic
_cell_length_a                    10.587778
_cell_length_b                    15.072444
_cell_length_c                    15.221544
_cell_angle_alpha                 82.349231
_cell_angle_beta                  89.87905
_cell_angle_gamma                 103.85099
_cell_volume                      2336.02226089

loop_
_atom_site_label
_atom_site_type_symbol
_atom_site_description
_atom_site_fract_x
_atom_site_fract_y
_atom_site_fract_z
_atom_type_partial_charge
O1    O     O_R   0.462600 0.383110 0.605620 -0.597658
O2    O     O_R   0.537400 0.616890 0.394380 -0.565887
O3    O     O_R   0.510210 0.531900 0.639510 -0.617663
O4    O     O_R   0.489790 0.468100 0.360490 -0.610287
C1    C     C_R   0.479765 0.441807 0.662893 0.945321
C2    C     C_R   0.528507 0.557777 0.337260 0.916442
O5    O     O_R   0.662240 0.425610 0.483080 -0.583869
O6    O     O_R   0.337760 0.574390 0.516920 -0.619554
O7    O     O_R   0.709860 0.574400 0.516970 -0.604614
O8    O     O_R   0.290140 0.425600 0.483030 -0.624794
C3    C     C_R   0.742250 0.500886 0.500405 0.950371
C4    C     C_R   0.258297 0.499319 0.499992 0.955433
Zn1   Zn    Zn3+2 0.468210 0.400660 0.477370 1.034164
Zn2   Zn    Zn3+2 0.531790 0.599340 0.522630 1.027691
C5    C     C_3   0.936214 0.436137 0.565559 -0.021283
C6    C     C_3   0.066292 0.565669 0.436912 -0.032321
C7    C     C_3   0.050211 0.517528 0.578595 0.287815
C8    C     C_3   0.953025 0.484331 0.423122 0.302769
C9    C     C_3   0.123713 0.498139 0.499725 -0.224235
C10   C     C_3   0.878096 0.503352 0.502055 -0.202939
C11   C     C_3   0.010428 0.416255 0.485464 0.068506
C12   C     C_3   0.992005 0.585268 0.516682 0.070609
C13   C     C_R   0.477450 0.404598 0.757305 -0.213412
C14   C     C_R   0.581398 0.589780 0.245149 -0.192690
C15   C     C_R   0.431367 0.277625 0.879190 0.242956
C16   C     C_R   0.734096 0.691628 0.132623 0.248721
C17   C     C_R   0.418278 0.311415 0.789821 0.245061
C18   C     C_R   0.678937 0.672499 0.219887 0.264029
C19   C     C_R   0.546213 0.462469 0.814160 -0.198226
C20   C     C_R   0.549452 0.526133 0.185006 -0.176905
C21   C     C_R   0.564169 0.429677 0.902280 0.093162
C22   C     C_R   0.619524 0.537580 0.104841 0.104330
C23   C     C_R   0.500576 0.337558 0.936137 -0.068938
C24   C     C_R   0.703125 0.624345 0.074657 -0.067097
C25   C     C_R   0.631687 0.489909 0.959945 -0.038009
C26   C     C_R   0.601577 0.465702 0.051589 -0.041799
C27   C     C_R   0.554384 0.370727 0.085561 0.264008
C28   C     C_R   0.723931 0.574472 0.930505 0.280633
C29   C     C_R   0.503675 0.308158 0.027045 -0.163564
C30   C     C_R   0.759352 0.639978 0.988765 -0.158995
H1    H     H_    0.463543 0.236698 0.053599 0.233853
H2    H     H_    0.831567 0.703073 0.966246 0.233262
H3    H     H_    0.472177 0.464537 0.202723 0.173076
H4    H     H_    0.582870 0.534714 0.789402 0.196469
N1    N     N_R   0.574200 0.731700 0.552740 -0.115406
N2    N     N_R   0.425800 0.268300 0.447260 -0.121911
C31   C     C_R   0.699995 0.840961 0.635603 -0.216612
C32   C     C_R   0.319769 0.162315 0.353541 -0.170283
C33   C     C_R   0.667234 0.752978 0.612395 0.046810
C34   C     C_R   0.349268 0.250121 0.377654 0.078852
C35   C     C_R   0.510006 0.793399 0.514026 0.076699
C36   C     C_R   0.468407 0.201703 0.498477 0.097162
C37   C     C_R   0.548537 0.886707 0.527338 0.020662
C38   C     C_R   0.458571 0.114709 0.470200 0.017168
C39   C     C_R   0.640199 0.907763 0.593570 0.074031
C40   C     C_R   0.378112 0.095497 0.397404 0.084922
C41   C     C_R   0.497302 0.958241 0.479885 -0.075059
C42   C     C_R   0.524032 0.047064 0.510300 -0.058685
C43   C     C_R   0.619520 0.064899 0.576458 0.346853
C44   C     C_R   0.425045 0.945869 0.401220 0.277162
C45   C     C_R   0.673934 0.995467 0.616819 -0.192155
C46   C     C_R   0.361679 0.012170 0.364920 -0.174599
H5    H     H_    0.747800 0.011549 0.665474 0.201355
H6    H     H_    0.306596 0.001418 0.305621 0.210568
H7    H     H_    0.507615 0.219123 0.560490 0.185457
H8    H     H_    0.428714 0.767610 0.474480 0.138245
H9    H     H_    0.311609 0.304152 0.340916 0.129669
H10   H     H_    0.713752 0.700704 0.642934 0.165003
H11   H     H_    0.772261 0.856921 0.685172 0.191442
H12   H     H_    0.258288 0.148437 0.297670 0.176085
N3    N     N_R   0.108897 0.532456 0.663760 0.231562
O9    O     O_R   0.113207 0.608581 0.696276 -0.316690
O10   O     O_R   0.157497 0.469086 0.707708 -0.350321
N4    N     N_R   0.899575 0.469677 0.336644 0.243111
O11   O     O_R   0.913498 0.399426 0.299825 -0.319615
O12   O     O_R   0.852463 0.532955 0.291321 -0.359315
N5    N     N_R   0.678626 0.155134 0.595767 0.163324
O13   O     O_R   0.695376 0.169598 0.677826 -0.377903
O14   O     O_R   0.738242 0.217315 0.532189 -0.441617
N6    N     N_R   0.433090 0.875804 0.347628 0.181416
O15   O     O_R   0.334464 0.841060 0.301629 -0.380202
O16   O     O_R   0.546378 0.862769 0.328762 -0.305304
C47   C     C_3   0.862987 0.370443 0.643685 -0.568305
H13   H     H_    0.912159 0.313744 0.662237 0.288993
H14   H     H_    0.860820 0.408092 0.701239 0.253949
H15   H     H_    0.761025 0.342891 0.626475 0.261601
C48   C     C_3   0.142187 0.637271 0.363838 -0.640796
H16   H     H_    0.076411 0.676664 0.329223 0.295683
H17   H     H_    0.221240 0.685160 0.393683 0.246459
H18   H     H_    0.185048 0.602615 0.315621 0.228728
C49   C     C_3   0.025694 0.322793 0.465385 -0.613444
H19   H     H_    0.932829 0.282019 0.443872 0.294431
H20   H     H_    0.098112 0.332731 0.410000 0.218181
H21   H     H_    0.058042 0.284619 0.525118 0.254243
C50   C     C_3   0.985280 0.680836 0.535414 -0.657300
H22   H     H_    0.085079 0.722953 0.542985 0.238739
H23   H     H_    0.940345 0.715770 0.479776 0.273729
H24   H     H_    0.926774 0.674764 0.597404 0.257626
N7    N     N_R   0.730961 0.733045 0.283277 0.246887
O17   O     O_R   0.785448 0.701167 0.352955 -0.377129
O18   O     O_R   0.754024 0.821962 0.261230 -0.247527
N8    N     N_R   0.341374 0.251531 0.733703 0.237461
O19   O     O_R   0.364780 0.171827 0.726608 -0.325408
O20   O     O_R   0.241757 0.273667 0.694743 -0.339962
N9    N     N_R   0.368522 0.183756 0.912647 0.227431
O21   O     O_R   0.437845 0.125680 0.940339 -0.294800
O22   O     O_R   0.242767 0.154591 0.909283 -0.271069
N10   N     N_R   0.830297 0.775828 0.105882 0.231558
O23   O     O_R   0.803969 0.838876 0.046700 -0.300470
O24   O     O_R   0.944647 0.789168 0.140159 -0.281098
N11   N     N_R   0.572510 0.335033 0.176080 0.202999
O25   O     O_R   0.670110 0.376507 0.219087 -0.271793
O26   O     O_R   0.510332 0.251834 0.208718 -0.395077
N12   N     N_R   0.795389 0.589689 0.847107 0.201417
O27   O     O_R   0.831607 0.521937 0.818008 -0.359569
O28   O     O_R   0.839355 0.673008 0.806076 -0.392188

loop_
_geom_bond_atom_site_label_1
_geom_bond_atom_site_label_2
_geom_bond_distance
_ccdc_geom_bond_type
C28   C30   1.399704 A    
C48   H16   1.109680 S    
C33   H10   1.081057 S    
C8    C11   1.537676 S    
C12   C50   1.523040 S    
C37   C39   1.414498 A    
C50   H22   1.109771 S    
C43   N5    1.423904 S    
N12   O27   1.301253 A    
C50   H24   1.108973 S    
C15   N9    1.435204 S    
C29   H1    1.080844 S    
N5    O13   1.301573 A    
O5    C3    1.301878 A    
N9    O22   1.301813 A    
C23   C29   1.398620 A    
N4    O12   1.299395 A    
C24   C30   1.402414 A    
C13   C19   1.392641 A    
C26   C27   1.423239 A    
C9    C11   1.540344 S    
C11   C49   1.525580 S    
Zn1   N2    2.051117 S    
C28   N12   1.439394 S    
N1    C35   1.353676 A    
N2    C36   1.352328 A    
N10   O23   1.300848 A    
C44   C46   1.389098 A    
O4    Zn1   1.912114 S    
C45   H5    1.085527 S    
C31   H11   1.084090 S    
C46   H6    1.084915 S    
C16   C24   1.412346 A    
C47   H13   1.109277 S    
C6    C48   1.519542 S    
C6    C12   1.543672 S    
C21   C23   1.416748 A    
C13   C17   1.415042 A    
C34   H9    1.081685 S    
C32   C34   1.384096 A    
C8    N4    1.456869 S    
O2    C2    1.313431 A    
C31   C33   1.381566 A    
C36   C38   1.414382 A    
Zn2   N1    2.051117 S    
N5    O14   1.298456 A    
C5    C10   1.542605 S    
C38   C40   1.417283 A    
C3    C10   1.430221 S    
C43   C45   1.386909 A    
N4    O11   1.299767 A    
C25   C28   1.424517 A    
N6    O16   1.298539 A    
C16   N10   1.433713 S    
C49   H19   1.103308 S    
N3    O10   1.300473 A    
C21   C25   1.417653 A    
C37   C41   1.432763 A    
C41   C44   1.431383 A    
C5    C47   1.520109 S    
C42   C43   1.433438 A    
C35   C37   1.409573 A    
C35   H8    1.076358 S    
C22   C24   1.410275 A    
O7    Zn2   2.012612 S    
C49   H20   1.108929 S    
N7    O17   1.299292 A    
C1    C13   1.469364 S    
N1    C33   1.351939 A    
O6    C4    1.295101 A    
C2    C14   1.483018 S    
N11   O26   1.300087 A    
C6    C8    1.533261 S    
N8    O20   1.301492 A    
O7    C3    1.290306 A    
O3    Zn2   1.912114 S    
O8    C4    1.292403 A    
C18   N7    1.436392 S    
O4    C2    1.314104 A    
N7    O18   1.300605 A    
C10   C12   1.545932 S    
C7    N3    1.459904 S    
C48   H17   1.107976 S    
C19   H4    1.079887 S    
C40   C46   1.383205 A    
C20   H3    1.082939 S    
O1    Zn1   1.933633 S    
C22   C26   1.415181 A    
O1    C1    1.305684 A    
C31   C39   1.399764 A    
C38   C42   1.437663 A    
C32   C40   1.400769 A    
C44   N6    1.435307 S    
O6    Zn2   2.002218 S    
N11   O25   1.299888 A    
C47   H14   1.108411 S    
C14   C18   1.422335 A    
C32   H12   1.084093 S    
N6    O15   1.301456 A    
O3    C1    1.317489 A    
O8    Zn1   2.012610 S    
N12   O28   1.301496 A    
C50   H23   1.106232 S    
C5    C7    1.535583 S    
C15   C17   1.406853 A    
N9    O21   1.301276 A    
N2    C34   1.352353 A    
C17   N8    1.436550 S    
C16   C18   1.415169 A    
C7    C12   1.535547 S    
N3    O9    1.299916 A    
C19   C21   1.396105 A    
C49   H21   1.109701 S    
C20   C22   1.395713 A    
C41   C42   1.439081 A    
C5    C11   1.549064 S    
C6    C9    1.536026 S    
C39   C45   1.378158 A    
C4    C9    1.420819 S    
C30   H2    1.081873 S    
C7    C9    1.526646 S    
N10   O24   1.300975 A    
C8    C10   1.533542 S    
N8    O19   1.301264 A    
O2    Zn2   1.933630 S    
C14   C20   1.397346 A    
C27   N11   1.441485 S    
O5    Zn1   2.002219 S    
C47   H15   1.105449 S    
C27   C29   1.397944 A    
C48   H18   1.109784 S    
C25   C26   1.409821 A    
C36   H7    1.071320 S    
C15   C23   1.413707 A    
