data_mof_unit_51954.cif
_audit_creation_date              2012-12-11T14:08:01-0500
_audit_creation_method            fapswitch 2.2
_symmetry_space_group_name_H-M    P1
_symmetry_Int_Tables_number       1
_space_group_crystal_system       triclinic
_cell_length_a                    10.930797
_cell_length_b                    10.951891
_cell_length_c                    18.685666
_cell_angle_alpha                 90.498133
_cell_angle_beta                  90.044376
_cell_angle_gamma                 60.399373
_cell_volume                      1944.88490101

loop_
_atom_site_label
_atom_site_type_symbol
_atom_type_description
_atom_site_fract_x
_atom_site_fract_y
_atom_site_fract_z
_atom_type_partial_charge
C1    C     C_R   0.235982 0.645821 0.608569 0.545137
C2    C     C_2   0.782917 0.153555 0.706727 -0.180609
C3    C     C_2   0.178923 0.663754 0.680713 -0.122127
C4    C     C_R   0.654040 0.622701 0.601127 0.541986
C5    C     C_2   0.189454 0.665950 0.838198 -0.113788
C6    C     C_2   0.189674 0.562750 0.799111 -0.180164
C7    C     C_2   0.217576 0.550420 0.722010 -0.178205
C8    C     C_2   0.649604 0.646339 0.317249 -0.092581
C9    C     C_2   0.633658 0.665516 0.159513 -0.104737
C10   C     C_2   0.706979 0.546072 0.195294 -0.161601
C11   C     C_2   0.688014 0.537160 0.271763 -0.148280
C12   C     C_3   0.675777 0.549084 0.800394 -0.035636
C13   C     C_2   0.633019 0.196706 0.318604 -0.101657
C14   C     C_2   0.637385 0.202236 0.164039 -0.107346
C15   C     C_2   0.522777 0.230532 0.201152 -0.165717
C16   C     C_R   0.628374 0.227488 0.601853 0.547210
C17   C     C_2   0.517240 0.257734 0.277098 -0.152044
C18   C     C_2   0.122179 0.680263 0.344897 -0.109468
C19   C     C_2   0.114037 0.691400 0.190676 -0.086540
C20   C     C_2   0.042666 0.803881 0.234210 -0.147549
C21   C     C_2   0.074622 0.799549 0.309561 -0.166618
C22   C     C_R   0.703581 0.101456 0.897368 0.549209
C23   C     C_3   0.700618 0.675116 0.812207 0.087282
C24   C     C_R   0.724973 0.689130 0.887998 0.589295
C25   C     C_R   0.118253 0.706789 0.907210 0.556727
C26   C     C_R   0.673195 0.114268 0.101312 0.556549
C27   C     C_R   0.692356 0.688695 0.094698 0.562589
C28   C     C_R   0.215611 0.651072 0.404521 0.555500
C29   C     C_R   0.086821 0.713403 0.115278 0.555379
C30   C     C_R   0.641249 0.620951 0.392625 0.551151
C31   C     C_R   0.614228 0.233304 0.393448 0.551104
C32   C     C_3   0.575260 0.813215 0.782232 -0.229667
C33   C     C_3   0.554007 0.795143 0.702617 -0.248007
C34   C     C_3   0.670084 0.648377 0.676403 0.045830
C35   C     C_3   0.835150 0.647557 0.770041 -0.253177
C36   C     C_3   0.815679 0.635126 0.689570 -0.257140
C37   C     C_3   0.656562 0.534304 0.719792 -0.204196
C38   C     C_2   0.676247 0.155084 0.670193 -0.122744
C39   C     C_2   0.689618 0.164648 0.827324 -0.121228
C40   C     C_2   0.801422 0.121093 0.783613 -0.177539
Cr1   Cr    Cr6+3 0.393010 0.398050 0.501480 1.015389
Cr2   Cr    Cr6+3 0.398820 0.707980 0.501630 1.018875
Cr3   Cr    Cr6+3 0.708140 0.393940 0.496850 1.012752
Cr4   Cr    Cr6+3 0.937950 0.938450 0.008940 1.020560
Cr5   Cr    Cr6+3 0.626180 0.937030 0.994750 1.022320
Cr6   Cr    Cr6+3 0.937790 0.625760 0.001410 1.020001
H1    H     H_    0.597731 0.901484 0.788541 0.133699
H2    H     H_    0.220824 0.736427 0.814389 0.096225
H3    H     H_    0.121764 0.769325 0.703072 0.103175
H4    H     H_    0.793349 0.454388 0.169873 0.152358
H5    H     H_    0.719417 0.432971 0.291967 0.153513
H6    H     H_    0.541979 0.754344 0.183459 0.110990
H7    H     H_    0.616881 0.751895 0.299060 0.095374
H8    H     H_    0.717467 0.222732 0.186411 0.096799
H9    H     H_    0.738295 0.131118 0.297221 0.082955
H10   H     H_    0.969945 0.906653 0.212728 0.151996
H11   H     H_    0.447801 0.806399 0.695309 0.143551
H12   H     H_    0.738869 0.427931 0.702260 0.127932
H13   H     H_    0.077507 0.889551 0.332594 0.154011
H14   H     H_    0.110582 0.594066 0.323183 0.107249
H15   H     H_    0.557868 0.879134 0.671234 0.118722
H16   H     H_    0.858994 0.734076 0.780019 0.126296
H17   H     H_    0.771067 0.451677 0.818425 0.155326
H18   H     H_    0.553137 0.541153 0.708791 0.127571
H19   H     H_    0.855065 0.180772 0.680926 0.145261
H20   H     H_    0.476373 0.843679 0.812273 0.133608
H21   H     H_    0.438508 0.217477 0.178218 0.156386
H22   H     H_    0.412931 0.323081 0.299866 0.157962
H23   H     H_    0.927609 0.548317 0.788078 0.130071
H24   H     H_    0.188224 0.587376 0.209902 0.086339
H25   H     H_    0.823929 0.719091 0.660507 0.121542
H26   H     H_    0.551663 0.471083 0.837760 0.233145
H27   H     H_    0.462329 0.643473 0.820682 0.230588
H28   H     H_    0.901542 0.532253 0.669506 0.141312
H29   H     H_    0.907726 0.057712 0.803713 0.151284
H30   H     H_    0.583799 0.229083 0.806746 0.101832
H31   H     H_    0.610102 0.119450 0.695563 0.103467
H32   H     H_    0.164508 0.487970 0.823239 0.147740
H33   H     H_    0.272367 0.445030 0.699285 0.157505
N1    N     N_3   0.555590 0.564266 0.842383 -0.636288
O1    O     O_R   0.507110 0.256280 0.580300 -0.521006
O2    O     O_R   0.837080 0.593860 0.915300 -0.530947
O3    O     O_R   0.064770 0.636080 0.932550 -0.503378
O4    O     O_R   0.280830 0.527190 0.577940 -0.500130
O5    O     O_R   0.068250 0.829200 0.092940 -0.513036
O6    O     O_R   0.799650 0.057040 0.080330 -0.509067
O7    O     O_R   0.586130 0.079760 0.077080 -0.511423
O8    O     O_R   0.627700 0.809630 0.066580 -0.494135
O9    O     O_R   0.816140 0.597180 0.075920 -0.509876
O10   O     O_R   0.045360 0.639170 0.081440 -0.494992
O11   O     O_3   0.833980 0.833750 0.001700 -0.257044
O12   O     O_R   0.524640 0.695370 0.425100 -0.491320
O13   O     O_R   0.261360 0.738990 0.584270 -0.521551
O14   O     O_R   0.532590 0.694780 0.574370 -0.507997
O15   O     O_R   0.744470 0.503750 0.577000 -0.529172
O16   O     O_R   0.698520 0.277230 0.571620 -0.498802
O17   O     O_R   0.498530 0.256920 0.419280 -0.513064
O18   O     O_R   0.272880 0.527780 0.428680 -0.508092
O19   O     O_R   0.252780 0.739630 0.423250 -0.508925
O20   O     O_R   0.735890 0.504390 0.415980 -0.513883
O21   O     O_R   0.690560 0.277820 0.422350 -0.503278
O22   O     O_3   0.499990 0.499990 0.499980 -0.250760
O23   O     O_R   0.089190 0.825870 0.932320 -0.516632
O24   O     O_R   0.819070 0.053960 0.931440 -0.495695
O25   O     O_R   0.607070 0.076440 0.916460 -0.523858
O26   O     O_R   0.647110 0.806550 0.917690 -0.507917

loop_
_geom_bond_atom_site_label_1
_geom_bond_atom_site_label_2
_ccdc_geom_bond_type
C18   C21   D    
C35   C36   S    
C20   H10   S    
C2    H19   S    
C38   H31   S    
Cr4   O24   S    
Cr6   O9    S    
C1    O4    A    
C12   C23   S    
C31   O21   A    
C32   H20   S    
Cr5   O7    S    
C21   H13   S    
C3    C7    D    
C5    C6    D    
C6    H32   S    
Cr2   O13   S    
C30   O20   A    
C22   O24   A    
Cr1   O22   S    
C12   C37   S    
C24   O2    A    
Cr1   O17   S    
Cr6   O2    S    
C19   C20   D    
C26   O7    A    
Cr3   O15   S    
C23   C24   S    
C9    C10   D    
C29   O5    A    
C37   H12   S    
C36   H25   S    
C15   H21   S    
C9    H6    S    
Cr4   O6    S    
Cr2   O22   S    
C29   O10   A    
Cr4   O23   S    
Cr5   O25   S    
C33   C34   S    
C3    H3    S    
C5    H2    S    
C4    C34   S    
C16   O16   A    
Cr5   O8    S    
C18   C28   S    
Cr3   O20   S    
C30   O12   A    
C39   C40   D    
C12   H17   S    
C25   O23   A    
Cr6   O11   S    
Cr1   O4    S    
C1    O13   A    
C1    C3    S    
Cr3   O21   S    
C4    O15   A    
C2    C38   D    
C14   C15   D    
C26   O6    A    
Cr1   O1    S    
Cr3   O16   S    
C39   H30   S    
C14   C26   S    
C35   H23   S    
Cr4   O11   S    
C36   H28   S    
C5    C25   S    
C28   O19   A    
C18   H14   S    
C14   H8    S    
C23   C35   S    
C32   H1    S    
C4    O14   A    
C24   O26   A    
Cr4   O5    S    
C10   H4    S    
C37   H18   S    
Cr5   O26   S    
C9    C27   S    
C7    H33   S    
C28   O18   A    
C15   C17   S    
C17   H22   S    
C33   H11   S    
Cr2   O14   S    
C13   C31   S    
C8    H7    S    
C6    C7    S    
Cr6   O10   S    
C34   C37   S    
C22   O25   A    
C40   H29   S    
C13   C17   D    
C8    C30   S    
C23   C32   S    
Cr3   O22   S    
H26   N1    S    
Cr2   O19   S    
C32   C33   S    
C8    C11   D    
C22   C39   S    
C12   N1    S    
C16   O1    A    
H27   N1    S    
C27   O9    A    
C35   H16   S    
Cr2   O12   S    
C31   O17   A    
C27   O8    A    
Cr5   O11   S    
C11   H5    S    
C10   C11   S    
Cr6   O3    S    
C2    C40   S    
C20   C21   S    
C34   C36   S    
C33   H15   S    
C25   O3    A    
Cr1   O18   S    
C19   H24   S    
C16   C38   S    
C13   H9    S    
C19   C29   S    
