data_mof_unit_62592.cif
_audit_creation_date              2012-12-10T19:31:17-0500
_audit_creation_method            fapswitch 2.2
_symmetry_space_group_name_H-M    P1
_symmetry_Int_Tables_number       1
_space_group_crystal_system       triclinic
_cell_length_a                    35.976648
_cell_length_b                    43.223844
_cell_length_c                    28.100648
_cell_angle_alpha                 89.999857
_cell_angle_beta                  129.656005
_cell_angle_gamma                 90.000128
_cell_volume                      33642.5565396

loop_
_atom_site_label
_atom_site_type_symbol
_atom_type_description
_atom_site_fract_x
_atom_site_fract_y
_atom_site_fract_z
_atom_type_partial_charge
C1    C     C_R   0.599739 0.250038 0.999932 0.820363
C2    C     C_R   0.470795 0.016126 0.944033 -0.180109
C3    C     C_R   0.809376 0.730210 0.666357 -0.178489
C4    C     C_R   0.309500 0.769893 0.666356 -0.178512
C5    C     C_R   0.690481 0.230091 0.333643 -0.178510
C6    C     C_R   0.690624 0.769790 0.333643 -0.178514
C7    C     C_R   0.309345 0.230236 0.666358 -0.178515
C8    C     C_R   0.816391 0.249928 0.633205 0.024000
C9    C     C_R   0.183607 0.750071 0.366795 0.024005
C10   C     C_R   0.183599 0.249933 0.366795 0.024015
C11   C     C_R   0.816399 0.750067 0.633205 0.024013
C12   C     C_R   0.316392 0.749928 0.633205 0.024063
C13   C     C_R   0.470795 0.983874 0.944033 -0.180117
C14   C     C_R   0.683609 0.250072 0.366795 0.024059
C15   C     C_R   0.683601 0.749932 0.366795 0.024071
C16   C     C_R   0.316400 0.250067 0.633205 0.024073
C17   C     C_R   0.856223 0.229902 0.665550 -0.264375
C18   C     C_R   0.143755 0.770080 0.334450 -0.264379
C19   C     C_R   0.143581 0.230062 0.334450 -0.264386
C20   C     C_R   0.856385 0.769966 0.665551 -0.264385
C21   C     C_R   0.356244 0.729919 0.665550 -0.264541
C22   C     C_R   0.643778 0.270098 0.334450 -0.264538
C23   C     C_R   0.643616 0.730033 0.334449 -0.264549
C24   C     C_R   0.529205 0.016126 0.055967 -0.180118
C25   C     C_R   0.356418 0.269939 0.665550 -0.264549
C26   C     C_R   0.888724 0.229738 0.729966 0.636333
C27   C     C_R   0.111255 0.770245 0.270033 0.636329
C28   C     C_R   0.111080 0.229899 0.270033 0.636326
C29   C     C_R   0.888885 0.770130 0.729967 0.636326
C30   C     C_R   0.388745 0.729755 0.729967 0.636082
C31   C     C_R   0.611277 0.270263 0.270033 0.636086
C32   C     C_R   0.611115 0.729869 0.270033 0.636080
C33   C     C_R   0.388919 0.270102 0.729967 0.636080
C34   C     C_R   0.881845 0.249766 0.763361 -0.146601
C35   C     C_R   0.029196 0.483874 0.055967 -0.180020
C36   C     C_R   0.118154 0.750233 0.236638 -0.146599
C37   C     C_R   0.118145 0.249773 0.236638 -0.146603
C38   C     C_R   0.881854 0.750228 0.763362 -0.146603
C39   C     C_R   0.381846 0.749766 0.763362 -0.146528
C40   C     C_R   0.618155 0.250234 0.236639 -0.146529
C41   C     C_R   0.618147 0.749772 0.236638 -0.146533
C42   C     C_R   0.381855 0.250227 0.763362 -0.146533
C43   C     C_R   0.766988 0.221965 0.532138 -0.182411
C44   C     C_R   0.232979 0.778034 0.467861 -0.182414
C45   C     C_R   0.232733 0.221973 0.467858 -0.182422
C46   C     C_R   0.970804 0.516126 0.944033 -0.180021
C47   C     C_R   0.767219 0.778028 0.532142 -0.182421
C48   C     C_R   0.267021 0.721965 0.532139 -0.182560
C49   C     C_R   0.733012 0.278036 0.467862 -0.182557
C50   C     C_R   0.732781 0.721972 0.467858 -0.182567
C51   C     C_R   0.267267 0.278027 0.532142 -0.182569
C52   C     C_R   0.735059 0.221992 0.467712 -0.180192
C53   C     C_R   0.264909 0.778007 0.532287 -0.180192
C54   C     C_R   0.264666 0.221999 0.532283 -0.180182
C55   C     C_R   0.735286 0.778002 0.467716 -0.180186
C56   C     C_R   0.235091 0.721992 0.467713 -0.180261
C57   C     C_R   0.970804 0.483874 0.944033 -0.180030
C58   C     C_R   0.764941 0.278008 0.532288 -0.180261
C59   C     C_R   0.764714 0.721998 0.532284 -0.180256
C60   C     C_R   0.235334 0.278001 0.467717 -0.180253
C61   C     C_R   0.717779 0.250027 0.435016 0.140915
C62   C     C_R   0.282222 0.749973 0.564984 0.140917
C63   C     C_R   0.282226 0.250025 0.564984 0.140917
C64   C     C_R   0.717775 0.749974 0.435016 0.140919
C65   C     C_R   0.217778 0.750027 0.435016 0.140901
C66   C     C_R   0.782221 0.249973 0.564984 0.140899
C67   C     C_R   0.782226 0.750025 0.564984 0.140902
C68   C     C_R   0.029196 0.516126 0.055967 -0.180028
C69   C     C_R   0.217774 0.249975 0.435016 0.140901
C70   C     C_R   0.496406 0.615322 0.040046 -0.177063
C71   C     C_R   0.503591 0.384678 0.959952 -0.177084
C72   C     C_R   0.503593 0.615322 0.959954 -0.176976
C73   C     C_R   0.496410 0.384678 0.040049 -0.176965
C74   C     C_R   0.996491 0.115322 0.040122 -0.177173
C75   C     C_R   0.003499 0.884678 0.959869 -0.177155
C76   C     C_R   0.003508 0.115322 0.959877 -0.177061
C77   C     C_R   0.996501 0.884677 0.040131 -0.177072
C78   C     C_R   0.500000 0.334214 0.000000 0.781055
C79   C     C_R   0.500000 0.032536 0.000000 0.104773
C80   C     C_R   0.500000 0.665786 0.000000 0.781060
C81   C     C_R   1.000000 0.834214 0.000000 0.781088
C82   C     C_R   1.000000 0.165786 1.000000 0.781084
C83   C     C_R   0.496426 0.583072 0.040054 -0.177737
C84   C     C_R   0.503571 0.416927 0.959943 -0.177735
C85   C     C_R   0.503574 0.583073 0.959945 -0.177744
C86   C     C_R   0.496430 0.416927 0.040058 -0.177746
C87   C     C_R   0.996474 0.083073 0.040097 -0.177666
C88   C     C_R   0.003516 0.916927 0.959894 -0.177668
C89   C     C_R   0.003525 0.083073 0.959902 -0.177668
C90   C     C_R   0.500000 0.967464 1.000000 0.104773
C91   C     C_R   0.996484 0.916927 0.040106 -0.177669
C92   C     C_R   0.500000 0.566670 1.000000 0.109906
C93   C     C_R   0.500000 0.433330 0.000000 0.109909
C94   C     C_R   1.000000 0.066670 1.000000 0.109875
C95   C     C_R   1.000000 0.933330 0.000000 0.109870
C96   C     C_R   0.500000 0.165847 0.000000 0.786160
C97   C     C_R   0.500000 0.834153 1.000000 0.786158
C98   C     C_R   0.000000 0.665847 0.000000 0.786178
C99   C     C_R   1.000000 0.334153 1.000000 0.786180
C100  C     C_R   0.456466 0.884641 0.960136 -0.186545
C101  C     C_R   0.000000 0.532536 0.000000 0.104808
C102  C     C_R   0.543534 0.115359 0.039864 -0.186548
C103  C     C_R   0.543533 0.884641 0.039863 -0.186530
C104  C     C_R   0.456467 0.115359 0.960137 -0.186523
C105  C     C_R   0.956467 0.384641 0.960129 -0.186503
C106  C     C_R   0.043533 0.615359 0.039871 -0.186501
C107  C     C_R   0.043533 0.384641 0.039871 -0.186479
C108  C     C_R   0.956467 0.615359 0.960129 -0.186486
C109  C     C_R   0.456478 0.916896 0.960128 -0.179518
C110  C     C_R   0.543522 0.083104 0.039872 -0.179517
C111  C     C_R   0.543522 0.916896 0.039872 -0.179517
C112  C     C_R   0.400261 0.749962 0.000068 0.820347
C113  C     C_R   1.000000 0.467464 1.000000 0.104808
C114  C     C_R   0.456478 0.083104 0.960128 -0.179517
C115  C     C_R   0.956479 0.416896 0.960120 -0.179447
C116  C     C_R   0.043521 0.583104 0.039880 -0.179447
C117  C     C_R   0.043521 0.416896 0.039880 -0.179447
C118  C     C_R   0.956479 0.583104 0.960120 -0.179447
C119  C     C_R   0.500000 0.933306 1.000000 0.113493
C120  C     C_R   0.500000 0.066694 0.000000 0.113492
C121  C     C_R   1.000000 0.433306 1.000000 0.113460
C122  C     C_R   1.000000 0.566693 0.000000 0.113460
C123  C     C_R   0.500000 0.467474 0.000000 0.104321
C124  C     C_R   0.473180 0.516123 0.944016 -0.178180
C125  C     C_R   0.500000 0.532526 0.000000 0.104321
C126  C     C_R   1.000000 0.967474 1.000000 0.105420
C127  C     C_R   1.000000 0.032525 1.000000 0.105424
C128  C     C_R   0.500000 0.868221 1.000000 -0.005465
C129  C     C_R   0.500000 0.131778 0.000000 -0.005467
C130  C     C_R   1.000000 0.368222 1.000000 -0.005494
C131  C     C_R   0.000000 0.631778 0.000000 -0.005492
C132  C     C_R   0.526820 0.483877 0.055984 -0.178177
C133  C     C_R   0.526820 0.516123 0.055984 -0.178195
C134  C     C_R   0.473181 0.483877 0.944016 -0.178197
C135  C     C_R   0.032052 0.016123 0.996835 -0.177761
C136  C     C_R   0.967948 0.983876 0.003165 -0.177760
C137  C     C_R   0.967948 0.016123 0.003165 -0.177746
C138  C     C_R   0.032052 0.983877 0.996835 -0.177744
C139  C     C_R   0.500000 0.631733 1.000000 -0.011724
C140  C     C_R   0.400261 0.250038 0.000068 0.820267
C141  C     C_R   0.500000 0.368267 0.000000 -0.011721
C142  C     C_R   1.000000 0.131733 1.000000 -0.011681
C143  C     C_R   0.000000 0.868267 0.000000 -0.011685
C144  C     C_3   0.745475 0.721746 0.015701 -0.161921
C145  C     C_3   0.254972 0.278376 0.985199 -0.161833
C146  C     C_3   0.254497 0.721754 0.984243 -0.161930
C147  C     C_3   0.745537 0.278237 0.015824 -0.161937
C148  C     C_3   0.245028 0.221624 0.014801 -0.162055
C149  C     C_3   0.754524 0.778254 0.984299 -0.162141
C150  C     C_3   0.754463 0.221763 0.984176 -0.162157
C151  C     C_R   0.599739 0.749962 0.999932 0.820278
C152  C     C_3   0.245503 0.778246 0.015757 -0.162149
C153  C     C_3   0.290520 0.242258 0.056515 -0.158684
C154  C     C_3   0.709362 0.757291 0.943245 -0.158584
C155  C     C_3   0.709346 0.242771 0.943214 -0.158530
C156  C     C_3   0.290645 0.757263 0.056769 -0.158545
C157  C     C_3   0.790638 0.742709 0.056755 -0.158588
C158  C     C_3   0.209480 0.257742 0.943485 -0.158684
C159  C     C_3   0.209355 0.742737 0.943231 -0.158549
C160  C     C_3   0.790654 0.257229 0.056786 -0.158534
C161  C     C_1   0.360562 0.250071 0.000143 -0.134490
C162  C     C_R   0.099739 0.750038 0.999932 0.820317
C163  C     C_1   0.639438 0.749929 0.999857 -0.134481
C164  C     C_1   0.639438 0.250071 0.999857 -0.134415
C165  C     C_1   0.360562 0.749929 0.000143 -0.134428
C166  C     C_1   0.860562 0.750071 0.000143 -0.134564
C167  C     C_1   0.139438 0.249929 0.999857 -0.134572
C168  C     C_1   0.139438 0.750071 0.999857 -0.134510
C169  C     C_1   0.860562 0.249929 0.000143 -0.134498
C170  C     C_3   0.241690 0.229405 0.958366 -0.158925
C171  C     C_3   0.757981 0.770924 0.040974 -0.158947
C172  C     C_3   0.757935 0.229031 0.040882 -0.158949
C173  C     C_R   0.900261 0.249962 0.000068 0.820332
C174  C     C_3   0.242040 0.770944 0.959068 -0.158946
C175  C     C_3   0.742019 0.729076 0.959026 -0.158792
C176  C     C_3   0.258310 0.270595 0.041634 -0.158773
C177  C     C_3   0.257960 0.729055 0.040932 -0.158790
C178  C     C_3   0.742065 0.270969 0.959118 -0.158791
C179  C     C_3   0.286529 0.250039 0.000079 0.196425
C180  C     C_3   0.713471 0.749961 0.999920 0.196421
C181  C     C_3   0.713471 0.250039 0.999920 0.196388
C182  C     C_3   0.286529 0.749961 0.000080 0.196394
C183  C     C_3   0.786529 0.750039 0.000080 0.196441
C184  C     C_R   0.900261 0.750038 0.000068 0.820248
C185  C     C_3   0.213471 0.249961 0.999921 0.196447
C186  C     C_3   0.213471 0.750039 0.999920 0.196414
C187  C     C_3   0.786529 0.249961 0.000080 0.196408
C188  C     C_1   0.327144 0.250069 0.000141 -0.077841
C189  C     C_1   0.672856 0.749931 0.999858 -0.077835
C190  C     C_1   0.672856 0.250069 0.999858 -0.077770
C191  C     C_1   0.327144 0.749931 0.000141 -0.077782
C192  C     C_1   0.827144 0.750069 0.000141 -0.077906
C193  C     C_1   0.172856 0.249931 0.999859 -0.077912
C194  C     C_1   0.172856 0.750069 0.999858 -0.077854
C195  C     C_R   0.099739 0.249962 0.999932 0.820236
C196  C     C_1   0.827144 0.249931 0.000141 -0.077842
C197  C     C_R   0.415839 0.250084 0.831583 0.829375
C198  C     C_R   0.584162 0.749915 0.168417 0.829376
C199  C     C_R   0.584165 0.250087 0.168418 0.829370
C200  C     C_R   0.415836 0.749913 0.831582 0.829369
C201  C     C_R   0.915838 0.750085 0.831582 0.829442
C202  C     C_R   0.084161 0.249916 0.168417 0.829444
C203  C     C_R   0.084164 0.750087 0.168417 0.829439
C204  C     C_R   0.915835 0.249913 0.831582 0.829436
C205  C     C_R   0.841909 0.269814 0.730805 -0.271648
C206  C     C_R   0.529205 0.983874 0.055967 -0.180110
C207  C     C_R   0.158110 0.730201 0.269195 -0.271646
C208  C     C_R   0.158262 0.269672 0.269193 -0.271653
C209  C     C_R   0.841768 0.730303 0.730806 -0.271649
C210  C     C_R   0.341890 0.769799 0.730805 -0.271643
C211  C     C_R   0.658091 0.230186 0.269194 -0.271644
C212  C     C_R   0.658232 0.769697 0.269194 -0.271644
C213  C     C_R   0.341738 0.230328 0.730807 -0.271648
C214  C     C_R   0.809519 0.269909 0.666357 -0.178486
C215  C     C_R   0.190500 0.730107 0.333644 -0.178487
C216  C     C_R   0.190655 0.269764 0.333642 -0.178490
F1    F     F_    0.926808 0.210007 0.759186 -0.651845
F2    F     F_    0.073149 0.789957 0.240813 -0.651849
F3    F     F_    0.072801 0.210330 0.240814 -0.651830
F4    F     F_    0.927130 0.789727 0.759187 -0.651834
F5    F     F_    0.426850 0.710042 0.759187 -0.652067
F6    F     F_    0.573193 0.289993 0.240814 -0.652066
F7    F     F_    0.572871 0.710272 0.240813 -0.652051
F8    F     F_    0.427198 0.289671 0.759186 -0.652048
H1    H     H_    0.451634 0.528245 0.900209 0.134740
H2    H     H_    0.137373 0.785378 0.359109 0.163446
H3    H     H_    0.835306 0.714790 0.755114 0.187381
H4    H     H_    0.335534 0.785398 0.755113 0.187374
H5    H     H_    0.664430 0.214573 0.244886 0.187374
H6    H     H_    0.664693 0.785210 0.244886 0.187378
H7    H     H_    0.335251 0.214837 0.755116 0.187378
H8    H     H_    0.778746 0.285346 0.642417 0.148317
H9    H     H_    0.221290 0.714683 0.357584 0.148315
H10   H     H_    0.221573 0.285078 0.357580 0.148309
H11   H     H_    0.778483 0.714875 0.642418 0.148311
H12   H     H_    0.278711 0.785317 0.642416 0.148338
H13   H     H_    0.137069 0.214874 0.359109 0.163446
H14   H     H_    0.721254 0.214653 0.357583 0.148340
H15   H     H_    0.721517 0.785125 0.357582 0.148333
H16   H     H_    0.278427 0.214922 0.642420 0.148331
H17   H     H_    0.862871 0.785177 0.640892 0.163445
H18   H     H_    0.362626 0.714621 0.640891 0.163361
H19   H     H_    0.637412 0.285410 0.359110 0.163363
H20   H     H_    0.637130 0.714823 0.359108 0.163361
H21   H     H_    0.362930 0.285127 0.640891 0.163360
H22   H     H_    0.779267 0.200023 0.556304 0.139143
H23   H     H_    0.220675 0.799975 0.443695 0.139141
H24   H     H_    0.220236 0.200035 0.443689 0.139138
H25   H     H_    0.548366 0.471755 0.099792 0.134742
H26   H     H_    0.779678 0.799967 0.556309 0.139139
H27   H     H_    0.279325 0.700024 0.556305 0.138910
H28   H     H_    0.720733 0.299977 0.443696 0.138911
H29   H     H_    0.720322 0.700033 0.443691 0.138908
H30   H     H_    0.279764 0.299965 0.556311 0.138907
H31   H     H_    0.723271 0.200081 0.443438 0.135623
H32   H     H_    0.276672 0.799918 0.556560 0.135622
H33   H     H_    0.276239 0.200090 0.556553 0.135623
H34   H     H_    0.723676 0.799911 0.443446 0.135623
H35   H     H_    0.223328 0.700082 0.443439 0.135511
H36   H     H_    0.548366 0.528245 0.099791 0.134729
H37   H     H_    0.776729 0.299919 0.556562 0.135512
H38   H     H_    0.776324 0.700088 0.556554 0.135513
H39   H     H_    0.223761 0.299910 0.443447 0.135513
H40   H     H_    0.493466 0.627380 0.071302 0.171509
H41   H     H_    0.506529 0.372620 0.928694 0.171498
H42   H     H_    0.506534 0.627380 0.928698 0.171559
H43   H     H_    0.493471 0.372620 0.071307 0.171565
H44   H     H_    0.993879 0.127380 0.071672 0.171579
H45   H     H_    0.006105 0.872620 0.928313 0.171595
H46   H     H_    0.006121 0.127381 0.928327 0.171649
H47   H     H_    0.451634 0.471756 0.900209 0.134722
H48   H     H_    0.993896 0.872619 0.071688 0.171645
H49   H     H_    0.493034 0.570948 0.070844 0.135752
H50   H     H_    0.506960 0.429052 0.929151 0.135748
H51   H     H_    0.506966 0.570948 0.929156 0.135763
H52   H     H_    0.493041 0.429052 0.070850 0.135761
H53   H     H_    0.994316 0.070948 0.071995 0.135959
H54   H     H_    0.005667 0.929052 0.927991 0.135968
H55   H     H_    0.005683 0.070948 0.928005 0.135978
H56   H     H_    0.994333 0.929052 0.072009 0.135980
H57   H     H_    0.422347 0.872587 0.929020 0.160042
H58   H     H_    0.057610 0.028244 0.995289 0.133261
H59   H     H_    0.577653 0.127413 0.070980 0.160041
H60   H     H_    0.577653 0.872587 0.070979 0.160050
H61   H     H_    0.422347 0.127413 0.929021 0.160054
H62   H     H_    0.922348 0.372587 0.929007 0.160065
H63   H     H_    0.077652 0.627413 0.070993 0.160067
H64   H     H_    0.077651 0.372587 0.070992 0.160078
H65   H     H_    0.922349 0.627413 0.929008 0.160074
H66   H     H_    0.422375 0.929017 0.929481 0.131912
H67   H     H_    0.577625 0.070983 0.070519 0.131912
H68   H     H_    0.577625 0.929017 0.070519 0.131912
H69   H     H_    0.942390 0.971755 0.004711 0.133268
H70   H     H_    0.422375 0.070983 0.929481 0.131914
H71   H     H_    0.922377 0.429017 0.929467 0.131966
H72   H     H_    0.077623 0.570982 0.070533 0.131965
H73   H     H_    0.077623 0.429018 0.070532 0.131967
H74   H     H_    0.922377 0.570982 0.929467 0.131966
H75   H     H_    0.551501 0.971756 0.099772 0.132187
H76   H     H_    0.448499 0.028244 0.900228 0.132189
H77   H     H_    0.448498 0.971756 0.900228 0.132184
H78   H     H_    0.551502 0.028244 0.099772 0.132182
H79   H     H_    0.051486 0.471756 0.099773 0.132160
H80   H     H_    0.942390 0.028244 0.004710 0.133269
H81   H     H_    0.948514 0.528244 0.900226 0.132158
H82   H     H_    0.948514 0.471756 0.900226 0.132154
H83   H     H_    0.051486 0.528244 0.099774 0.132155
H84   H     H_    0.324338 0.235899 0.102958 0.139803
H85   H     H_    0.675447 0.763280 0.896608 0.139887
H86   H     H_    0.675419 0.236833 0.896549 0.139946
H87   H     H_    0.324566 0.763229 0.103419 0.139931
H88   H     H_    0.824553 0.736719 0.103392 0.139908
H89   H     H_    0.175662 0.264101 0.897042 0.139826
H90   H     H_    0.175434 0.736771 0.896581 0.139951
H91   H     H_    0.057610 0.971755 0.995289 0.133270
H92   H     H_    0.824581 0.263167 0.103450 0.139967
H93   H     H_    0.741235 0.698528 0.028597 0.137752
H94   H     H_    0.259579 0.301694 0.973042 0.137787
H95   H     H_    0.258714 0.698542 0.971300 0.137767
H96   H     H_    0.741347 0.301441 0.028822 0.137767
H97   H     H_    0.240421 0.198306 0.026958 0.137507
H98   H     H_    0.758765 0.801472 0.971403 0.137475
H99   H     H_    0.758653 0.198559 0.971178 0.137491
H100  H     H_    0.241286 0.801458 0.028700 0.137490
H101  H     H_    0.764017 0.788117 0.074642 0.138618
H102  H     H_    0.862589 0.214591 0.640890 0.163449
H103  H     H_    0.235380 0.212482 0.924153 0.138632
H104  H     H_    0.236020 0.788155 0.925434 0.138637
H105  H     H_    0.763934 0.211801 0.074475 0.138640
H106  H     H_    0.264620 0.287517 0.075847 0.138738
H107  H     H_    0.735983 0.711883 0.925358 0.138726
H108  H     H_    0.736066 0.288199 0.925525 0.138747
H109  H     H_    0.263979 0.711845 0.074566 0.138745
H110  H     H_    0.835569 0.285427 0.755114 0.187376
H111  H     H_    0.164466 0.714602 0.244887 0.187375
H112  H     H_    0.164749 0.285163 0.244884 0.187380
O1    O     O_3   0.500000 0.250020 0.000000 -0.492036
O2    O     O_R   0.899640 0.268150 0.963690 -0.641036
O3    O     O_R   0.899640 0.731850 0.963690 -0.641045
O4    O     O_R   0.100360 0.268150 0.036310 -0.641051
O5    O     O_R   0.452240 0.268200 0.861400 -0.571683
O6    O     O_R   0.547760 0.731800 0.138600 -0.571680
O7    O     O_R   0.547760 0.268200 0.138600 -0.571672
O8    O     O_R   0.452240 0.731800 0.861400 -0.571673
O9    O     O_R   0.952240 0.768200 0.861400 -0.571632
O10   O     O_R   0.047760 0.231800 0.138600 -0.571635
O11   O     O_R   0.047760 0.768200 0.138600 -0.571626
O12   O     O_3   0.500000 0.749980 0.000000 -0.492037
O13   O     O_R   0.952240 0.231800 0.861400 -0.571624
O14   O     O_R   0.503360 0.319320 0.963650 -0.638747
O15   O     O_R   0.496640 0.680680 0.036350 -0.638723
O16   O     O_R   0.496640 0.319320 0.036350 -0.638606
O17   O     O_R   0.503360 0.680680 0.963650 -0.638621
O18   O     O_R   0.003360 0.819320 0.963650 -0.638728
O19   O     O_R   0.996640 0.180680 0.036350 -0.638751
O20   O     O_R   0.996640 0.819320 0.036350 -0.638625
O21   O     O_R   0.003360 0.180680 0.963650 -0.638610
O22   O     O_R   0.539730 0.180720 0.036330 -0.646319
O23   O     O_3   0.000000 0.750020 0.000000 -0.492042
O24   O     O_R   0.460270 0.819280 0.963670 -0.646316
O25   O     O_R   0.460270 0.180720 0.963670 -0.646290
O26   O     O_R   0.539730 0.819280 0.036330 -0.646296
O27   O     O_R   0.039730 0.680720 0.036330 -0.646309
O28   O     O_R   0.960270 0.319280 0.963670 -0.646312
O29   O     O_R   0.960270 0.680720 0.963670 -0.646289
O30   O     O_R   0.039730 0.319280 0.036330 -0.646283
O31   O     O_R   0.409160 0.231870 0.861420 -0.658859
O32   O     O_R   0.590840 0.768130 0.138580 -0.658859
O33   O     O_R   0.590840 0.231870 0.138580 -0.658860
O34   O     O_3   0.000000 0.249980 0.000000 -0.492042
O35   O     O_R   0.409160 0.768130 0.861420 -0.658859
O36   O     O_R   0.909160 0.731870 0.861420 -0.658864
O37   O     O_R   0.090840 0.268130 0.138580 -0.658867
O38   O     O_R   0.090840 0.731870 0.138580 -0.658867
O39   O     O_R   0.909160 0.268130 0.861420 -0.658867
O40   O     O_R   0.564010 0.268190 0.963640 -0.625930
O41   O     O_R   0.435990 0.731810 0.036360 -0.625956
O42   O     O_R   0.435990 0.268190 0.036360 -0.626079
O43   O     O_R   0.564010 0.731810 0.963640 -0.626063
O44   O     O_R   0.064010 0.768190 0.963640 -0.626068
O45   O     O_R   0.600360 0.231850 0.036310 -0.641097
O46   O     O_R   0.935990 0.231810 0.036360 -0.626043
O47   O     O_R   0.935990 0.768190 0.036360 -0.626175
O48   O     O_R   0.064010 0.231810 0.963640 -0.626191
O49   O     O_R   0.399640 0.768150 0.963690 -0.641097
O50   O     O_R   0.399640 0.231850 0.963690 -0.641111
O51   O     O_R   0.600360 0.768150 0.036310 -0.641107
O52   O     O_R   0.100360 0.731850 0.036310 -0.641037
Zn1   Zn    Zn3+2 0.443260 0.224070 0.948090 0.963695
Zn2   Zn    Zn3+2 0.495180 0.724020 0.051930 1.017047
Zn3   Zn    Zn3+2 0.495180 0.275980 0.051930 1.017008
Zn4   Zn    Zn3+2 0.504820 0.724020 0.948070 1.017015
Zn5   Zn    Zn3+2 0.004820 0.775980 0.948070 1.017034
Zn6   Zn    Zn3+2 0.995180 0.224020 0.051930 1.017040
Zn7   Zn    Zn3+2 0.995180 0.775980 0.051930 1.017001
Zn8   Zn    Zn3+2 0.004820 0.224020 0.948070 1.016994
Zn9   Zn    Zn3+2 0.556740 0.775930 0.051910 0.963700
Zn10  Zn    Zn3+2 0.556740 0.224070 0.051910 0.963735
Zn11  Zn    Zn3+2 0.443260 0.775930 0.948090 0.963729
Zn12  Zn    Zn3+2 0.943260 0.724070 0.948090 0.963746
Zn13  Zn    Zn3+2 0.056740 0.275930 0.051910 0.963740
Zn14  Zn    Zn3+2 0.056740 0.724070 0.051910 0.963773
Zn15  Zn    Zn3+2 0.943260 0.275930 0.948090 0.963780
Zn16  Zn    Zn3+2 0.504820 0.275980 0.948070 1.017053

loop_
_geom_bond_atom_site_label_1
_geom_bond_atom_site_label_2
_ccdc_geom_bond_type
C39   C200  S    
C84   H50   S    
C4    H12   S    
C59   H38   S    
C215  H9    S    
C80   O15   A    
C135  H58   S    
C50   C59   A    
C159  C186  S    
C8    C214  A    
C52   C61   A    
O3    Zn12  S    
C13   C90   A    
C54   C63   A    
C43   H22   S    
O39   Zn15  S    
C87   C94   A    
C117  H73   S    
O37   Zn13  S    
C89   C94   A    
O12   Zn11  S    
C108  C131  A    
C68   H83   S    
C3    H11   S    
C44   C53   A    
C85   C92   A    
C72   C139  A    
C150  C172  S    
C152  C156  S    
C11   C67   S    
C98   C131  S    
C149  H98   S    
C4    C12   A    
O28   Zn15  S    
C147  C181  S    
C88   C95   A    
C126  C136  A    
C112  O41   A    
C60   H39   S    
O12   Zn4   S    
C210  H4    S    
C22   H19   S    
C109  H66   S    
C20   H17   S    
O35   Zn11  S    
C11   C20   A    
C5    H14   S    
C123  C134  A    
C45   C69   A    
C106  H63   S    
C166  C184  S    
C68   C101  A    
C78   C141  S    
C10   C69   S    
C179  C188  S    
O4    Zn13  S    
O15   Zn2   S    
C177  C186  S    
C96   O25   A    
C108  C118  A    
C12   C62   S    
C82   O19   A    
C79   C120  S    
C145  C179  S    
C72   H42   S    
C160  C172  S    
C77   H48   S    
C46   H81   S    
C199  O33   A    
C75   C143  A    
C1    O45   A    
C205  C214  A    
C104  C129  A    
C58   H37   S    
C112  O49   A    
C37   C208  A    
O50   Zn1   S    
C148  C153  S    
C158  C185  S    
C176  H106  S    
C175  C183  S    
C16   C25   A    
C103  C128  A    
C77   C91   A    
C167  C195  S    
C102  H59   S    
C158  C170  S    
C93   C123  S    
C127  C135  A    
C40   C199  S    
C178  H108  S    
C80   C139  S    
C173  O46   A    
C101  C122  S    
O43   Zn4   S    
C55   H34   S    
O52   Zn14  S    
C19   H13   S    
C134  H47   S    
C17   H102  S    
C50   H29   S    
C157  C171  S    
C8    C17   A    
C140  O50   A    
C43   C66   A    
C207  H111  S    
C112  C165  S    
C35   C113  A    
C84   C93   A    
C9    C65   S    
C3    C11   A    
C33   F8    S    
C197  O5    A    
C27   F2    S    
O13   Zn8   S    
C162  O44   A    
O17   Zn4   S    
C51   H30   S    
C98   O27   A    
C96   C129  S    
C110  H67   S    
C115  C121  A    
C123  C132  A    
C92   C125  S    
C174  C182  S    
C72   C85   A    
C162  O52   A    
C151  O51   A    
C94   C127  S    
C9    C215  A    
C70   H40   S    
C40   C211  A    
C97   O26   A    
C52   H31   S    
C161  C188  T    
C180  C189  S    
C150  H99   S    
O33   Zn10  S    
C137  H80   S    
C111  C119  A    
C118  C122  A    
C44   H23   S    
C59   C67   A    
C49   H28   S    
C172  C181  S    
C133  H36   S    
C144  C180  S    
C1    C164  S    
C34   C204  S    
C47   H26   S    
C29   C38   A    
C37   C202  S    
O19   Zn6   S    
C81   O20   A    
C74   C87   A    
C213  H7    S    
C155  C178  S    
C76   C89   A    
C71   C141  A    
O1    Zn16  S    
C90   C206  A    
C205  H110  S    
C167  C193  T    
C181  C190  S    
C44   C65   A    
C201  O36   A    
O47   Zn7   S    
C97   C128  S    
C164  C190  T    
C147  C160  S    
C45   H24   S    
C206  H75   S    
O21   Zn8   S    
C132  H25   S    
O16   Zn3   S    
C34   C205  A    
C46   C101  A    
C97   O24   A    
C118  H74   S    
C115  H71   S    
C158  H89   S    
O44   Zn5   S    
O38   Zn14  S    
C152  C186  S    
C156  C182  S    
O31   Zn1   S    
C57   C113  A    
C77   C143  A    
C99   O28   A    
C86   C93   A    
O23   Zn7   S    
C24   C79   A    
C48   C62   A    
C203  O11   A    
O45   Zn10  S    
C35   H79   S    
C171  H101  S    
C19   C28   A    
C184  O3    A    
C162  C168  S    
C208  H112  S    
C150  C155  S    
O11   Zn7   S    
C148  H97   S    
O25   Zn1   S    
O46   Zn6   S    
C151  O43   A    
C100  C128  A    
C105  C115  A    
C78   O16   A    
C136  C137  A    
C155  C181  S    
C105  C130  A    
C157  C183  S    
C6    H15   S    
O9    Zn5   S    
C124  C134  A    
C147  H96   S    
C14   C22   A    
C42   C213  A    
C95   C126  S    
C10   C216  A    
C60   C69   A    
C199  O7    A    
C24   C206  A    
C30   C39   A    
C57   H82   S    
C144  H93   S    
C91   C95   A    
C9    C18   A    
C100  C109  A    
C113  C121  S    
C7    H16   S    
C169  C173  S    
C51   C60   A    
C160  C187  S    
C144  C157  S    
C83   H49   S    
C88   H54   S    
O23   Zn14  S    
C25   C33   A    
C1    O40   A    
C3    C209  A    
C153  C179  S    
C157  H88   S    
C154  C180  S    
C187  C196  S    
C216  H10   S    
C103  H60   S    
C200  O35   A    
O5    Zn16  S    
C82   C142  S    
C214  H8    S    
C183  C192  S    
C138  H91   S    
C153  H84   S    
C175  H107  S    
C176  C185  S    
C73   C141  A    
C195  O48   A    
C116  C122  A    
C177  H109  S    
O34   Zn15  S    
O23   Zn5   S    
C172  H105  S    
C89   H55   S    
C140  O42   A    
C31   C40   A    
C103  C111  A    
C2    C79   A    
O36   Zn12  S    
C41   C212  A    
O6    Zn2   S    
C29   F4    S    
C126  C138  A    
C159  C174  S    
C76   H46   S    
C100  H57   S    
C15   C64   S    
C16   C63   S    
O34   Zn8   S    
O30   Zn13  S    
C173  O2    A    
C24   H78   S    
C155  H86   S    
C70   C139  A    
C149  C171  S    
O23   Zn12  S    
C26   F1    S    
C202  O10   A    
C78   O14   A    
C107  C130  A    
O10   Zn6   S    
C82   O21   A    
C186  C194  S    
O2    Zn15  S    
C30   F5    S    
C106  C131  A    
C5    C211  A    
C49   C61   A    
C146  C182  S    
C51   C63   A    
O27   Zn14  S    
C148  C185  S    
C111  H68   S    
C85   H51   S    
C39   C210  A    
C106  C116  A    
C86   H52   S    
O32   Zn9   S    
C149  C154  S    
C96   O22   A    
C31   F6    S    
C156  C177  S    
C145  C176  S    
C10   C19   A    
C207  C215  A    
O24   Zn11  S    
C163  C189  T    
C70   C83   A    
C5    C14   A    
C203  O38   A    
C178  C187  S    
C7    C16   A    
C200  O8    A    
C156  H87   S    
O40   Zn16  S    
C28   F3    S    
C102  C110  A    
C56   H35   S    
C182  C191  S    
C33   C42   A    
C32   F7    S    
C109  C119  A    
C116  H72   S    
C211  H5    S    
C99   C130  S    
C42   C197  S    
O34   Zn13  S    
C2    H76   S    
O1    Zn1   S    
C204  O13   A    
C21   C30   A    
C170  C179  S    
C36   C203  S    
C23   C32   A    
C48   H27   S    
C98   O29   A    
C145  C158  S    
C165  C191  T    
O29   Zn12  S    
C166  C192  T    
O34   Zn6   S    
C43   C52   A    
C136  H69   S    
C160  H92   S    
C198  O6    A    
C149  C183  S    
C54   H33   S    
C124  H1    S    
C209  H3    S    
C23   H20   S    
C99   O30   A    
C107  C117  A    
C114  C120  A    
C21   H18   S    
C25   H21   S    
C135  C138  A    
C8    C66   S    
C50   C64   A    
C102  C129  A    
C201  O9    A    
C83   C92   A    
C197  O31   A    
C153  C176  S    
C154  C175  S    
C17   C26   A    
C28   C37   A    
C170  H103  S    
C6    C212  A    
C152  H100  S    
C56   C65   A    
C4    C210  A    
C87   H53   S    
C2    C13   A    
C117  C121  A    
C18   H2    S    
C6    C15   A    
C74   H44   S    
C26   C34   A    
C132  C133  A    
C38   C201  S    
C148  C170  S    
O41   Zn2   S    
C73   H43   S    
O51   Zn9   S    
C104  H61   S    
C152  C174  S    
C15   C23   A    
C74   C142  A    
C208  C216  A    
C168  C194  T    
C13   H77   S    
C159  H90   S    
C47   C67   A    
C58   C66   A    
O1    Zn3   S    
C169  C196  T    
C20   C29   A    
O14   Zn16  S    
C73   C86   A    
C146  H95   S    
C22   C31   A    
O18   Zn5   S    
O7    Zn3   S    
O8    Zn4   S    
C184  O47   A    
C110  C120  A    
C150  C187  S    
C146  C159  S    
C75   H45   S    
C140  C161  S    
C14   C61   S    
C12   C21   A    
C49   C58   A    
C146  C177  S    
C36   C207  A    
O20   Zn7   S    
C80   O17   A    
C212  H6    S    
C108  H65   S    
C174  H104  S    
C32   C41   A    
C145  H94   S    
C55   C64   A    
C195  O4    A    
O12   Zn9   S    
C7    C213  A    
C104  C114  A    
C53   H32   S    
C45   C54   A    
C151  C163  S    
C46   C57   A    
C171  C180  S    
C204  O39   A    
O26   Zn9   S    
C47   C55   A    
C71   C84   A    
C125  C133  A    
C48   C56   A    
O1    Zn10  S    
O12   Zn2   S    
C18   C27   A    
C185  C193  S    
C41   C198  S    
C114  H70   S    
O49   Zn11  S    
C127  C137  A    
C105  H62   S    
C27   C36   A    
C90   C119  S    
C107  H64   S    
O48   Zn8   S    
C147  C178  S    
C198  O32   A    
C35   C68   A    
C144  C175  S    
C38   C209  A    
C91   H56   S    
O42   Zn3   S    
C154  H85   S    
C75   C88   A    
C81   C143  S    
C53   C62   A    
C71   H41   S    
C81   O18   A    
C202  O37   A    
O22   Zn10  S    
C124  C125  A    
C76   C142  A    
