data_mof_unit_33975.cif
_audit_creation_date              2012-12-10T17:48:56-0500
_audit_creation_method            fapswitch 2.2
_symmetry_space_group_name_H-M    P1
_symmetry_Int_Tables_number       1
_space_group_crystal_system       triclinic
_cell_length_a                    10.722797
_cell_length_b                    14.689223
_cell_length_c                    14.684945
_cell_angle_alpha                 65.02086
_cell_angle_beta                  103.506527
_cell_angle_gamma                 102.999208
_cell_volume                      2017.63368122

loop_
_atom_site_label
_atom_site_type_symbol
_atom_type_description
_atom_site_fract_x
_atom_site_fract_y
_atom_site_fract_z
_atom_type_partial_charge
C1    C     C_R   0.480422 0.119721 0.312085 0.822780
C2    C     C_R   0.519192 0.360137 0.079101 0.066364
C3    C     C_R   0.507133 0.320786 0.003536 0.105422
C4    C     C_R   0.259806 0.000764 0.498964 0.777236
C5    C     C_R   0.546541 0.466742 0.053542 0.080001
C6    C     C_R   0.542830 0.533507 0.949773 0.072822
C7    C     C_R   0.532394 0.492259 0.876582 -0.231448
C8    C     C_R   0.516878 0.388267 0.903345 -0.187865
C9    C     C_R   0.580742 0.508726 0.128481 -0.215657
C10   C     C_R   0.601787 0.612940 0.101830 -0.196073
C11   C     C_R   0.585746 0.678872 0.999982 0.147755
C12   C     C_3   0.877204 0.998845 0.498526 0.063797
C13   C     C_R   0.553064 0.639653 0.922961 0.076959
C14   C     C_R   0.601619 0.783864 0.974191 -0.159929
C15   C     C_R   0.582115 0.850434 0.872557 -0.176533
C16   C     C_R   0.523165 0.880217 0.687926 0.792165
C17   C     C_R   0.528058 0.707850 0.821559 -0.271536
C18   C     C_R   0.714498 0.284356 0.669863 -0.284718
C19   C     C_R   0.681633 0.202892 0.639775 0.091173
C20   C     C_R   0.518808 0.285266 0.508679 0.011228
C21   C     C_R   0.547946 0.371222 0.535109 -0.019416
C22   C     C_R   0.647881 0.368493 0.618157 0.165487
C23   C     C_3   0.954366 0.971993 0.609534 -0.096797
C24   C     C_R   0.481520 0.458480 0.483364 0.080448
C25   C     C_R   0.516552 0.541381 0.516049 0.100149
C26   C     C_R   0.616155 0.533731 0.600090 -0.236917
C27   C     C_R   0.680213 0.449203 0.649648 -0.194295
C28   C     C_R   0.739573 0.000661 0.498037 0.776010
C29   C     C_R   0.381308 0.465562 0.400190 -0.245370
C30   C     C_R   0.316050 0.549356 0.351305 -0.153245
C31   C     C_R   0.348150 0.631072 0.381788 0.105867
C32   C     C_R   0.450113 0.628744 0.464023 -0.045071
C33   C     C_R   0.280650 0.715795 0.331160 0.042833
C34   C     C_3   0.938474 0.106007 0.430296 -0.383892
C35   C     C_R   0.316013 0.796893 0.361922 0.063350
C36   C     C_R   0.481421 0.715018 0.489918 0.013477
C37   C     C_3   0.034998 0.917211 0.463501 -0.377587
C38   C     C_3   0.891048 0.920403 0.456532 0.022540
C39   C     C_3   0.100367 0.977972 0.607258 -0.385329
C40   C     C_3   0.080049 0.104838 0.425270 -0.395590
C41   C     C_3   0.121655 0.000478 0.498666 0.088939
C42   C     C_3   0.901286 0.867426 0.687489 -0.436458
C43   C     C_3   0.949227 0.858514 0.797693 -0.345320
C44   C     C_3   0.910125 0.751578 0.873527 -0.780509
C45   C     C_R   0.481873 0.187056 0.204614 -0.100605
C46   C     C_R   0.543850 0.812471 0.795811 -0.065098
C47   C     C_R   0.485708 0.214609 0.030327 0.148997
C48   C     C_R   0.474473 0.148796 0.130685 -0.174785
C49   C     C_R   0.500546 0.291669 0.177786 -0.253782
Cu1   Cu    Cu3+1 0.465900 0.918260 0.475680 0.950426
Cu2   Cu    Cu3+1 0.534100 0.081740 0.524320 0.937121
H1    H     H_    0.058593 0.840859 0.518440 0.160204
H2    H     H_    0.497733 0.318221 0.235232 0.152784
H3    H     H_    0.055467 0.927746 0.388561 0.202784
H4    H     H_    0.540939 0.538780 0.798004 0.141126
H5    H     H_    0.597009 0.463033 0.208874 0.149063
H6    H     H_    0.628649 0.814409 0.032716 0.164582
H7    H     H_    0.755902 0.446914 0.713804 0.147857
H8    H     H_    0.559403 0.721202 0.549099 0.123439
H9    H     H_    0.265515 0.862379 0.323275 0.150903
H10   H     H_    0.239836 0.549114 0.288499 0.180196
H11   H     H_    0.791062 0.281340 0.733609 0.148246
H12   H     H_    0.936550 0.162437 0.461876 0.176134
H13   H     H_    0.732115 0.137488 0.680192 0.121466
H14   H     H_    0.442768 0.279596 0.448130 0.119259
H15   H     H_    0.646993 0.591750 0.630389 0.124746
H16   H     H_    0.350104 0.407064 0.370525 0.130399
H17   H     H_    0.845571 0.843378 0.502848 0.132512
H18   H     H_    0.138249 0.906213 0.661055 0.161630
H19   H     H_    0.143733 0.166801 0.445643 0.174581
H20   H     H_    0.089620 0.119923 0.346105 0.179513
H21   H     H_    0.882155 0.132160 0.352223 0.196298
H22   H     H_    0.803601 0.730026 0.860742 0.257124
H23   H     H_    0.157534 0.038972 0.632291 0.174886
H24   H     H_    0.957536 0.696176 0.865269 0.247453
H25   H     H_    0.940709 0.748622 0.952258 0.269092
H26   H     H_    0.056464 0.876935 0.811414 0.235657
H27   H     H_    0.906806 0.913204 0.811402 0.221614
H28   H     H_    0.793736 0.856389 0.675496 0.190587
H29   H     H_    0.930955 0.805203 0.676798 0.208723
H30   H     H_    0.945332 0.031115 0.635483 0.162022
H31   H     H_    0.510714 0.361769 0.843829 0.185496
H32   H     H_    0.493117 0.680761 0.761235 0.158062
H33   H     H_    0.595574 0.931230 0.854208 0.173776
H34   H     H_    0.628628 0.641988 0.161509 0.164104
H35   H     H_    0.461178 0.067666 0.150937 0.193975
I1    I     I_    0.471976 0.146095 0.925591 -0.416087
I2    I     I_    0.792439 0.949043 0.301928 -0.386125
I3    I     I_    0.125388 0.729393 0.207722 -0.420324
N1    N     N_R   0.585360 0.204570 0.560800 -0.178447
N2    N     N_R   0.414550 0.795430 0.439160 -0.191584
O1    O     O_R   0.455060 0.022100 0.338110 -0.571889
O2    O     O_R   0.512640 0.160150 0.379180 -0.592453
O3    O     O_R   0.288900 0.930980 0.479450 -0.590930
O4    O     O_R   0.346480 0.069030 0.520520 -0.584124
O5    O     O_R   0.487360 0.839850 0.620820 -0.592898
O6    O     O_R   0.544940 0.977900 0.661890 -0.581570
O7    O     O_R   0.653520 0.930970 0.479480 -0.568067
O8    O     O_R   0.711100 0.069020 0.520550 -0.595314

loop_
_geom_bond_atom_site_label_1
_geom_bond_atom_site_label_2
_ccdc_geom_bond_type
Cu2   O6    S    
C10   H34   S    
C42   H29   S    
C40   H20   S    
C7    H4    S    
C36   H8    S    
C1    C45   S    
C7    C8    A    
C39   C41   S    
C43   H27   S    
C12   C23   S    
C26   C27   A    
C37   C38   S    
C23   C42   S    
C40   H19   S    
C12   C28   S    
C34   C40   S    
C32   C36   A    
Cu2   N1    S    
C30   C31   A    
C11   C14   A    
C49   H2    S    
C16   O6    A    
C4    C41   S    
C18   C19   A    
C39   H23   S    
C44   H25   S    
C24   C29   A    
C29   H16   S    
C47   C48   A    
C31   C33   A    
C9    C10   A    
C25   C32   A    
C42   H28   S    
C21   C22   A    
C12   C38   S    
Cu2   O8    S    
C16   O5    A    
Cu1   O7    S    
C26   H15   S    
C20   H14   S    
C17   C46   A    
C3    C8    A    
C16   C46   S    
C37   H1    S    
C18   H11   S    
C25   C26   A    
C20   N1    A    
C38   I2    S    
C35   H9    S    
C17   H32   S    
C47   I1    S    
C44   H24   S    
C43   C44   S    
C5    C9    A    
C29   C30   A    
C2    C49   A    
C33   I3    S    
C4    O4    A    
C31   C32   A    
C45   C49   A    
C19   H13   S    
Cu1   Cu2   S    
C39   H18   S    
C9    H5    S    
C24   C25   A    
C6    C7    A    
Cu2   O2    S    
C4    O3    A    
C37   H3    S    
C36   N2    A    
Cu1   O1    S    
C40   C41   S    
C38   H17   S    
C1    O1    A    
C22   C27   A    
C48   H35   S    
C21   C24   A    
C2    C5    A    
C42   C43   S    
C12   C34   S    
C34   H21   S    
C28   O8    A    
C45   C48   A    
C28   O7    A    
C14   H6    S    
C23   H30   S    
C18   C22   A    
Cu1   O3    S    
C27   H7    S    
C15   H33   S    
C43   H26   S    
C13   C17   A    
C2    C3    A    
C19   N1    A    
C6    C13   A    
C11   C13   A    
Cu1   O5    S    
C5    C6    A    
C23   C39   S    
C3    C47   A    
C34   H12   S    
C33   C35   A    
C37   C41   S    
C44   H22   S    
C10   C11   A    
Cu1   N2    S    
C8    H31   S    
C20   C21   A    
C1    O2    A    
C30   H10   S    
C14   C15   A    
C15   C46   A    
Cu2   O4    S    
C35   N2    A    
