data_mof_unit_22463.cif
_audit_creation_date              2012-12-11T16:16:56-0500
_audit_creation_method            fapswitch 2.2
_symmetry_space_group_name_H-M    P1
_symmetry_Int_Tables_number       1
_space_group_crystal_system       triclinic
_cell_length_a                    13.355436
_cell_length_b                    13.306231
_cell_length_c                    28.486377
_cell_angle_alpha                 89.768692
_cell_angle_beta                  89.834965
_cell_angle_gamma                 120.19664
_cell_volume                      4375.28623493

loop_
_atom_site_label
_atom_site_type_symbol
_atom_type_description
_atom_site_fract_x
_atom_site_fract_y
_atom_site_fract_z
_atom_type_partial_charge
C1    C     C_R   0.437867 0.549672 0.316713 0.536427
C2    C     C_R   0.549237 0.440791 0.684213 0.528199
C3    C     C_3   0.379365 0.158393 0.555565 0.017293
C4    C     C_3   0.338020 0.181575 0.602146 -0.234572
C5    C     C_3   0.209503 0.142548 0.601765 -0.412663
C6    C     C_3   0.088186 0.307371 0.940896 0.020490
C7    C     C_3   0.084060 0.257965 0.892101 -0.270285
C8    C     C_3   0.200810 0.272752 0.877724 -0.476317
C9    C     C_3   0.794668 0.647584 0.543695 0.011259
C10   C     C_3   0.790967 0.576146 0.586730 -0.245334
C11   C     C_3   0.726670 0.445429 0.576797 -0.441335
C12   C     C_R   0.561242 0.111697 0.816549 0.539210
C13   C     C_R   0.891892 0.451543 0.684468 0.532479
C14   C     C_1   0.075952 0.532785 0.364624 -0.009471
C15   C     C_1   0.468080 0.945633 0.139640 -0.006761
C16   C     C_1   0.467890 0.535640 0.363352 -0.009047
C17   C     C_1   0.058363 0.521806 0.139084 -0.003229
C18   C     C_1   0.459819 0.928313 0.363766 -0.024980
C19   C     C_1   0.472510 0.540475 0.137030 0.007417
C20   C     C_1   0.527485 0.067755 0.862958 -0.017852
C21   C     C_R   0.111260 0.560966 0.183701 0.542989
C22   C     C_1   0.955458 0.471713 0.641696 -0.029257
C23   C     C_1   0.533589 0.476830 0.860777 -0.015180
C24   C     C_1   0.518799 0.050895 0.640201 -0.037322
C25   C     C_1   0.930039 0.458504 0.863100 -0.011484
C26   C     C_1   0.530682 0.485137 0.641108 -0.039391
C27   C     C_R   0.056958 0.421394 0.480824 0.294428
C28   C     C_R   0.381865 0.938873 0.023756 0.285994
C29   C     C_R   0.600678 0.602264 0.475968 0.279347
C30   C     C_R   0.997990 0.385234 0.026283 0.287874
C31   C     C_R   0.393488 0.997316 0.476899 0.295821
C32   C     C_R   0.449431 0.887390 0.316810 0.531757
C33   C     C_R   0.592580 0.630251 0.021534 0.296032
C34   C     C_R   0.390941 0.946851 0.974350 0.283462
C35   C     C_R   0.037425 0.410284 0.530080 0.288239
C36   C     C_R   0.593590 0.623880 0.971202 0.260628
C37   C     C_R   0.395471 0.007129 0.526254 0.284079
C38   C     C_R   0.983641 0.379260 0.977026 0.274599
C39   C     C_R   0.608752 0.603289 0.525599 0.291192
C40   C     C_R   0.030238 0.589589 0.529072 -0.178638
C41   C     C_R   0.592897 0.099276 0.981523 -0.183167
C42   C     C_R   0.403632 0.458606 0.530609 -0.182960
C43   C     C_R   0.438790 0.550544 0.183416 0.540358
C44   C     C_R   0.959231 0.548444 0.979164 -0.188434
C45   C     C_R   0.528580 0.933228 0.530886 -0.178413
C46   C     C_R   0.425919 0.427469 0.974790 -0.184325
C47   C     C_R   0.585456 0.086656 0.030091 -0.187156
C48   C     C_R   0.035609 0.592212 0.480477 -0.183554
C49   C     C_R   0.421620 0.434674 0.023029 -0.175759
C50   C     C_R   0.526053 0.922907 0.482287 -0.185146
C51   C     C_R   0.973255 0.554512 0.027482 -0.168308
C52   C     C_R   0.396569 0.456537 0.481834 -0.166913
C53   C     C_R   0.047168 0.507872 0.456250 0.010025
C54   C     C_R   0.113097 0.561992 0.317071 0.534611
C55   C     C_R   0.481080 0.005178 0.051070 0.004279
C56   C     C_R   0.494776 0.526400 0.454539 0.009010
C57   C     C_R   0.995003 0.475291 0.050956 0.013278
C58   C     C_R   0.462735 0.959061 0.455137 0.011116
C59   C     C_R   0.504393 0.533720 0.046236 0.021484
C60   C     C_R   0.496522 0.029224 0.953687 0.000831
C61   C     C_R   0.026514 0.497126 0.553983 0.009239
C62   C     C_R   0.511699 0.519994 0.948988 0.000815
C63   C     C_R   0.465821 0.977651 0.552996 0.010952
C64   C     C_R   0.966467 0.462881 0.953822 -0.003512
C65   C     C_R   0.450839 0.889986 0.183996 0.542422
C66   C     C_R   0.509053 0.531291 0.552739 0.010397
C67   C     C_1   0.996107 0.485513 0.602889 -0.035530
C68   C     C_1   0.508518 0.045012 0.903917 -0.026637
C69   C     C_1   0.519001 0.512674 0.601984 -0.026487
C70   C     C_1   0.951260 0.460452 0.904064 -0.026654
C71   C     C_1   0.489882 0.011308 0.601422 -0.032410
C72   C     C_1   0.522799 0.500578 0.900319 -0.030355
C73   C     C_1   0.477345 0.979677 0.100013 -0.022263
C74   C     C_1   0.058953 0.517699 0.406144 -0.019681
C75   C     C_1   0.491847 0.537057 0.096100 0.009137
C76   C     C_R   0.549747 0.438916 0.816238 0.540858
C77   C     C_1   0.463141 0.947905 0.405050 -0.022189
C78   C     C_1   0.024937 0.495718 0.099551 -0.009798
C79   C     C_1   0.483140 0.528317 0.404493 -0.004934
C80   C     C_3   0.029953 0.248388 0.450099 0.031333
C81   C     C_3   0.077442 0.177249 0.473425 -0.247791
C82   C     C_3   0.989197 0.048064 0.474124 -0.506455
C83   C     C_3   0.202973 0.904043 0.047200 0.016309
C84   C     C_3   0.226261 0.981522 0.090240 -0.274631
C85   C     C_3   0.136748 0.020334 0.094562 -0.487605
C86   C     C_3   0.734426 0.781601 0.445823 0.002802
C87   C     C_R   0.560849 0.110556 0.683771 0.530637
C88   C     C_3   0.689562 0.808797 0.400815 -0.260649
C89   C     C_3   0.752162 0.939091 0.390190 -0.484397
C90   C     C_3   0.933417 0.200936 0.055603 0.013279
C91   C     C_3   0.881845 0.189156 0.104792 -0.286048
C92   C     C_3   0.797711 0.062208 0.117560 -0.472666
C93   C     C_3   0.217340 0.962698 0.448869 0.011402
C94   C     C_3   0.183663 0.888582 0.404345 -0.267993
C95   C     C_3   0.055811 0.838818 0.392527 -0.478380
C96   C     C_3   0.774179 0.809548 0.029318 0.052534
C97   C     C_3   0.856192 0.762621 0.018849 -0.241367
C98   C     C_R   0.887901 0.449370 0.816592 0.538908
C99   C     C_3   0.953624 0.844153 0.985638 -0.474393
C100  C     C_3   0.273726 0.765043 0.943797 0.024694
C101  C     C_3   0.338341 0.751808 0.901910 -0.280120
C102  C     C_3   0.307454 0.625684 0.895608 -0.498719
C103  C     C_3   0.928535 0.233605 0.566386 -0.002536
C104  C     C_3   0.935258 0.143356 0.597471 -0.259061
C105  C     C_3   0.815327 0.040031 0.607966 -0.467102
C106  C     C_3   0.639370 0.775817 0.921085 -0.010809
C107  C     C_3   0.737943 0.869693 0.891433 -0.269989
C108  C     C_3   0.703162 0.950660 0.868214 -0.458636
Cr1   Cr    Cr6+3 0.505050 0.756260 0.250000 1.020218
Cr2   Cr    Cr6+3 0.251210 0.494950 0.250000 1.031279
Cr3   Cr    Cr6+3 0.243740 0.748790 0.250000 1.018838
Cr4   Cr    Cr6+3 0.756260 0.505050 0.750000 1.022571
Cr5   Cr    Cr6+3 0.494950 0.251210 0.750000 1.014777
Cr6   Cr    Cr6+3 0.748790 0.243740 0.750000 1.009706
H1    H     H_    0.025983 0.658726 0.547035 0.118405
H2    H     H_    0.575427 0.888686 0.465847 0.122106
H3    H     H_    0.970445 0.623209 0.046540 0.121705
H4    H     H_    0.314725 0.399171 0.465234 0.185396
H5    H     H_    0.025748 0.233236 0.411645 0.144447
H6    H     H_    0.939477 0.218823 0.461455 0.103106
H7    H     H_    0.156490 0.192044 0.454363 0.150992
H8    H     H_    0.103141 0.206747 0.509825 0.211840
H9    H     H_    0.904898 0.031543 0.488604 0.146773
H10   H     H_    0.020889 0.001410 0.496481 0.140431
H11   H     H_    0.978028 0.014621 0.437880 0.134862
H12   H     H_    0.674500 0.162725 0.965559 0.147826
H13   H     H_    0.113939 0.828716 0.050594 0.152013
H14   H     H_    0.205356 0.951762 0.014541 0.150674
H15   H     H_    0.223327 0.932738 0.122480 0.190344
H16   H     H_    0.313574 0.060163 0.087247 0.157689
H17   H     H_    0.140439 0.072040 0.063207 0.143392
H18   H     H_    0.155363 0.075450 0.126154 0.159639
H19   H     H_    0.048179 0.943734 0.098109 0.145222
H20   H     H_    0.830116 0.828457 0.444445 0.155769
H21   H     H_    0.709723 0.814482 0.477185 0.140841
H22   H     H_    0.702406 0.763735 0.370615 0.193059
H23   H     H_    0.327394 0.400773 0.551072 0.152711
H24   H     H_    0.595337 0.776197 0.404586 0.159882
H25   H     H_    0.752935 0.988964 0.421471 0.134586
H26   H     H_    0.707704 0.956682 0.361229 0.183341
H27   H     H_    0.842508 0.969496 0.378789 0.138434
H28   H     H_    0.965086 0.138369 0.052296 0.144784
H29   H     H_    0.864536 0.175768 0.028616 0.144427
H30   H     H_    0.952602 0.226144 0.131104 0.190083
H31   H     H_    0.835613 0.238991 0.106269 0.148537
H32   H     H_    0.730154 0.019940 0.090261 0.160477
H33   H     H_    0.754837 0.057594 0.151597 0.170369
H34   H     H_    0.943525 0.611139 0.961305 0.136350
H35   H     H_    0.845293 0.014091 0.121137 0.148889
H36   H     H_    0.175572 0.016466 0.448076 0.161337
H37   H     H_    0.182733 0.905448 0.480554 0.142334
H38   H     H_    0.236568 0.942439 0.374128 0.197954
H39   H     H_    0.201520 0.816214 0.409440 0.159518
H40   H     H_    0.999994 0.795066 0.423545 0.142604
H41   H     H_    0.031093 0.774764 0.363725 0.177443
H42   H     H_    0.040449 0.909587 0.380752 0.142105
H43   H     H_    0.818327 0.879176 0.055760 0.120910
H44   H     H_    0.761524 0.855781 0.999731 0.166776
H45   H     H_    0.581826 0.909193 0.551140 0.132524
H46   H     H_    0.893879 0.754415 0.052361 0.127780
H47   H     H_    0.809412 0.675038 0.002830 0.195808
H48   H     H_    0.918056 0.848250 0.951073 0.186335
H49   H     H_    0.013949 0.811089 0.979717 0.146499
H50   H     H_    0.002266 0.932937 0.000584 0.125520
H51   H     H_    0.179362 0.707464 0.938254 0.163090
H52   H     H_    0.295120 0.734067 0.976677 0.158530
H53   H     H_    0.315944 0.782469 0.869390 0.182950
H54   H     H_    0.433078 0.805789 0.907503 0.145689
H55   H     H_    0.330840 0.594005 0.927543 0.145842
H56   H     H_    0.364006 0.347730 0.957707 0.123915
H57   H     H_    0.356238 0.619220 0.865267 0.145131
H58   H     H_    0.213358 0.569981 0.888708 0.154118
H59   H     H_    0.879702 0.190105 0.534203 0.115526
H60   H     H_    0.878359 0.266378 0.585655 0.135302
H61   H     H_    0.986830 0.110662 0.579433 0.163666
H62   H     H_    0.978669 0.184542 0.630983 0.174562
H63   H     H_    0.775606 0.992486 0.575046 0.146022
H64   H     H_    0.758756 0.069573 0.624007 0.173610
H65   H     H_    0.822952 0.979648 0.632755 0.159259
H66   H     H_    0.609977 0.817945 0.947162 0.128222
H67   H     H_    0.661374 0.139081 0.051170 0.122780
H68   H     H_    0.566235 0.720710 0.897346 0.139158
H69   H     H_    0.814196 0.922751 0.913990 0.157709
H70   H     H_    0.763378 0.827636 0.863924 0.177493
H71   H     H_    0.622885 0.900394 0.847390 0.149959
H72   H     H_    0.773816 0.012223 0.844476 0.166748
H73   H     H_    0.689351 0.001617 0.895553 0.162816
H74   H     H_    0.358058 0.200042 0.526350 0.162620
H75   H     H_    0.475745 0.200316 0.557325 0.095739
H76   H     H_    0.355194 0.136041 0.631002 0.196852
H77   H     H_    0.387236 0.275679 0.609109 0.133788
H78   H     H_    0.033779 0.662039 0.461817 0.123701
H79   H     H_    0.193285 0.193500 0.575200 0.137590
H80   H     H_    0.183203 0.158469 0.636694 0.137360
H81   H     H_    0.156396 0.048407 0.593783 0.186084
H82   H     H_    0.113046 0.261735 0.967090 0.162634
H83   H     H_    0.156056 0.401323 0.940705 0.121347
H84   H     H_    0.017603 0.163916 0.891754 0.170089
H85   H     H_    0.058762 0.303515 0.866046 0.173714
H86   H     H_    0.269000 0.365994 0.878566 0.153040
H87   H     H_    0.195367 0.240258 0.841444 0.164085
H88   H     H_    0.224454 0.221936 0.901616 0.149595
H89   H     H_    0.353906 0.361829 0.042502 0.136749
H90   H     H_    0.880512 0.728646 0.542801 0.127278
H91   H     H_    0.790111 0.601525 0.510460 0.167787
H92   H     H_    0.880091 0.603900 0.597965 0.130300
H93   H     H_    0.751569 0.595659 0.616985 0.209090
H94   H     H_    0.639437 0.416028 0.562276 0.145094
H95   H     H_    0.716532 0.396357 0.609755 0.148429
H96   H     H_    0.776030 0.424604 0.551046 0.137700
O1    O     O_R   0.530190 0.870330 0.301660 -0.522291
O2    O     O_R   0.870330 0.530190 0.698340 -0.514693
O3    O     O_R   0.469810 0.340140 0.801660 -0.511270
O4    O     O_R   0.659860 0.129670 0.698340 -0.516240
O5    O     O_R   0.494300 0.651190 0.297490 -0.500673
O6    O     O_R   0.156890 0.505700 0.202510 -0.491885
O7    O     O_R   0.348810 0.843110 0.297490 -0.495576
O8    O     O_R   0.494300 0.651190 0.202510 -0.483127
O9    O     O_R   0.156890 0.505700 0.297490 -0.489465
O10   O     O_R   0.348810 0.843110 0.202510 -0.490216
O11   O     O_R   0.651190 0.494300 0.797490 -0.486405
O12   O     O_R   0.340140 0.469810 0.198340 -0.509234
O13   O     O_R   0.505700 0.156890 0.702510 -0.500717
O14   O     O_R   0.843110 0.348810 0.797490 -0.492529
O15   O     O_R   0.651190 0.494300 0.702510 -0.497425
O16   O     O_R   0.505700 0.156890 0.797490 -0.483577
O17   O     O_R   0.843110 0.348810 0.702510 -0.494382
O18   O     O_3   0.333333 0.666667 0.250000 -0.240927
O19   O     O_3   0.666667 0.333333 0.750000 -0.238307
O20   O     O_3   0.108646 0.367182 0.458073 -0.575139
O21   O     O_3   0.279023 0.859106 0.045442 -0.569726
O22   O     O_3   0.698568 0.662153 0.448082 -0.588195
O23   O     O_R   0.129670 0.659860 0.301660 -0.518150
O24   O     O_3   0.030098 0.313900 0.049243 -0.574574
O25   O     O_3   0.338191 0.040927 0.449654 -0.572656
O26   O     O_3   0.667943 0.724923 0.049536 -0.580299
O27   O     O_3   0.295317 0.880556 0.946436 -0.577354
O28   O     O_3   0.042405 0.323569 0.555163 -0.574998
O29   O     O_3   0.680955 0.709854 0.944085 -0.591689
O30   O     O_3   0.322300 0.037119 0.548466 -0.572861
O31   O     O_3   0.976267 0.286832 0.952072 -0.585572
O32   O     O_3   0.710296 0.681570 0.547890 -0.581028
O33   O     O_R   0.530190 0.870330 0.198340 -0.509297
O34   O     O_R   0.340140 0.469810 0.301660 -0.502387
O35   O     O_R   0.129670 0.659860 0.198340 -0.506304
O36   O     O_R   0.870330 0.530190 0.801660 -0.503050
O37   O     O_R   0.469810 0.340140 0.698340 -0.520197
O38   O     O_R   0.659860 0.129670 0.801660 -0.515456

loop_
_geom_bond_atom_site_label_1
_geom_bond_atom_site_label_2
_ccdc_geom_bond_type
C96   H44   S    
C49   H89   S    
C101  C102  S    
C40   H1    S    
Cr4   O11   S    
Cr6   O4    S    
C108  H73   S    
C53   C74   S    
C45   H45   S    
C100  C101  S    
Cr5   O3    S    
C23   C76   S    
C47   H67   S    
C3    H74   S    
Cr6   O19   S    
C6    H82   S    
C81   C82   S    
C90   C91   S    
C7    C8    S    
C104  H62   S    
C44   C64   A    
Cr4   O36   S    
C65   O33   A    
C46   C49   A    
C90   O24   S    
C93   C94   S    
C56   C79   S    
C12   C20   S    
C46   C62   A    
Cr3   O18   S    
C14   C74   T    
C31   C58   A    
C108  H72   S    
C8    H87   S    
C9    H90   S    
C98   O36   A    
C18   C77   T    
C11   H96   S    
C86   C88   S    
C66   C69   S    
C106  C107  S    
Cr1   O33   S    
C94   H38   S    
C15   C65   S    
C83   H14   S    
C84   H15   S    
C103  H59   S    
C33   C36   A    
C30   C38   A    
C100  H52   S    
C95   H42   S    
C106  H66   S    
C101  H53   S    
C34   O27   S    
Cr4   O2    S    
C106  H68   S    
Cr1   O8    S    
C41   C60   A    
C58   C77   S    
C97   C99   S    
Cr6   O17   S    
C76   O3    A    
C86   H20   S    
Cr6   O38   S    
C89   H25   S    
C98   O14   A    
C1    O5    A    
C82   H11   S    
C107  C108  S    
C6    O31   S    
C51   C57   A    
C64   C70   S    
C9    C10   S    
C105  H64   S    
C95   H41   S    
C90   H29   S    
C3    O30   S    
C5    H81   S    
C39   O32   S    
C36   O29   S    
C96   H43   S    
C80   H5    S    
C28   C34   A    
C33   C59   A    
C92   H33   S    
C34   C60   A    
C13   O2    A    
C4    H77   S    
C93   H36   S    
C35   O28   S    
C105  H65   S    
C36   C62   A    
C9    O32   S    
C57   C78   S    
C82   H10   S    
C104  C105  S    
C37   C63   A    
C28   C55   A    
C19   C43   S    
C104  H61   S    
C38   C64   A    
C102  H58   S    
C48   C53   A    
C41   H12   S    
C92   H32   S    
C50   C58   A    
C97   H46   S    
C4    H76   S    
C108  H71   S    
C54   O9    A    
C43   O12   A    
C84   C85   S    
C88   H22   S    
C35   C61   A    
C83   H13   S    
C91   C92   S    
C32   O1    A    
Cr5   O13   S    
C80   C81   S    
C37   O30   S    
C21   O35   A    
C84   H16   S    
Cr1   O18   S    
Cr5   O37   S    
C31   O25   S    
C45   C63   A    
C103  H60   S    
C93   O25   S    
Cr4   O19   S    
C31   C37   A    
C81   H7    S    
C100  H51   S    
C87   O13   A    
C101  H54   S    
Cr2   O6    S    
C10   H93   S    
C2    O37   A    
C1    O34   A    
Cr2   O34   S    
C6    H83   S    
C99   H48   S    
C61   C67   S    
C27   O20   S    
C12   O16   A    
C83   C84   S    
C9    H91   S    
C85   H19   S    
Cr3   O35   S    
C89   H26   S    
C96   C97   S    
C29   C39   A    
C41   C47   A    
C21   O6    A    
C62   C72   S    
C100  O27   S    
C2    C26   S    
C1    C16   S    
C30   O24   S    
Cr2   O9    S    
C28   O21   S    
C88   H24   S    
C90   H28   S    
C33   O26   S    
C99   H49   S    
C44   C51   A    
C80   O20   S    
C15   C73   T    
C63   C71   S    
C97   H47   S    
C106  O29   S    
C39   C66   A    
C80   H6    S    
C8    H86   S    
C43   O8    A    
C18   C32   S    
Cr3   O10   S    
C24   C71   T    
C3    C4    S    
Cr2   O12   S    
C59   C75   S    
C82   H9    S    
C91   H31   S    
C96   O26   S    
C5    H79   S    
C91   H30   S    
C102  H57   S    
C40   C48   A    
C38   O31   S    
C44   H34   S    
Cr4   O15   S    
C14   C54   S    
C23   C72   T    
C20   C68   T    
C32   O7    A    
C29   O22   S    
C105  H63   S    
C4    C5    S    
Cr1   O5    S    
C13   O17   A    
C65   O10   A    
C27   C53   A    
Cr5   O19   S    
C6    C7    S    
C29   C56   A    
C76   O11   A    
C107  H70   S    
C49   C59   A    
C92   H35   S    
C81   H8    S    
C95   H40   S    
C27   C35   A    
C16   C79   T    
C7    H84   S    
C3    H75   S    
C10   H92   S    
C86   O22   S    
C8    H88   S    
C85   H18   S    
C12   O38   A    
C11   H95   S    
Cr5   O16   S    
C89   H27   S    
C83   O21   S    
C45   C50   A    
C102  H55   S    
C94   H39   S    
C103  O28   S    
C19   C75   T    
C17   C78   T    
C51   H3    S    
C87   O4    A    
C13   C22   S    
C50   H2    S    
C30   C57   A    
C7    H85   S    
C94   C95   S    
C24   C87   S    
C17   C21   S    
C22   C67   T    
C48   H78   S    
C93   H37   S    
C10   C11   S    
C40   C61   A    
C99   H50   S    
C55   C73   S    
C46   H56   S    
C47   C55   A    
C88   C89   S    
C60   C68   S    
Cr3   O23   S    
C11   H94   S    
C25   C98   S    
C107  H69   S    
C103  C104  S    
C42   C66   A    
C26   C69   T    
Cr2   O18   S    
C25   C70   T    
Cr3   O7    S    
C54   O23   A    
Cr6   O14   S    
Cr1   O1    S    
C86   H21   S    
C85   H17   S    
C52   C56   A    
C2    O15   A    
C42   C52   A    
C5    H80   S    
C42   H23   S    
C52   H4    S    
