data_mof_unit_42617.cif
_audit_creation_date              2012-12-11T14:44:06-0500
_audit_creation_method            fapswitch 2.2
_symmetry_space_group_name_H-M    P1
_symmetry_Int_Tables_number       1
_space_group_crystal_system       triclinic
_cell_length_a                    18.998721
_cell_length_b                    10.86869
_cell_length_c                    18.856784
_cell_angle_alpha                 90.065751
_cell_angle_beta                  89.923784
_cell_angle_gamma                 90.056784
_cell_volume                      3893.75220975

loop_
_atom_site_label
_atom_site_type_symbol
_atom_type_description
_atom_site_fract_x
_atom_site_fract_y
_atom_site_fract_z
_atom_type_partial_charge
C1    C     C_R   0.712029 0.330329 0.138481 0.564444
C2    C     C_R   0.288051 0.330158 0.861481 0.561719
C3    C     C_R   0.212029 0.830329 0.138481 0.564444
C4    C     C_R   0.788051 0.830158 0.861481 0.561717
C5    C     C_R   0.510340 0.391796 0.927018 -0.102953
C6    C     C_R   0.489706 0.391606 0.073352 -0.102495
C7    C     C_R   0.010340 0.891796 0.927018 -0.102952
C8    C     C_R   0.989707 0.891606 0.073352 -0.102495
C9    C     C_R   0.006278 0.002854 0.963983 -0.165430
C10   C     C_R   0.993831 0.002757 0.036616 -0.165754
C11   C     C_R   0.506278 0.502854 0.963983 -0.165430
C12   C     C_R   0.493831 0.502757 0.036616 -0.165754
C13   C     C_R   0.706572 0.835803 0.044529 -0.129430
C14   C     C_R   0.293399 0.836121 0.955355 -0.129450
C15   C     C_R   0.206572 0.335803 0.044529 -0.129429
C16   C     C_R   0.793399 0.336121 0.955355 -0.129451
C17   C     C_R   0.717035 0.805143 0.973221 -0.130643
C18   C     C_R   0.282988 0.805486 0.026648 -0.130221
C19   C     C_R   0.217035 0.305143 0.973221 -0.130643
C20   C     C_R   0.782988 0.305486 0.026648 -0.130222
C21   C     C_R   0.776465 0.850609 0.937088 0.025118
C22   C     C_R   0.223649 0.850940 0.062897 0.024844
C23   C     C_R   0.276465 0.350609 0.937088 0.025118
C24   C     C_R   0.723649 0.350940 0.062897 0.024843
C25   C     C_R   0.826960 0.918018 0.973906 -0.128311
C26   C     C_R   0.173207 0.918407 0.026197 -0.128209
C27   C     C_R   0.326960 0.418018 0.973906 -0.128311
C28   C     C_R   0.673207 0.418406 0.026197 -0.128209
C29   C     C_R   0.817458 0.946215 0.044102 -0.132841
C30   C     C_R   0.182669 0.946612 0.956023 -0.133199
C31   C     C_R   0.317458 0.446215 0.044102 -0.132840
C32   C     C_R   0.682669 0.446612 0.956023 -0.133199
C33   C     C_R   0.756334 0.909552 0.079627 0.029656
C34   C     C_R   0.243682 0.909860 0.920379 0.028811
C35   C     C_R   0.256334 0.409552 0.079627 0.029656
C36   C     C_R   0.743682 0.409860 0.920379 0.028810
C37   C     C_R   0.528040 0.056750 0.470654 -0.127447
C38   C     C_R   0.519643 0.060073 0.542794 -0.141780
C39   C     C_R   0.027989 0.556725 0.470642 -0.127424
C40   C     C_R   0.019598 0.560043 0.542781 -0.141748
C41   C     C_R   0.497124 0.167909 0.575761 0.027409
C42   C     C_R   0.515974 0.162417 0.429694 0.049584
C43   C     C_R   0.997121 0.667899 0.575758 0.027436
C44   C     C_R   0.015961 0.662417 0.429690 0.049599
C45   C     C_R   0.531058 0.155590 0.146754 0.543837
C46   C     C_R   0.468976 0.155711 0.853231 0.537140
C47   C     C_R   0.031058 0.655590 0.146754 0.543834
C48   C     C_R   0.968976 0.655711 0.853231 0.537145
C49   C     C_R   0.487832 0.275996 0.535853 -0.140164
C50   C     C_R   0.497613 0.273294 0.462674 -0.146951
C51   C     C_R   0.987861 0.776005 0.535859 -0.140173
C52   C     C_R   0.997637 0.773307 0.462679 -0.146953
C53   C     C_R   0.795457 0.011240 0.471244 -0.138420
C54   C     C_R   0.185713 0.928745 0.542415 -0.144709
C55   C     C_R   0.295483 0.511190 0.471236 -0.138432
C56   C     C_R   0.685711 0.428751 0.542415 -0.144724
C57   C     C_R   0.794983 0.002370 0.543822 -0.159068
C58   C     C_R   0.180606 0.919931 0.469985 -0.157784
C59   C     C_R   0.295008 0.502335 0.543814 -0.159074
C60   C     C_R   0.680605 0.419939 0.469985 -0.157800
C61   C     C_R   0.748100 0.922376 0.577787 0.043955
C62   C     C_R   0.241207 0.905652 0.427542 0.045696
C63   C     C_R   0.248105 0.422385 0.577788 0.043966
C64   C     C_R   0.741206 0.405647 0.427543 0.045689
C65   C     C_R   0.694694 0.861904 0.537611 0.004638
C66   C     C_R   0.308259 0.897756 0.459406 -0.010051
C67   C     C_R   0.194680 0.361948 0.537619 0.004658
C68   C     C_R   0.808256 0.397730 0.459410 -0.010046
C69   C     C_R   0.696197 0.871564 0.463888 -0.163827
C70   C     C_R   0.312391 0.904392 0.533071 -0.161003
C71   C     C_R   0.196179 0.371599 0.463894 -0.163801
C72   C     C_R   0.812388 0.404365 0.533075 -0.161007
C73   C     C_R   0.746948 0.944474 0.430574 0.025381
C74   C     C_R   0.251563 0.924484 0.574148 0.020653
C75   C     C_R   0.246950 0.444462 0.430573 0.025381
C76   C     C_R   0.751560 0.424476 0.574150 0.020646
C77   C     C_R   0.741927 0.967464 0.147918 0.539796
C78   C     C_R   0.258068 0.967597 0.852084 0.534897
C79   C     C_R   0.241927 0.467465 0.147918 0.539795
C80   C     C_R   0.758068 0.467597 0.852084 0.534895
C81   C     C_R   0.728745 0.377020 0.353395 0.602695
C82   C     C_R   0.269166 0.380152 0.648140 0.575003
C83   C     C_R   0.228745 0.877022 0.353394 0.602706
C84   C     C_R   0.769166 0.880149 0.648139 0.574978
C85   C     C_R   0.534765 0.156677 0.355241 0.572827
C86   C     C_R   0.468065 0.157699 0.646577 0.555415
C87   C     C_R   0.034762 0.656678 0.355239 0.572827
C88   C     C_R   0.968065 0.657698 0.646577 0.555434
C89   C     C_R   0.740495 0.975070 0.356034 0.552569
C90   C     C_R   0.258926 0.970535 0.645685 0.546810
C91   C     C_R   0.240495 0.475066 0.356033 0.552572
C92   C     C_R   0.758925 0.470533 0.645686 0.546806
C93   C     C_R   0.497043 0.164363 0.925575 0.003749
C94   C     C_R   0.503142 0.164166 0.074366 0.004651
C95   C     C_R   0.997043 0.664362 0.925575 0.003750
C96   C     C_R   0.003142 0.664166 0.074366 0.004651
C97   C     C_R   0.501947 0.278108 0.962507 0.027040
C98   C     C_R   0.498142 0.278004 0.037653 0.027008
C99   C     C_R   0.001947 0.778108 0.962507 0.027040
C100  C     C_R   0.998142 0.778004 0.037653 0.027008
C101  C     C_R   0.501247 0.053760 0.036167 -0.148664
C102  C     C_R   0.499252 0.053860 0.963536 -0.149042
C103  C     C_R   0.001248 0.553760 0.036167 -0.148664
C104  C     C_R   0.999252 0.553860 0.963536 -0.149041
Cr1   Cr    Cr6+3 0.772000 0.169640 0.250110 1.047208
Cr2   Cr    Cr6+3 0.228000 0.169640 0.749890 1.063838
Cr3   Cr    Cr6+3 0.272000 0.669640 0.250110 1.047211
Cr4   Cr    Cr6+3 0.728000 0.669640 0.749890 1.063842
Cr5   Cr    Cr6+3 0.614960 0.323350 0.249260 1.007833
Cr6   Cr    Cr6+3 0.385040 0.323350 0.750740 1.007970
Cr7   Cr    Cr6+3 0.114960 0.823350 0.249260 1.007835
Cr8   Cr    Cr6+3 0.885040 0.823350 0.750740 1.007967
Cr9   Cr    Cr6+3 0.616670 0.010620 0.250840 1.031081
Cr10  Cr    Cr6+3 0.383330 0.010620 0.749160 1.030011
Cr11  Cr    Cr6+3 0.116670 0.510620 0.250840 1.031083
Cr12  Cr    Cr6+3 0.883330 0.510620 0.749160 1.030013
H1    H     H_    0.504245 0.965109 0.062231 0.142651
H2    H     H_    0.496472 0.965242 0.937282 0.142682
H3    H     H_    0.004246 0.465109 0.062231 0.142651
H4    H     H_    0.996472 0.465242 0.937282 0.142683
H5    H     H_    0.833376 0.073135 0.447309 0.139960
H6    H     H_    0.138382 0.944166 0.573332 0.135038
H7    H     H_    0.333422 0.573046 0.447296 0.139961
H8    H     H_    0.638380 0.444184 0.573332 0.135050
H9    H     H_    0.834851 0.052729 0.572963 0.136666
H10   H     H_    0.128234 0.922472 0.447424 0.141023
H11   H     H_    0.334893 0.552669 0.572949 0.136675
H12   H     H_    0.628233 0.422493 0.447424 0.141031
H13   H     H_    0.656184 0.825646 0.432525 0.109695
H14   H     H_    0.363913 0.903987 0.557768 0.130042
H15   H     H_    0.156149 0.325713 0.432537 0.109696
H16   H     H_    0.863909 0.403945 0.557773 0.130023
H17   H     H_    0.521925 0.396373 0.870971 0.139075
H18   H     H_    0.478065 0.396056 0.129395 0.139852
H19   H     H_    0.021925 0.896373 0.870971 0.139074
H20   H     H_    0.978065 0.896056 0.129395 0.139852
H21   H     H_    0.011820 0.089204 0.935968 0.112777
H22   H     H_    0.988301 0.089032 0.064804 0.112298
H23   H     H_    0.511819 0.589204 0.935968 0.112777
H24   H     H_    0.488301 0.589032 0.064804 0.112298
H25   H     H_    0.658721 0.806791 0.070963 0.125639
H26   H     H_    0.341175 0.807046 0.928830 0.125984
H27   H     H_    0.158721 0.306791 0.070963 0.125639
H28   H     H_    0.841175 0.307046 0.928830 0.125984
H29   H     H_    0.677779 0.750475 0.945975 0.128085
H30   H     H_    0.322193 0.750782 0.053782 0.128051
H31   H     H_    0.177779 0.250474 0.945975 0.128085
H32   H     H_    0.822193 0.250782 0.053782 0.128051
H33   H     H_    0.872521 0.954698 0.947366 0.159887
H34   H     H_    0.127688 0.955070 0.052800 0.159713
H35   H     H_    0.372521 0.454698 0.947366 0.159887
H36   H     H_    0.627688 0.455069 0.052800 0.159713
H37   H     H_    0.544769 0.970501 0.447292 0.134184
H38   H     H_    0.526479 0.975639 0.572171 0.177952
H39   H     H_    0.044685 0.470459 0.447275 0.134166
H40   H     H_    0.026403 0.475589 0.572149 0.177915
H41   H     H_    0.469697 0.360332 0.560450 0.133749
H42   H     H_    0.490241 0.356521 0.432038 0.119131
H43   H     H_    0.969758 0.860356 0.560464 0.133732
H44   H     H_    0.990295 0.856551 0.432050 0.119130
O1    O     O_R   0.787540 0.042690 0.170470 -0.539432
O2    O     O_R   0.212460 0.042690 0.829530 -0.539930
O3    O     O_R   0.287540 0.542690 0.170470 -0.539434
O4    O     O_R   0.712460 0.542690 0.829530 -0.539929
O5    O     O_R   0.556540 0.252920 0.323970 -0.515617
O6    O     O_R   0.443460 0.252920 0.676030 -0.508548
O7    O     O_R   0.056540 0.752920 0.323970 -0.515620
O8    O     O_R   0.943460 0.752920 0.676030 -0.508548
O9    O     O_R   0.545870 0.051100 0.330840 -0.498460
O10   O     O_R   0.454130 0.051100 0.669160 -0.508678
O11   O     O_R   0.045870 0.551100 0.330840 -0.498462
O12   O     O_R   0.954130 0.551100 0.669160 -0.508671
O13   O     O_R   0.681340 0.959300 0.325510 -0.507586
O14   O     O_R   0.318660 0.959300 0.674490 -0.507602
O15   O     O_R   0.181340 0.459300 0.325510 -0.507580
O16   O     O_R   0.818660 0.459300 0.674490 -0.507608
O17   O     O_3   0.667880 0.167870 0.250070 -0.279020
O18   O     O_3   0.332120 0.167870 0.749930 -0.273906
O19   O     O_3   0.167880 0.667870 0.250070 -0.279017
O20   O     O_3   0.832120 0.667870 0.749930 -0.273905
O21   O     O_R   0.765660 0.292160 0.175050 -0.488948
O22   O     O_R   0.234340 0.292160 0.824950 -0.494944
O23   O     O_R   0.265660 0.792160 0.175050 -0.488947
O24   O     O_R   0.734340 0.792160 0.824950 -0.494951
O25   O     O_R   0.670190 0.408980 0.168550 -0.517771
O26   O     O_R   0.329810 0.408980 0.831450 -0.521675
O27   O     O_R   0.170190 0.908980 0.168550 -0.517771
O28   O     O_R   0.829810 0.908980 0.831450 -0.521678
O29   O     O_R   0.556580 0.251450 0.175160 -0.527922
O30   O     O_R   0.443420 0.251450 0.824840 -0.528467
O31   O     O_R   0.056580 0.751450 0.175160 -0.527923
O32   O     O_R   0.943420 0.751450 0.824840 -0.528468
O33   O     O_R   0.545920 0.049510 0.170320 -0.510430
O34   O     O_R   0.454080 0.049510 0.829680 -0.513598
O35   O     O_R   0.045920 0.549510 0.170320 -0.510432
O36   O     O_R   0.954080 0.549510 0.829680 -0.513592
O37   O     O_R   0.681390 0.957840 0.176710 -0.503375
O38   O     O_R   0.318610 0.957840 0.823290 -0.504299
O39   O     O_R   0.181390 0.457840 0.176710 -0.503375
O40   O     O_R   0.818610 0.457840 0.823290 -0.504301
O41   O     O_R   0.787500 0.044280 0.330990 -0.524245
O42   O     O_R   0.212500 0.044280 0.669010 -0.506614
O43   O     O_R   0.287500 0.544280 0.330990 -0.524246
O44   O     O_R   0.712500 0.544280 0.669010 -0.506597
O45   O     O_R   0.765610 0.293630 0.323860 -0.455356
O46   O     O_R   0.234390 0.293630 0.676140 -0.438616
O47   O     O_R   0.265610 0.793630 0.323860 -0.455350
O48   O     O_R   0.734390 0.793630 0.676140 -0.438619
O49   O     O_R   0.670140 0.410570 0.329080 -0.533515
O50   O     O_R   0.329860 0.410570 0.670920 -0.532978
O51   O     O_R   0.170140 0.910570 0.329080 -0.533516
O52   O     O_R   0.829860 0.910570 0.670920 -0.532965
C105  C     C_2   0.636349 0.788568 0.568581 0.225257
H45   H     H_    0.613576 0.713337 0.538376 0.086542
O53   O     O_2   0.610135 0.815687 0.625627 -0.504273
C106  C     C_2   0.375098 0.889614 0.418912 0.226906
H46   H     H_    0.421872 0.853424 0.444434 0.081859
O54   O     O_2   0.379794 0.928227 0.358321 -0.482747
C107  C     C_2   0.136316 0.288668 0.568599 0.225235
H47   H     H_    0.113504 0.213468 0.538393 0.086502
O55   O     O_2   0.110129 0.315799 0.625657 -0.504251
C108  C     C_2   0.875096 0.389564 0.418918 0.226905
H48   H     H_    0.921862 0.353337 0.444438 0.081807
O56   O     O_2   0.879801 0.428198 0.358332 -0.482747
H49   H     H_    0.856027 0.005134 0.068991 0.139235
H50   H     H_    0.144144 0.005525 0.931238 0.139198
H51   H     H_    0.356027 0.505134 0.068991 0.139235
H52   H     H_    0.644144 0.505525 0.931238 0.139198

loop_
_geom_bond_atom_site_label_1
_geom_bond_atom_site_label_2
_ccdc_geom_bond_type
C52   H44   S    
C89   O41   A    
C62   C83   S    
C14   H26   S    
C58   C62   A    
C101  C102  A    
C56   C76   A    
C48   C95   S    
C31   H51   S    
C8    H20   S    
C14   C18   A    
C81   O49   A    
C86   O6    A    
C89   O13   A    
C72   C76   A    
C33   C77   S    
C97   C98   A    
C105  H45   S    
C50   H42   S    
C15   C19   A    
C41   C86   S    
Cr4   O4    S    
Cr4   O20   S    
C7    C99   A    
C88   O12   A    
C43   C88   S    
C32   C36   A    
C47   O35   A    
C16   H28   S    
C106  O54   D    
C5    C11   A    
C55   C59   A    
C67   C107  S    
C64   C68   A    
C6    C12   A    
Cr12  O40   S    
C95   C99   A    
Cr8   O32   S    
Cr6   O18   S    
C59   H11   S    
Cr8   O8    S    
C29   C33   A    
C70   H14   S    
Cr12  O12   S    
C25   H33   S    
C2    O22   A    
C81   O45   A    
C41   C49   A    
C37   C42   A    
C49   C50   A    
C11   H23   S    
Cr2   O22   S    
Cr11  O15   S    
C103  C104  A    
Cr1   O21   S    
C54   C74   A    
Cr9   O37   S    
C9    H21   S    
Cr3   O19   S    
C40   C43   A    
C80   O4    A    
C20   C24   A    
C94   C101  A    
Cr5   O29   S    
C88   O8    A    
C70   C74   A    
C83   O47   A    
Cr4   O48   S    
C12   H24   S    
C46   O34   A    
C13   H25   S    
C44   C87   S    
C9    C10   A    
C34   C78   S    
Cr3   O47   S    
C92   O44   A    
C75   C91   S    
Cr8   O20   S    
C55   C75   A    
C44   C52   A    
Cr9   O17   S    
C54   H6    S    
C18   C22   A    
C29   H49   S    
C48   O36   A    
Cr7   O19   S    
C49   H41   S    
Cr2   O46   S    
Cr6   O50   S    
Cr9   O33   S    
C46   O30   A    
Cr5   O49   S    
C45   C94   S    
C15   C35   A    
C83   O51   A    
C72   H16   S    
C63   C67   A    
C105  O53   D    
C25   C29   A    
C55   H7    S    
C71   C75   A    
C79   O39   A    
C74   C90   S    
C30   C34   A    
C63   C82   S    
C27   C31   A    
C30   H50   S    
C6    C98   A    
C37   H37   S    
Cr7   O31   S    
C28   C32   A    
C62   C66   A    
C106  H46   S    
C32   H52   S    
C38   C41   A    
Cr11  O11   S    
C21   C25   A    
C36   C80   S    
C47   C96   S    
C79   O3    A    
C107  H47   S    
C1    O21   A    
C82   O50   A    
Cr9   O9    S    
C3    C22   S    
Cr10  O18   S    
Cr11  O39   S    
Cr6   O30   S    
C85   O9    A    
C56   C60   A    
C39   H39   S    
C68   C72   A    
C45   O33   A    
C19   C23   A    
C2    O26   A    
C65   C105  S    
C37   C38   A    
C61   C65   A    
C107  O55   D    
C84   O48   A    
C93   C97   A    
Cr1   O41   S    
C99   C100  A    
C60   H12   S    
C16   C20   A    
C26   H34   S    
C87   O11   A    
C7    C9    A    
C20   H32   S    
C5    H17   S    
C91   O15   A    
Cr4   O44   S    
C42   C85   S    
C4    O24   A    
C69   C73   A    
Cr6   O26   S    
Cr5   O5    S    
C42   C50   A    
C15   H27   S    
Cr12  O16   S    
C45   O29   A    
C76   C92   S    
C58   H10   S    
C23   C27   A    
Cr12  O20   S    
Cr10  O38   S    
C17   H29   S    
C31   C35   A    
C59   C63   A    
C35   C79   S    
Cr7   O7    S    
C38   H38   S    
Cr11  O19   S    
Cr8   O52   S    
C39   C40   A    
C95   C104  A    
C78   O2    A    
Cr9   O13   S    
Cr8   O28   S    
C54   C58   A    
Cr10  O10   S    
Cr11  O35   S    
C108  O56   D    
C53   C57   A    
Cr10  O34   S    
C80   O40   A    
C27   H35   S    
C86   O10   A    
C53   C73   A    
C92   O16   A    
C103  H3    S    
C24   C28   A    
Cr1   O17   S    
C18   H30   S    
C61   C84   S    
C3    O27   A    
C93   C102  A    
C14   C34   A    
C11   C12   A    
C84   O52   A    
C47   O31   A    
C57   C61   A    
C39   C44   A    
Cr1   O45   S    
C1    O25   A    
C87   O7    A    
Cr3   O43   S    
C90   O14   A    
Cr7   O27   S    
C82   O46   A    
C13   C17   A    
C60   C64   A    
Cr5   O25   S    
C101  H1    S    
C4    O28   A    
C28   H36   S    
C19   H31   S    
Cr4   O24   S    
C8    C100  A    
C85   O5    A    
C51   C52   A    
C6    H18   S    
C53   H5    S    
C1    C24   S    
C16   C36   A    
C57   H9    S    
C4    C21   S    
Cr6   O6    S    
C43   C51   A    
C66   C70   A    
C46   C93   S    
C77   O37   A    
C69   H13   S    
C65   C69   A    
C68   C108  S    
C96   C100  A    
C51   H43   S    
C77   O1    A    
C56   H8    S    
C5    C97   A    
C78   O38   A    
C67   C71   A    
Cr2   O2    S    
C66   C106  S    
C108  H48   S    
C102  H2    S    
Cr7   O51   S    
C64   C81   S    
C48   O32   A    
C7    H19   S    
C73   C89   S    
Cr12  O36   S    
Cr5   O17   S    
Cr10  O14   S    
Cr2   O42   S    
C71   H15   S    
C8    C10   A    
C13   C33   A    
C22   C26   A    
C96   C103  A    
Cr3   O23   S    
C2    C23   S    
C94   C98   A    
C40   H40   S    
Cr1   O1    S    
Cr3   O3    S    
C10   H22   S    
C90   O42   A    
C3    O23   A    
Cr2   O18   S    
C91   O43   A    
C104  H4    S    
C26   C30   A    
C17   C21   A    
