data_mof_unit_43602.cif
_audit_creation_date              2013-03-05T15:55:01-0500
_audit_creation_method            fapswitch 2.2
_symmetry_space_group_name_H-M    P1
_symmetry_Int_Tables_number       1
_space_group_crystal_system       triclinic
_cell_length_a                    6.93091
_cell_length_b                    14.556117
_cell_length_c                    16.191269
_cell_angle_alpha                 90.447118
_cell_angle_beta                  89.864982
_cell_angle_gamma                 90.179107
_cell_volume                      1633.4286112

loop_
_atom_site_label
_atom_site_type_symbol
_atom_site_description
_atom_site_fract_x
_atom_site_fract_y
_atom_site_fract_z
_atom_type_partial_charge
O1    O     O_R   0.505810 0.583360 0.413880 -0.609817
O2    O     O_R   0.175870 0.595480 0.585520 -0.586017
O3    O     O_R   0.005540 0.416640 0.586120 -0.582974
C1    C     C_R   0.344794 0.615357 0.616399 1.002702
O4    O     O_R   0.176100 0.594390 0.414490 -0.609952
O5    O     O_R   0.005770 0.415540 0.413870 -0.607541
C2    C     C_R   0.345404 0.616468 0.385737 0.892581
O6    O     O_R   0.505580 0.584460 0.586130 -0.574536
O7    O     O_3   0.339190 0.441320 0.500000 -0.250071
V1    V     V_3+5 0.064350 0.510890 0.500000 1.212054
O8    O     O_R   0.676050 0.404520 0.414480 -0.599229
C3    C     C_R   0.845114 0.382024 0.385768 0.913702
O9    O     O_R   0.675830 0.405610 0.585510 -0.539113
C4    C     C_R   0.844386 0.382049 0.612559 1.137103
V2    V     V_3+5 0.564340 0.489110 0.500000 1.249280
O10   O     O_3   0.839370 0.558680 0.500000 -0.289160
C5    C     C_2   0.723595 0.198569 0.779042 -0.177942
C6    C     C_2   0.887807 0.177266 0.818920 -0.487797
H1    H     H_    0.589771 0.167129 0.799683 0.182971
H2    H     H_    0.025815 0.203204 0.797742 0.200361
C7    C     C_2   0.711879 0.256956 0.703530 0.430346
C8    C     C_2   0.855711 0.315673 0.681431 -0.533717
H3    H     H_    0.986985 0.319349 0.717437 0.187831
C9    C     C_R   0.047477 0.223005 0.219409 -0.136299
H4    H     H_    0.188336 0.204533 0.195596 0.122363
C10   C     C_R   0.036185 0.286984 0.284233 -0.123551
H5    H     H_    0.168934 0.316008 0.308206 0.126145
C11   C     C_R   0.856397 0.313199 0.317444 -0.115354
C12   C     C_R   0.688221 0.273638 0.284028 -0.120270
H6    H     H_    0.547368 0.292094 0.307860 0.125203
C13   C     C_R   0.699512 0.209662 0.219199 -0.132939
H7    H     H_    0.566766 0.180629 0.195233 0.125448
C14   C     C_R   0.879296 0.183496 0.185946 -0.123567
C15   C     C_R   0.209717 0.745475 0.701074 -0.085306
H8    H     H_    0.086766 0.747742 0.659982 0.147944
C16   C     C_R   0.219848 0.809169 0.766298 -0.091609
H9    H     H_    0.103720 0.858127 0.774078 0.126915
C17   C     C_R   0.379573 0.811188 0.819630 -0.187494
C18   C     C_R   0.526938 0.746620 0.807328 -0.245550
H10   H     H_    0.648074 0.745385 0.849478 0.170498
C19   C     C_R   0.514751 0.679645 0.744262 0.389920
C20   C     C_R   0.356638 0.680366 0.688311 -0.303370
C21   C     C_R   0.188562 0.723124 0.284089 -0.138573
H11   H     H_    0.047763 0.704709 0.308000 0.120179
C22   C     C_R   0.199587 0.786245 0.219337 -0.128780
H12   H     H_    0.066812 0.814635 0.195565 0.123995
C23   C     C_R   0.379148 0.812408 0.185915 -0.123976
C24   C     C_R   0.547375 0.773641 0.219178 -0.134034
H13   H     H_    0.688169 0.792059 0.195264 0.121790
C25   C     C_R   0.536350 0.710516 0.283934 -0.134137
H14   H     H_    0.669118 0.682123 0.307710 0.121910
C26   C     C_R   0.356784 0.684360 0.317358 -0.114663
O11   O     O_R   0.230120 0.912300 0.917180 -0.594816
O12   O     O_R   0.559740 0.902430 0.088770 -0.600324
O13   O     O_R   0.729930 0.081310 0.089370 -0.598833
C27   C     C_R   0.390471 0.880315 0.117547 0.920131
O14   O     O_R   0.559840 0.901330 0.917750 -0.598260
O15   O     O_R   0.730030 0.080210 0.917120 -0.595788
C28   C     C_R   0.390794 0.879419 0.888548 0.959022
O16   O     O_R   0.230020 0.913400 0.089430 -0.597405
O17   O     O_3   0.396460 0.055470 0.003290 -0.273244
V3    V     V_3+5 0.671360 0.985960 0.003250 1.163113
O18   O     O_R   0.059740 0.091300 0.917690 -0.597885
C29   C     C_R   0.891595 0.112460 0.888840 1.046033
O19   O     O_R   0.059640 0.092400 0.088720 -0.601518
C30   C     C_R   0.890582 0.114781 0.117522 0.920366
V4    V     V_3+5 0.171350 0.007820 0.003190 1.167133
O20   O     O_3   0.896380 0.938200 0.003220 -0.277391
N1    N     N_R   0.656948 0.608112 0.741807 0.229151
O21   O     O_R   0.836404 0.627010 0.758354 -0.422244
O22   O     O_R   0.602205 0.522543 0.739489 -0.406558
N2    N     N_R   0.540739 0.247860 0.653911 0.244837
O23   O     O_R   0.372615 0.241164 0.689306 -0.425183
O24   O     O_R   0.555715 0.228966 0.575451 -0.404243

loop_
_geom_bond_atom_site_label_1
_geom_bond_atom_site_label_2
_geom_bond_distance
_ccdc_geom_bond_type
O15   V3    2.003990 S    
C19   C20   1.423598 A    
C15   C20   1.407056 A    
C1    O6    1.296709 A    
O11   C28   1.296755 A    
O14   V3    2.000970 S    
C18   C19   1.408755 A    
C22   H12   1.082738 S    
C10   H5    1.082764 S    
C3    C11   1.488747 S    
C11   C12   1.406022 A    
C9    C10   1.399952 A    
C2    C26   1.491569 S    
O5    C3    1.296318 A    
C17   C18   1.402972 A    
C21   C26   1.407034 A    
O14   C28   1.302283 A    
V2    O10   2.155705 S    
O13   V3    2.001098 S    
C15   H8    1.083114 S    
N1    O22   1.301211 A    
O8    V2    2.001799 S    
C13   H7    1.082755 S    
O16   V4    2.010015 S    
O19   V4    2.001821 S    
C25   C26   1.408486 A    
C13   C14   1.408621 A    
O1    V2    2.006752 S    
O7    V1    2.160131 S    
C6    H2    1.083179 S    
C17   C28   1.490046 S    
C24   C25   1.401296 A    
O9    C4    1.296726 A    
O17   V3    2.160083 S    
C14   C30   1.488874 S    
C5    C6    1.348035 D    
O12   C27   1.301726 A    
C22   C23   1.408472 A    
O15   C29   1.296774 A    
O18   V4    2.007134 S    
C7    N2    1.439366 S    
V4    O20   2.155678 S    
C9    H4    1.082741 S    
N2    O24   1.301676 A    
C18   H10   1.083486 S    
O4    C2    1.301678 A    
O12   V3    2.002380 S    
C5    C7    1.496953 S    
C27   O16   1.298090 A    
O2    C1    1.304928 A    
C21   H11   1.082707 S    
C12   H6    1.082751 S    
O17   V4    1.705458 S    
C23   C24   1.407049 A    
C25   H14   1.082738 S    
C21   C22   1.401226 A    
O3    C4    1.296899 A    
C24   H13   1.082706 S    
O6    V2    2.001905 S    
O9    V2    2.007098 S    
O2    V1    2.000837 S    
O13   C30   1.296333 A    
C19   N1    1.436204 S    
C16   H9    1.083170 S    
O1    C2    1.298098 A    
N2    O23   1.301051 A    
O5    V1    2.001224 S    
O8    C3    1.301474 A    
C10   C11   1.408584 A    
C9    C14   1.406040 A    
V3    O20   1.709504 S    
C4    C8    1.483516 S    
C16   C17   1.405695 A    
O7    V2    1.706536 S    
O4    V1    2.002346 S    
C12   C13   1.399983 A    
O3    V1    2.004070 S    
V1    O10   1.709432 S    
C6    C29   1.479576 S    
C1    C20   1.496880 S    
C5    H1    1.086144 S    
C15   C16   1.401579 A    
N1    O21   1.301057 A    
O11   V4    2.002283 S    
O18   C29   1.295478 A    
O19   C30   1.301533 A    
C8    H3    1.082721 S    
C7    C8    1.360180 D    
C23   C27   1.491573 S    
