data_mof_unit_50763.cif
_audit_creation_date              2012-12-10T19:49:21-0500
_audit_creation_method            fapswitch 2.2
_symmetry_space_group_name_H-M    P1
_symmetry_Int_Tables_number       1
_space_group_crystal_system       triclinic
_cell_length_a                    15.064689
_cell_length_b                    14.137013
_cell_length_c                    14.888259
_cell_angle_alpha                 89.946165
_cell_angle_beta                  89.273242
_cell_angle_gamma                 90.058148
_cell_volume                      3170.48997412

loop_
_atom_site_label
_atom_site_type_symbol
_atom_type_description
_atom_site_fract_x
_atom_site_fract_y
_atom_site_fract_z
_atom_type_partial_charge
C1    C     C_R   0.327514 0.499819 0.500657 1.050735
C2    C     C_R   0.672430 0.499847 0.500658 1.050704
C3    C     C_R   0.336712 0.527714 0.047446 0.567597
C4    C     C_R   0.663518 0.528786 0.952399 0.569131
C5    C     C_R   0.092704 0.577603 0.473290 0.377840
C6    C     C_R   0.908215 0.423604 0.470576 0.381187
C7    C     C_R   0.904508 0.574730 0.549929 0.374859
C8    C     C_R   0.093836 0.423511 0.547917 0.396247
C9    C     C_R   0.184431 0.581025 0.477450 0.308433
C10   C     C_R   0.816630 0.418227 0.476839 0.307087
C11   C     C_R   0.813442 0.579102 0.538206 0.312088
C12   C     C_R   0.184757 0.418146 0.534139 0.315021
C13   C     C_R   0.231288 0.499321 0.503388 -0.428444
C14   C     C_R   0.768425 0.499046 0.505131 -0.426984
C15   C     C_R   0.047567 0.500925 0.512487 -0.178219
C16   C     C_R   0.951968 0.499478 0.511541 -0.183636
C17   C     C_R   0.482431 0.105111 0.421404 -0.279072
C18   C     C_R   0.555092 0.894714 0.557973 -0.285185
C19   C     C_R   0.517661 0.105056 0.578684 -0.278670
C20   C     C_R   0.444752 0.894742 0.442265 -0.283030
C21   C     C_R   0.482392 0.204406 0.422937 -0.029100
C22   C     C_R   0.553635 0.795375 0.557221 0.007530
C23   C     C_R   0.517742 0.204355 0.577065 -0.026614
C24   C     C_R   0.446183 0.795398 0.442973 0.011628
C25   C     C_R   0.500005 0.053259 0.500071 0.145162
C26   C     C_R   0.499954 0.946553 0.500103 0.135672
C27   C     C_R   0.500136 0.499969 0.327039 1.037610
C28   C     C_R   0.500027 0.499884 0.672953 1.037578
C29   C     C_R   0.582328 0.509667 0.811418 0.418377
C30   C     C_R   0.417932 0.509167 0.188502 0.417102
C31   C     C_R   0.500944 0.499887 0.768256 -0.306240
C32   C     C_R   0.499351 0.500172 0.231724 -0.305974
C33   C     C_R   0.420121 0.494414 0.814528 0.384220
C34   C     C_R   0.580278 0.495747 0.185512 0.385537
C35   C     C_R   0.419553 0.509770 0.907064 -0.026230
C36   C     C_R   0.580773 0.510824 0.092895 -0.026968
C37   C     C_R   0.500833 0.514000 0.953071 -0.084615
C38   C     C_R   0.499469 0.514115 0.046859 -0.084509
C39   C     C_R   0.583179 0.517339 0.905337 -0.090816
C40   C     C_R   0.417090 0.516839 0.094561 -0.089793
C41   C     C_R   0.339433 0.524069 0.953498 -0.327398
C42   C     C_R   0.660832 0.525577 0.046349 -0.326081
H1    H     H_    0.279041 0.533673 0.916074 0.181570
H2    H     H_    0.721277 0.535720 0.083593 0.181925
H3    H     H_    0.469892 0.069606 0.358492 0.136577
H4    H     H_    0.600169 0.930287 0.602767 0.137864
H5    H     H_    0.530226 0.069509 0.641619 0.136198
H6    H     H_    0.399628 0.930340 0.397542 0.136744
H7    H     H_    0.468075 0.242870 0.362092 0.124316
H8    H     H_    0.596059 0.756327 0.602079 0.168494
H9    H     H_    0.532148 0.242787 0.637856 0.123967
H10   H     H_    0.403564 0.756373 0.398273 0.166872
N1    N     N_R   0.500000 0.252470 0.500000 -0.103569
N2    N     N_R   0.500000 0.747530 0.500000 -0.111936
O1    O     O_R   0.369060 0.579480 0.500010 -0.600048
O2    O     O_R   0.630940 0.420520 0.499990 -0.632175
O3    O     O_R   0.630940 0.579480 0.499990 -0.600935
O4    O     O_R   0.369060 0.420520 0.500010 -0.630159
O5    O     O_R   0.499980 0.579490 0.367850 -0.610846
O6    O     O_R   0.500020 0.420510 0.632150 -0.680275
O7    O     O_R   0.500020 0.579490 0.632150 -0.612063
O8    O     O_R   0.499980 0.420510 0.367850 -0.680639
Zn1   Zn    Zn3+2 0.500000 0.606140 0.500000 0.987028
Zn2   Zn    Zn3+2 0.500000 0.393860 0.500000 0.908263
O9    O     O_3   0.659954 0.515093 0.760583 -0.540370
C43   C     C_3   0.693914 0.422898 0.748211 -0.290942
H11   H     H_    0.759468 0.428305 0.713737 0.169812
H12   H     H_    0.649871 0.379822 0.705183 0.143007
H13   H     H_    0.704245 0.385872 0.813229 0.152503
O10   O     O_3   0.340276 0.514220 0.239316 -0.540665
C44   C     C_3   0.306404 0.421909 0.251877 -0.287204
H14   H     H_    0.240394 0.427220 0.285403 0.173199
H15   H     H_    0.349861 0.379380 0.295984 0.143875
H16   H     H_    0.297010 0.384403 0.186988 0.151137
O11   O     O_3   0.342253 0.481423 0.766731 -0.655669
C45   C     C_3   0.304997 0.390926 0.785070 0.061007
H17   H     H_    0.235448 0.392041 0.761185 0.180677
H18   H     H_    0.301283 0.374344 0.858060 0.121646
C46   C     C_3   0.354988 0.311614 0.735635 -0.307061
H19   H     H_    0.360392 0.328867 0.663226 0.291861
H20   H     H_    0.422919 0.304714 0.763067 0.189550
C47   C     C_3   0.307365 0.216855 0.745818 -0.945862
H21   H     H_    0.301561 0.197049 0.817863 0.253611
H22   H     H_    0.345682 0.161193 0.709824 0.265640
H23   H     H_    0.240081 0.220714 0.716466 0.283157
O12   O     O_3   0.658270 0.484210 0.233405 -0.654808
C48   C     C_3   0.696562 0.394200 0.215675 0.056185
H24   H     H_    0.766493 0.396981 0.238312 0.177649
H25   H     H_    0.699265 0.376519 0.142906 0.122746
C49   C     C_3   0.648522 0.314809 0.267147 -0.308537
H26   H     H_    0.643716 0.333333 0.339267 0.291274
H27   H     H_    0.580385 0.306017 0.240695 0.191101
C50   C     C_3   0.697578 0.220890 0.258048 -0.943333
H28   H     H_    0.702462 0.199697 0.186340 0.253634
H29   H     H_    0.660821 0.165202 0.295850 0.265199
H30   H     H_    0.765320 0.226805 0.286055 0.284019
O13   O     O_3   0.258970 0.550940 0.094080 -0.543292
C51   C     C_3   0.184759 0.500289 0.062509 -0.352911
H31   H     H_    0.200893 0.425266 0.046275 0.138480
H32   H     H_    0.155498 0.536646 0.003759 0.164494
H33   H     H_    0.133192 0.499665 0.116336 0.194759
O14   O     O_3   0.741305 0.551951 0.905721 -0.546736
C52   C     C_3   0.815121 0.500384 0.936821 -0.365688
H34   H     H_    0.798182 0.425640 0.953691 0.140794
H35   H     H_    0.845344 0.536567 0.995128 0.168614
H36   H     H_    0.866158 0.498751 0.882469 0.194825
O15   O     O_3   0.047712 0.653101 0.436008 -0.585879
C53   C     C_3   0.033537 0.634160 0.344189 0.096944
H37   H     H_    0.978065 0.582853 0.337505 0.107225
H38   H     H_    0.094270 0.605356 0.310178 0.158713
C54   C     C_3   0.007935 0.725831 0.296897 -0.310744
H39   H     H_    0.947888 0.756202 0.329888 0.214274
H40   H     H_    0.063042 0.777756 0.302540 0.228348
C55   C     C_3   0.988859 0.708631 0.197788 -0.961950
H41   H     H_    0.048610 0.679694 0.163032 0.279649
H42   H     H_    0.970538 0.776430 0.165241 0.269066
H43   H     H_    0.932870 0.658076 0.190665 0.258080
O16   O     O_3   0.954426 0.350514 0.429514 -0.605458
C56   C     C_3   0.976449 0.376587 0.340386 0.100374
H44   H     H_    0.037435 0.420953 0.340299 0.114901
H45   H     H_    0.921698 0.416062 0.307105 0.117761
C57   C     C_3   0.994942 0.287228 0.285784 -0.310488
H46   H     H_    0.046867 0.244677 0.319182 0.229131
H47   H     H_    0.933436 0.243972 0.282588 0.222437
C58   C     C_3   0.026370 0.311121 0.190625 -1.021013
H48   H     H_    0.976066 0.354829 0.155845 0.262355
H49   H     H_    0.036713 0.244814 0.152004 0.272891
H50   H     H_    0.090288 0.350196 0.192672 0.258062
O17   O     O_3   0.947631 0.649454 0.590638 -0.588159
C59   C     C_3   0.951124 0.631753 0.683794 0.092759
H51   H     H_    0.997175 0.572165 0.697054 0.104181
H52   H     H_    0.884043 0.614858 0.712286 0.182454
C60   C     C_3   0.986444 0.719638 0.730997 -0.313797
H53   H     H_    0.053045 0.737873 0.702967 0.217009
H54   H     H_    0.941014 0.780096 0.718844 0.224867
C61   C     C_3   0.993825 0.703357 0.832006 -0.960019
H55   H     H_    0.927603 0.686724 0.861726 0.286297
H56   H     H_    0.019758 0.768274 0.864422 0.268503
H57   H     H_    0.040050 0.644023 0.845725 0.254551
O18   O     O_3   0.050493 0.347689 0.588106 -0.605547
C62   C     C_3   0.023576 0.372304 0.676234 0.093382
H58   H     H_    0.959049 0.410216 0.673966 0.121351
H59   H     H_    0.073688 0.417298 0.710744 0.112328
C63   C     C_3   0.010881 0.282028 0.731345 -0.313046
H60   H     H_    0.964229 0.233903 0.696604 0.231462
H61   H     H_    0.075692 0.245304 0.737508 0.220290
C64   C     C_3   0.973972 0.303755 0.824982 -1.017736
H62   H     H_    0.019089 0.352492 0.861084 0.261061
H63   H     H_    0.967703 0.237112 0.864072 0.273293
H64   H     H_    0.907235 0.336551 0.820077 0.257800
O19   O     O_3   0.227371 0.663453 0.451471 -0.592543
C65   C     C_3   0.224803 0.729072 0.523642 0.176256
H65   H     H_    0.291531 0.731825 0.554445 0.160653
H66   H     H_    0.176155 0.711039 0.578464 0.119079
C66   C     C_3   0.201582 0.827257 0.488067 -0.331061
H67   H     H_    0.247647 0.846658 0.432177 0.218669
H68   H     H_    0.132894 0.826430 0.461745 0.249765
C67   C     C_3   0.207790 0.901406 0.562223 -0.984725
H69   H     H_    0.163050 0.882624 0.619410 0.265208
H70   H     H_    0.187440 0.971323 0.535959 0.279356
H71   H     H_    0.277104 0.906778 0.586354 0.274063
O20   O     O_3   0.775440 0.337210 0.445751 -0.616780
C68   C     C_3   0.757456 0.274879 0.518511 0.164353
H72   H     H_    0.695195 0.236478 0.502941 0.175938
H73   H     H_    0.745410 0.312065 0.583580 0.101981
C69   C     C_3   0.831388 0.201768 0.529351 -0.341143
H74   H     H_    0.841696 0.163097 0.465095 0.235570
H75   H     H_    0.894136 0.237749 0.547163 0.270438
C70   C     C_3   0.808100 0.131478 0.603932 -1.039839
H76   H     H_    0.798208 0.169128 0.668762 0.266972
H77   H     H_    0.863203 0.080128 0.611653 0.276553
H78   H     H_    0.746478 0.092213 0.587469 0.277479
O21   O     O_3   0.769083 0.661078 0.562504 -0.593716
C71   C     C_3   0.777330 0.728479 0.492071 0.173030
H79   H     H_    0.712467 0.734161 0.457859 0.160480
H80   H     H_    0.828030 0.710289 0.439339 0.120092
C72   C     C_3   0.801409 0.824922 0.531124 -0.329965
H81   H     H_    0.753391 0.844011 0.585358 0.218003
H82   H     H_    0.868739 0.821396 0.560524 0.252601
C73   C     C_3   0.800485 0.901410 0.458688 -0.988344
H83   H     H_    0.846687 0.882800 0.402749 0.264192
H84   H     H_    0.822175 0.969680 0.487560 0.279665
H85   H     H_    0.732398 0.910044 0.432068 0.274327
O22   O     O_3   0.227806 0.336146 0.559742 -0.616436
C74   C     C_3   0.239796 0.275827 0.484466 0.169491
H86   H     H_    0.306073 0.242394 0.490681 0.177424
H87   H     H_    0.240086 0.313685 0.418589 0.092649
C75   C     C_3   0.170062 0.197131 0.484049 -0.335985
H88   H     H_    0.169276 0.160255 0.550028 0.233611
H89   H     H_    0.103463 0.227893 0.472697 0.271233
C76   C     C_3   0.189884 0.125685 0.409605 -1.040103
H90   H     H_    0.192989 0.161581 0.343233 0.266070
H91   H     H_    0.136454 0.071578 0.408044 0.277566
H92   H     H_    0.254238 0.089820 0.421774 0.277591

loop_
_geom_bond_atom_site_label_1
_geom_bond_atom_site_label_2
_ccdc_geom_bond_type
C24   H10   S    
C43   H12   S    
C48   H24   S    
C50   H28   S    
C66   H68   S    
C41   H1    S    
C70   H76   S    
C36   C42   A    
C54   H39   S    
C18   C26   A    
C45   C46   S    
C64   H62   S    
C21   H7    S    
C55   H41   S    
C74   H86   S    
C2    O3    A    
C22   N2    A    
O21   C71   S    
O22   C74   S    
C7    C11   A    
C4    C42   A    
C75   C76   S    
C68   H73   S    
C17   H3    S    
O20   C68   S    
C61   H57   S    
C11   C14   A    
C19   H5    S    
C74   H87   S    
C43   H13   S    
N2    Zn1   S    
C24   N2    A    
C15   C16   S    
O13   C51   S    
C53   H37   S    
C75   H89   S    
C34   O12   S    
O7    Zn1   S    
C9    C13   A    
O16   C56   S    
O8    Zn2   S    
C67   H71   S    
C71   H79   S    
C49   H27   S    
C67   H70   S    
C3    C41   A    
C54   H40   S    
C20   C24   A    
C72   H82   S    
O1    Zn1   S    
C60   C61   S    
O19   C65   S    
O2    Zn2   S    
O3    Zn1   S    
O10   C44   S    
C30   C32   A    
C73   H85   S    
C22   H8    S    
C28   O7    A    
C28   O6    A    
C43   H11   S    
C50   H29   S    
C66   C67   S    
C69   H75   S    
C70   H77   S    
C29   C39   A    
C69   H74   S    
C42   H2    S    
C63   C64   S    
C19   C25   A    
C18   H4    S    
C30   O10   S    
C73   H84   S    
C23   N1    A    
C56   H45   S    
O4    Zn2   S    
C37   C39   A    
C11   O21   S    
C5    C15   A    
C76   H90   S    
C55   H43   S    
C68   C69   S    
O18   C62   S    
C63   H61   S    
C10   C14   A    
C62   C63   S    
C44   H15   S    
O12   C48   S    
C63   H60   S    
C74   C75   S    
C25   C26   S    
N1    Zn2   S    
C47   H21   S    
C17   C21   A    
C4    O14   S    
C75   H88   S    
C32   C34   A    
C67   H69   S    
C19   C23   A    
O11   C45   S    
C76   H91   S    
C5    C9    A    
C37   C38   A    
C27   O8    A    
C21   N1    A    
C60   H53   S    
C3    O13   S    
C23   H9    S    
C65   C66   S    
C8    C12   A    
C72   C73   S    
C64   H64   S    
C31   C33   A    
C30   C40   A    
C52   H35   S    
C45   H17   S    
C71   C72   S    
C44   H16   S    
C20   H6    S    
C35   C41   A    
C29   O9    S    
C61   H56   S    
C7    C16   A    
C65   H66   S    
C3    C40   A    
C72   H81   S    
C50   H30   S    
C47   H22   S    
C48   H25   S    
C58   H48   S    
C70   H78   S    
C59   C60   S    
C1    C13   S    
O15   C53   S    
C57   H47   S    
C52   H36   S    
C47   H23   S    
C52   H34   S    
C73   H83   S    
C49   C50   S    
C46   H20   S    
O17   C59   S    
C5    O15   S    
C56   C57   S    
C9    O19   S    
C35   C37   A    
C27   C32   S    
C18   C22   A    
C28   C31   S    
C45   H18   S    
C61   H55   S    
C6    C10   A    
C46   C47   S    
C55   H42   S    
C56   H44   S    
C8    C15   A    
C51   H33   S    
C64   H63   S    
C4    C39   A    
O5    Zn1   S    
C53   C54   S    
C8    O18   S    
O6    Zn2   S    
C59   H52   S    
C17   C25   A    
C57   C58   S    
C62   H59   S    
C59   H51   S    
C1    O1    A    
C76   H92   S    
C44   H14   S    
C29   C31   A    
C27   O5    A    
C1    O4    A    
C38   C40   A    
C49   H26   S    
C12   O22   S    
C20   C26   A    
C58   H50   S    
C36   C38   A    
C33   C35   A    
C53   H38   S    
C54   C55   S    
C34   C36   A    
O9    C43   S    
O14   C52   S    
C2    C14   S    
C51   H32   S    
C71   H80   S    
C7    O17   S    
C68   H72   S    
C6    C16   A    
C46   H19   S    
C12   C13   A    
C69   C70   S    
C10   O20   S    
C51   H31   S    
C48   C49   S    
C66   H67   S    
C58   H49   S    
C60   H54   S    
C33   O11   S    
C2    O2    A    
C65   H65   S    
C57   H46   S    
C62   H58   S    
C6    O16   S    
