data_mof_unit_55981.cif
_audit_creation_date              2012-12-11T18:11:22-0500
_audit_creation_method            fapswitch 2.2
_symmetry_space_group_name_H-M    P1
_symmetry_Int_Tables_number       1
_space_group_crystal_system       triclinic
_cell_length_a                    8.163647
_cell_length_b                    12.6548
_cell_length_c                    18.815487
_cell_angle_alpha                 99.80688
_cell_angle_beta                  91.145107
_cell_angle_gamma                 98.497396
_cell_volume                      1892.35049481

loop_
_atom_site_label
_atom_site_type_symbol
_atom_type_description
_atom_site_fract_x
_atom_site_fract_y
_atom_site_fract_z
_atom_type_partial_charge
Ba1   Ba    Ba6+2 0.852780 0.548340 0.465070 1.659137
Ba2   Ba    Ba6+2 0.337060 0.451750 0.534940 1.639120
C1    C     C_3   0.585614 0.900936 0.254546 -0.400771
C2    C     C_R   0.899745 0.386561 0.089769 -0.095378
C3    C     C_R   0.759561 0.422361 0.953816 -0.105259
C4    C     C_3   0.128405 0.763005 0.266330 0.361745
C5    C     C_R   0.926700 0.460842 0.976853 0.030885
C6    C     C_R   0.703195 0.420463 0.883524 -0.091725
C7    C     C_R   0.809818 0.458916 0.833121 -0.036871
C8    C     C_R   0.973373 0.508900 0.856440 -0.003630
C9    C     C_R   0.031880 0.510694 0.928969 0.029002
C10   C     C_R   0.757242 0.449389 0.760135 -0.008166
C11   C     C_R   0.867220 0.487283 0.710954 -0.301076
C12   C     C_3   0.634246 0.819164 0.298489 0.330044
C13   C     C_R   0.023981 0.544851 0.733321 0.042426
C14   C     C_R   0.077647 0.557422 0.807430 -0.036689
C15   C     C_R   0.151887 0.502361 0.071004 0.022173
C16   C     C_3   0.109859 0.789322 0.190945 -0.358970
C17   C     C_R   0.210764 0.497764 0.142789 -0.042618
C18   C     C_R   0.108296 0.440983 0.189634 -0.072306
C19   C     C_R   0.957908 0.377141 0.158079 0.402624
C20   C     C_R   0.231374 0.616877 0.834476 -0.024291
C21   C     C_R   0.289598 0.617809 0.904891 -0.094381
C22   C     C_R   0.194983 0.561304 0.952828 0.011328
C23   C     C_3   0.455031 0.271910 0.314580 0.320663
C24   C     C_R   0.256015 0.556020 0.023949 0.031684
C25   C     C_R   0.420479 0.598782 0.048825 -0.104202
C26   C     C_R   0.374155 0.547927 0.166760 -0.019252
C27   C     C_R   0.477648 0.594635 0.118178 -0.091444
C28   C     C_3   0.235120 0.787169 0.619786 0.279653
C29   C     C_R   0.429995 0.549994 0.238580 0.001214
C30   C     C_R   0.322106 0.506708 0.286436 -0.313744
C31   C     C_R   0.164037 0.450802 0.264120 0.059754
C32   C     C_R   0.764723 0.182787 0.529326 -0.277793
C33   C     C_R   0.427916 0.807135 0.470138 -0.286210
C34   C     C_3   0.396716 0.226683 0.236540 -0.348084
C35   C     C_R   0.402059 0.984165 0.444922 -0.105353
C36   C     C_R   0.337277 0.875717 0.440985 -0.010426
C37   C     C_R   0.577498 0.848086 0.509455 0.068246
C38   C     C_R   0.642292 0.960348 0.517178 -0.058882
C39   C     C_R   0.553902 0.028312 0.482977 -0.062203
C40   C     C_3   0.251282 0.909969 0.635862 -0.350279
C41   C     C_R   0.617705 0.139400 0.489176 0.043073
C42   C     C_R   0.856540 0.116613 0.560061 -0.012120
C43   C     C_R   0.793354 0.006801 0.556492 -0.093622
C44   C     C_3   0.960838 0.213867 0.383518 0.309662
C45   C     C_3   0.061840 0.240549 0.734645 0.362684
C46   C     C_3   0.948590 0.091175 0.368071 -0.331932
C47   C     C_3   0.727923 0.708082 0.682388 0.311875
C48   C     C_3   0.743157 0.745750 0.763815 -0.397144
C49   C     C_3   0.081613 0.218078 0.810981 -0.360621
C50   C     C_3   0.557599 0.180365 0.701945 0.345919
C51   C     C_3   0.610922 0.101135 0.746864 -0.413188
C52   C     C_R   0.989805 0.452204 0.046437 -0.043389
Cl1   Cl    Cl    0.842172 0.269587 0.192009 -0.714320
H1    H     H_    0.726661 0.861437 0.342032 0.079933
H2    H     H_    0.847117 0.685308 0.663453 0.011054
H3    H     H_    0.628610 0.636726 0.670004 0.066874
H4    H     H_    0.534685 0.966361 0.290255 0.105608
H5    H     H_    0.845612 0.815036 0.777884 0.127742
H6    H     H_    0.769403 0.679025 0.791413 0.058563
H7    H     H_    0.625378 0.771718 0.783360 0.119669
H8    H     H_    0.521468 0.785906 0.324245 -0.049429
H9    H     H_    0.489968 0.859865 0.212086 0.113383
H10   H     H_    0.351508 0.306311 0.342658 0.001696
H11   H     H_    0.562438 0.337197 0.315497 0.081353
H12   H     H_    0.340905 0.942324 0.682077 0.114010
H13   H     H_    0.279798 0.168726 0.234843 0.131384
H14   H     H_    0.374300 0.293463 0.208085 0.064686
H15   H     H_    0.492065 0.183656 0.208099 0.179274
H16   H     H_    0.695183 0.937037 0.228036 0.149994
H17   H     H_    0.149422 0.724586 0.150523 0.071168
H18   H     H_    0.141795 0.318213 0.731055 0.094105
H19   H     H_    0.930534 0.248701 0.724414 -0.074326
H20   H     H_    0.213701 0.215144 0.824374 0.152665
H21   H     H_    0.039109 0.283257 0.850110 0.072624
H22   H     H_    0.006577 0.139181 0.815798 0.113101
H23   H     H_    0.295822 0.944771 0.588417 0.081935
H24   H     H_    0.668464 0.214277 0.675210 -0.051764
H25   H     H_    0.465316 0.135792 0.659043 0.080366
H26   H     H_    0.706478 0.144523 0.788688 0.116267
H27   H     H_    0.663299 0.035813 0.711684 0.093390
H28   H     H_    0.045853 0.685775 0.268669 0.088031
H29   H     H_    0.503323 0.064574 0.774321 0.132331
H30   H     H_    0.826643 0.477085 0.654780 0.071532
H31   H     H_    0.574479 0.387958 0.869536 0.111173
H32   H     H_    0.310527 0.662491 0.801421 0.096523
H33   H     H_    0.605468 0.628615 0.132742 0.111146
H34   H     H_    0.129082 0.934445 0.649549 0.142126
H35   H     H_    0.364795 0.513220 0.342057 0.066011
H36   H     H_    0.667543 0.394539 0.989562 0.075480
H37   H     H_    0.786214 0.334296 0.069270 0.110159
H38   H     H_    0.409834 0.664925 0.920225 0.060843
H39   H     H_    0.258932 0.752437 0.275918 -0.074903
H40   H     H_    0.510465 0.634889 0.015468 0.071922
H41   H     H_    0.328942 0.033141 0.419769 0.101477
H42   H     H_    0.865685 0.959253 0.583258 0.103452
H43   H     H_    0.813477 0.267910 0.532793 0.061672
H44   H     H_    0.376568 0.722333 0.466004 0.070476
H45   H     H_    0.839243 0.236413 0.397813 -0.004051
H46   H     H_    0.978527 0.795271 0.178232 0.152981
H47   H     H_    0.187996 0.867754 0.187481 0.117083
H48   H     H_    0.356242 0.763617 0.605073 0.006995
H49   H     H_    0.142883 0.756886 0.574077 0.076089
H50   H     H_    0.052414 0.246065 0.429138 0.064644
H51   H     H_    0.857704 0.056987 0.322538 0.130258
H52   H     H_    0.907937 0.056260 0.415914 0.075252
H53   H     H_    0.071451 0.068448 0.353561 0.136576
O1    O     O_2   0.873090 0.425890 0.325140 -0.422122
O2    O     O_2   0.197855 0.121220 0.552457 -0.483278
O3    O     O_3   0.109059 0.154881 0.685535 -0.598624
O4    O     O_3   0.122420 0.434370 0.414380 -0.511519
O5    O     O_3   0.578370 0.633800 0.536380 -0.491371
O6    O     O_2   0.341510 0.231850 0.465510 -0.469229
O7    O     O_3   0.502256 0.187881 0.346428 -0.644369
O8    O     O_2   0.415293 0.455315 0.756196 -0.497169
O9    O     O_3   0.483360 0.258829 0.746990 -0.595802
O10   O     O_3   0.659500 0.627100 0.368810 -0.476628
O11   O     O_2   0.772572 0.543607 0.243307 -0.483470
O12   O     O_3   0.690160 0.793710 0.650111 -0.643085
O13   O     O_3   0.007947 0.252727 0.320792 -0.574452
O14   O     O_3   0.706236 0.740194 0.252863 -0.601411
O15   O     O_2   0.848200 0.768190 0.534530 -0.473336
O16   O     O_3   0.081160 0.685950 0.404810 -0.493003
O17   O     O_2   0.999356 0.879457 0.450870 -0.484898
O18   O     O_3   0.084176 0.848020 0.316913 -0.598849
O19   O     O_2   0.316610 0.574140 0.674900 -0.468413
O20   O     O_3   0.067290 0.565720 0.585630 -0.499237
O21   O     O_3   0.530210 0.372990 0.631200 -0.468473
O22   O     O_3   0.186353 0.747210 0.682112 -0.638980
O23   O     O_3   0.611340 0.366290 0.463630 -0.481249
O24   O     O_3   0.108550 0.314140 0.595200 -0.485920
P1    P     P_3+3 0.041040 0.394770 0.336330 1.047968
P2    P     P_3+3 0.672880 0.754030 0.556100 0.967996
P3    P     P_3+3 0.126043 0.824023 0.403867 0.947669
P4    P     P_3+3 0.148670 0.605320 0.663680 0.970144
P5    P     P_3+3 0.067009 0.175271 0.597696 0.950402
P6    P     P_3+3 0.641313 0.612294 0.275110 0.956080
P7    P     P_3+3 0.522493 0.229793 0.440139 0.937032
P8    P     P_3+3 0.546640 0.386755 0.724588 0.950423

loop_
_geom_bond_atom_site_label_1
_geom_bond_atom_site_label_2
_ccdc_geom_bond_type
C12   H1    S    
C42   P5    S    
C12   O14   S    
C25   C27   A    
C1    H4    S    
C25   H40   S    
C17   C18   A    
Ba1   O20   S    
O4    P1    S    
C46   H51   S    
Ba1   O15   S    
C1    H9    S    
C34   H14   S    
C5    C9    A    
C10   C11   A    
Ba2   O4    S    
C24   C25   A    
C51   H29   S    
C15   C24   A    
C26   C27   A    
C49   H20   S    
O10   P6    S    
O20   P4    S    
Ba1   O4    S    
C33   C37   A    
Ba2   O5    S    
C33   H44   S    
C47   O12   S    
C4    O18   S    
C13   C14   A    
C44   H50   S    
C9    C22   A    
Ba2   O21   S    
C47   H2    S    
C51   H26   S    
Ba1   Ba2   S    
C16   H47   S    
C27   H33   S    
Ba1   O1    S    
C30   H35   S    
C6    C7    A    
C4    H39   S    
C28   H48   S    
Ba2   O24   S    
C21   C22   A    
C10   P8    S    
C44   O13   S    
C41   P7    S    
C50   H24   S    
C7    C8    A    
C6    H31   S    
C2    H37   S    
Ba2   O19   S    
O17   P3    D    
C39   C41   A    
O6    P7    D    
Ba1   O5    S    
Ba1   P1    S    
C34   H15   S    
C26   C29   A    
C16   H17   S    
C38   C43   A    
C4    C16   S    
C44   C46   S    
C23   H11   S    
O15   P2    D    
O1    P1    D    
C33   C36   A    
C32   C42   A    
O19   P4    D    
C45   H18   S    
C37   C38   A    
C3    C5    A    
C15   C17   A    
C45   C49   S    
C13   P4    S    
O24   P5    S    
C28   O22   S    
Ba2   P4    S    
C47   H3    S    
C21   H38   S    
C35   H41   S    
C51   H27   S    
C16   H46   S    
C1    H16   S    
C49   H22   S    
C35   C36   A    
C29   C30   A    
Ba2   O23   S    
C23   H10   S    
C36   P3    S    
C49   H21   S    
C29   P6    S    
C17   C26   A    
O14   P6    S    
C3    H36   S    
C1    C12   S    
C18   C31   A    
C38   C39   A    
O7    P7    S    
O18   P3    S    
C40   H23   S    
O5    P2    S    
C11   C13   A    
C40   H12   S    
C48   H7    S    
O9    P8    S    
C11   H30   S    
Ba1   P2    S    
C42   C43   A    
O3    P5    S    
C19   Cl1   S    
C44   H45   S    
C14   C20   A    
C4    H28   S    
O16   P3    S    
C2    C52   A    
O11   P6    D    
O2    P5    D    
O22   P4    S    
C32   C41   A    
C45   H19   S    
C22   C24   A    
Ba1   O23   S    
C20   H32   S    
C3    C6    A    
C34   H13   S    
C40   H34   S    
C48   H5    S    
C30   C31   A    
C23   O7    S    
Ba1   O16   S    
C8    C14   A    
C50   O9    S    
C2    C19   A    
Ba2   O6    S    
C46   H53   S    
O21   P8    S    
C45   O3    S    
C12   H8    S    
C32   H43   S    
O12   P2    S    
Ba1   O10   S    
C35   C39   A    
C7    C10   A    
O23   P7    S    
C8    C9    A    
C23   C34   S    
C46   H52   S    
C31   P1    S    
C18   C19   A    
C47   C48   S    
C28   H49   S    
C48   H6    S    
C20   C21   A    
C28   C40   S    
C43   H42   S    
C5    C52   A    
O13   P1    S    
C50   H25   S    
C15   C52   A    
C50   C51   S    
O8    P8    D    
C37   P2    S    
Ba2   O20   S    
