data_mof_unit_45496.cif
_audit_creation_date              2012-12-10T17:35:41-0500
_audit_creation_method            fapswitch 2.2
_symmetry_space_group_name_H-M    P1
_symmetry_Int_Tables_number       1
_space_group_crystal_system       triclinic
_cell_length_a                    10.492948
_cell_length_b                    11.998244
_cell_length_c                    12.898714
_cell_angle_alpha                 92.733045
_cell_angle_beta                  90.022278
_cell_angle_gamma                 85.871818
_cell_volume                      1617.84562839

loop_
_atom_site_label
_atom_site_type_symbol
_atom_type_description
_atom_site_fract_x
_atom_site_fract_y
_atom_site_fract_z
_atom_type_partial_charge
C1    C     C_R   0.501446 0.521685 0.700401 0.909514
C2    C     C_R   0.634984 0.157695 0.554349 -0.081224
C3    C     C_R   0.572865 0.855066 0.514482 -0.062858
C4    C     C_R   0.427914 0.144745 0.483746 -0.058191
C5    C     C_R   0.557894 0.973516 0.517303 -0.108288
C6    C     C_R   0.442768 0.026316 0.481369 -0.108528
C7    C     C_R   0.742768 0.499793 0.500141 0.865674
C8    C     C_R   0.257221 0.500215 0.499947 0.870165
C9    C     C_3   0.968334 0.394180 0.508575 -0.130451
C10   C     C_3   0.031613 0.605826 0.491631 -0.131217
C11   C     C_3   0.045698 0.459868 0.589416 -0.175498
C12   C     C_R   0.502220 0.478552 0.299576 0.913013
C13   C     C_3   0.954256 0.540133 0.410790 -0.174897
C14   C     C_3   0.122186 0.500918 0.499964 0.022743
C15   C     C_3   0.877776 0.499087 0.500232 0.023521
C16   C     C_3   0.047519 0.435386 0.419112 -0.181227
C17   C     C_3   0.952423 0.564617 0.581092 -0.183680
C18   C     C_R   0.510367 0.466645 0.188492 -0.148295
C19   C     C_R   0.508746 0.535189 0.811508 -0.133140
C20   C     C_R   0.493660 0.654102 0.969168 0.509266
C21   C     C_R   0.551271 0.352161 0.031974 0.516086
C22   C     C_R   0.496409 0.641838 0.860606 -0.338977
C23   C     C_R   0.530042 0.439932 0.868115 -0.252045
C24   C     C_R   0.535082 0.361410 0.139050 -0.316521
C25   C     C_3   0.419044 0.845503 0.973909 0.074450
C26   C     C_3   0.511460 0.922517 0.926452 -0.356728
C27   C     C_3   0.440570 0.012230 0.863977 -0.907739
C28   C     C_3   0.707335 0.208014 0.009815 0.059946
C29   C     C_3   0.810437 0.273115 0.959819 -0.366901
C30   C     C_3   0.944314 0.221388 0.981734 -0.951934
C31   C     C_3   0.237768 0.030473 0.303898 0.091972
C32   C     C_3   0.190176 0.934808 0.235727 -0.872285
C33   C     C_3   0.767487 0.954739 0.685333 0.081156
C34   C     C_R   0.499133 0.563207 0.132252 -0.238212
C35   C     C_3   0.808153 0.043574 0.764024 -0.876652
C36   C     C_R   0.530134 0.448847 0.974873 0.000302
C37   C     C_R   0.508036 0.556008 0.025440 0.017946
C38   C     C_R   0.346583 0.959252 0.442651 0.439393
C39   C     C_R   0.654482 0.040541 0.555471 0.442512
C40   C     C_R   0.365183 0.842180 0.445393 -0.076840
H1    H     H_    0.087820 0.427325 0.661955 0.138897
H2    H     H_    0.488894 0.714189 0.813661 0.168969
H3    H     H_    0.341421 0.186945 0.454917 0.170159
H4    H     H_    0.659939 0.812471 0.541639 0.165737
H5    H     H_    0.710735 0.208798 0.580171 0.155376
H6    H     H_    0.289359 0.791018 0.419909 0.155927
H7    H     H_    0.361932 0.895669 0.034317 0.162660
H8    H     H_    0.347753 0.816190 0.916653 0.125618
H9    H     H_    0.565609 0.963663 0.989772 0.230116
H10   H     H_    0.581639 0.873130 0.875164 0.208638
H11   H     H_    0.389155 0.972903 0.798079 0.253819
H12   H     H_    0.912077 0.572641 0.338259 0.140156
H13   H     H_    0.509989 0.067528 0.832348 0.281269
H14   H     H_    0.371119 0.063993 0.914247 0.274278
H15   H     H_    0.719964 0.119246 0.981392 0.169811
H16   H     H_    0.720956 0.207456 0.095350 0.134448
H17   H     H_    0.795398 0.273841 0.874632 0.227512
H18   H     H_    0.803589 0.361173 0.991309 0.215215
H19   H     H_    0.962314 0.223184 0.066659 0.261817
H20   H     H_    0.016324 0.269882 0.944300 0.267228
H21   H     H_    0.955554 0.133520 0.950170 0.264692
H22   H     H_    0.335136 0.049565 0.278130 0.123169
H23   H     H_    0.938516 0.307895 0.515525 0.155215
H24   H     H_    0.174092 0.106677 0.291530 0.165954
H25   H     H_    0.095467 0.912830 0.263612 0.272086
H26   H     H_    0.180438 0.960716 0.154451 0.208453
H27   H     H_    0.258956 0.860145 0.237198 0.243191
H28   H     H_    0.835845 0.879983 0.689518 0.167022
H29   H     H_    0.672050 0.927744 0.707480 0.123211
H30   H     H_    0.735743 0.115775 0.767657 0.245897
H31   H     H_    0.816339 0.007568 0.841585 0.210667
H32   H     H_    0.902220 0.072435 0.741989 0.274204
H33   H     H_    0.061406 0.692122 0.484694 0.154253
H34   H     H_    0.091154 0.382906 0.353368 0.130569
H35   H     H_    0.908720 0.617091 0.646813 0.127669
H36   H     H_    0.480707 0.644411 0.171931 0.217623
H37   H     H_    0.544357 0.358094 0.828810 0.211670
H38   H     H_    0.543783 0.286787 0.183344 0.168582
N1    N     N_R   0.523490 0.207800 0.519350 -0.131245
N2    N     N_R   0.476510 0.792200 0.480650 -0.130544
O1    O     O_R   0.506270 0.421700 0.658830 -0.623245
O2    O     O_3   0.582417 0.248876 0.981900 -0.667248
O3    O     O_3   0.230275 0.006807 0.410130 -0.622054
O4    O     O_3   0.772974 0.993453 0.583625 -0.617698
O5    O     O_R   0.493730 0.578300 0.341170 -0.622681
O6    O     O_R   0.491200 0.609310 0.646410 -0.624058
O7    O     O_R   0.508800 0.390690 0.353590 -0.622961
O8    O     O_R   0.693580 0.406210 0.506230 -0.636921
O9    O     O_R   0.306420 0.593790 0.493770 -0.635664
O10   O     O_R   0.678510 0.593830 0.493810 -0.626147
O11   O     O_R   0.321490 0.406170 0.506190 -0.624361
O12   O     O_3   0.488566 0.757908 0.023881 -0.665841
Zn1   Zn    Zn3+2 0.510060 0.374730 0.508290 0.936697
Zn2   Zn    Zn3+2 0.489940 0.625270 0.491710 0.936864

loop_
_geom_bond_atom_site_label_1
_geom_bond_atom_site_label_2
_ccdc_geom_bond_type
C38   O3    S    
C34   C37   A    
C28   H16   S    
C27   H14   S    
C21   C36   A    
C40   H6    S    
C20   O12   S    
C26   C27   S    
C12   O5    A    
C16   H34   S    
C36   C37   A    
C9    C16   S    
C39   O4    S    
N1    Zn1   S    
C26   H10   S    
C5    C6    A    
C11   C14   S    
C10   C17   S    
C1    O1    A    
C31   O3    S    
O9    Zn2   S    
C2    N1    A    
O6    Zn2   S    
C33   C35   S    
C2    C39   A    
C11   C17   S    
C7    O8    A    
C35   H30   S    
C30   H20   S    
C40   N2    A    
C18   C24   A    
C25   H7    S    
C33   H29   S    
C7    C15   S    
C35   H31   S    
C31   H22   S    
C3    N2    A    
C28   H15   S    
C27   H11   S    
O10   Zn2   S    
C18   C34   A    
C2    H5    S    
C3    H4    S    
C1    C19   S    
C28   O2    S    
C19   C22   A    
C4    N1    A    
C4    C6    A    
C10   C14   S    
C26   H9    S    
C25   C26   S    
C7    O10   A    
C19   C23   A    
C29   C30   S    
O11   Zn1   S    
C13   H12   S    
O1    Zn1   S    
O5    Zn2   S    
C31   C32   S    
C30   H19   S    
C6    C38   A    
C8    O11   A    
C23   H37   S    
C9    C11   S    
C25   H8    S    
C32   H27   S    
C24   H38   S    
C20   C22   A    
C35   H32   S    
C13   C15   S    
C14   C16   S    
C30   H21   S    
C21   C24   A    
N2    Zn2   S    
C29   H18   S    
C32   H26   S    
C1    O6    A    
C15   C17   S    
O8    Zn1   S    
C28   C29   S    
C25   O12   S    
C8    C14   S    
C12   O7    A    
C9    H23   S    
C31   H24   S    
C29   H17   S    
C3    C5    A    
C10   C13   S    
C27   H13   S    
C4    H3    S    
C5    C39   A    
C9    C15   S    
C38   C40   A    
C20   C37   A    
C22   H2    S    
O7    Zn1   S    
C10   H33   S    
C11   H1    S    
C33   O4    S    
C21   O2    S    
C23   C36   A    
C13   C16   S    
C12   C18   S    
C17   H35   S    
C8    O9    A    
C33   H28   S    
C34   H36   S    
C32   H25   S    
