data_mof_unit_35069.cif
_audit_creation_date              2012-12-10T19:04:15-0500
_audit_creation_method            fapswitch 2.2
_symmetry_space_group_name_H-M    P1
_symmetry_Int_Tables_number       1
_space_group_crystal_system       triclinic
_cell_length_a                    10.655423
_cell_length_b                    10.854769
_cell_length_c                    9.61106
_cell_angle_alpha                 90.569006
_cell_angle_beta                  88.943405
_cell_angle_gamma                 91.034753
_cell_volume                      1111.21443243

loop_
_atom_site_label
_atom_site_type_symbol
_atom_type_description
_atom_site_fract_x
_atom_site_fract_y
_atom_site_fract_z
_atom_type_partial_charge
C1    C     C_R   0.495478 0.262368 0.499116 0.835981
C2    C     C_3   0.964010 0.494336 0.368188 -0.190225
C3    C     C_3   0.042617 0.394724 0.440090 -0.220069
C4    C     C_3   0.123563 0.498124 0.505531 -0.010309
C5    C     C_R   0.477525 0.064931 0.623007 0.046756
C6    C     C_R   0.478899 0.128783 0.497445 -0.102478
C7    C     C_R   0.457796 0.060301 0.373223 0.139345
C8    C     C_R   0.455023 0.931362 0.377474 -0.269662
C9    C     C_R   0.477818 0.869707 0.501883 -0.106558
C10   C     C_R   0.477029 0.938171 0.625376 0.084901
C11   C     C_3   0.558331 0.934712 0.750062 -0.520500
C12   C     C_R   0.259844 0.499256 0.501500 0.810810
C13   C     C_3   0.558668 0.075057 0.748387 -0.016433
C14   C     C_R   0.606451 0.532842 0.070185 0.109457
C15   C     C_R   0.400428 0.452405 0.074236 0.254770
C16   C     C_R   0.400911 0.454374 0.925854 -0.111421
C17   C     C_R   0.605666 0.530470 0.923244 0.160726
C18   C     C_3   0.679339 0.644759 0.903452 -0.490768
C19   C     C_3   0.680592 0.654491 0.061221 0.367347
C20   C     C_R   0.495410 0.737310 0.500776 0.809088
C21   C     C_R   0.740531 0.499700 0.499160 0.820231
C22   C     C_3   0.038067 0.503539 0.636792 -0.232816
C23   C     C_3   0.955820 0.402797 0.569010 0.199375
C24   C     C_3   0.877562 0.499690 0.498648 -0.019706
C25   C     C_3   0.958807 0.603063 0.565294 -0.216423
C26   C     C_3   0.045792 0.595333 0.436309 0.223328
Cu1   Cu    Cu3+1 0.499990 0.499980 0.640670 0.946160
Cu2   Cu    Cu3+1 0.500010 0.500020 0.359330 0.964777
H1    H     H_    0.651306 0.893714 0.726311 0.188786
H2    H     H_    0.510539 0.118245 0.839739 0.160232
H3    H     H_    0.320646 0.418812 0.870008 0.134213
H4    H     H_    0.771746 0.626369 0.852458 0.175213
H5    H     H_    0.624057 0.715905 0.852793 0.207430
H6    H     H_    0.069612 0.504600 0.746267 0.139885
H7    H     H_    0.922923 0.689174 0.613565 0.129711
H8    H     H_    0.935862 0.486638 0.258744 0.148892
H9    H     H_    0.078660 0.308660 0.391863 0.139434
H10   H     H_    0.440937 0.880571 0.281649 0.165829
H11   H     H_    0.507062 0.896588 0.842204 0.190821
N1    N     N_R   0.500800 0.500930 0.147930 -0.199538
N2    N     N_R   0.500800 0.500890 0.852020 -0.185638
O1    O     O_R   0.500000 0.319640 0.618810 -0.567636
O2    O     O_R   0.500010 0.319680 0.381230 -0.557060
O3    O     O_R   0.316850 0.499950 0.618770 -0.604420
O4    O     O_R   0.316860 0.499990 0.381190 -0.549327
O5    O     O_R   0.499990 0.680320 0.618770 -0.579347
O6    O     O_R   0.500000 0.680360 0.381190 -0.598736
O7    O     O_R   0.683140 0.500010 0.618810 -0.579858
O8    O     O_R   0.683150 0.500050 0.381230 -0.575791
N3    N     N_3   0.903718 0.296385 0.642054 -0.592823
H12   H     H_    0.979154 0.245441 0.676628 0.201928
H13   H     H_    0.856852 0.329389 0.730949 0.231864
N4    N     N_3   0.682545 0.129763 0.717749 -0.549998
H14   H     H_    0.724247 0.085375 0.631930 0.237433
H15   H     H_    0.739182 0.114454 0.803332 0.218525
N5    N     N_3   0.293799 0.399264 0.145678 -0.549132
H16   H     H_    0.322145 0.317212 0.189695 0.245470
H17   H     H_    0.222482 0.375979 0.076376 0.162313
N6    N     N_2   0.807732 0.647395 0.112947 -0.405156
H18   H     H_    0.852574 0.569397 0.077502 0.223602
C27   C     C_3   0.885547 0.757136 0.093291 -0.691636
H19   H     H_    0.985375 0.735030 0.108970 0.204167
H20   H     H_    0.857810 0.829695 0.169405 0.237839
H21   H     H_    0.877722 0.792945 0.985955 0.228937
N7    N     N_3   0.614063 0.763463 0.112299 -0.582904
H22   H     H_    0.517071 0.748962 0.105391 0.204789
H23   H     H_    0.636678 0.779405 0.216105 0.254882
N8    N     N_3   0.101287 0.702641 0.367668 -0.601683
H24   H     H_    0.028699 0.762778 0.347169 0.216658
H25   H     H_    0.139429 0.673178 0.272367 0.225102
N9    N     N_3   0.445323 0.119261 0.241719 -0.589095
H26   H     H_    0.359856 0.090376 0.199429 0.197761
H27   H     H_    0.517270 0.088722 0.175144 0.222377

loop_
_geom_bond_atom_site_label_1
_geom_bond_atom_site_label_2
_ccdc_geom_bond_type
Cu1   O7    S    
Cu2   O6    S    
C3    C23   S    
C21   O8    A    
C7    C8    A    
N4    H14   S    
C16   H3    S    
C7    N9    S    
C5    C6    A    
Cu2   N1    S    
C15   C16   A    
N5    H16   S    
C18   C19   S    
C27   H20   S    
Cu1   O3    S    
C1    O2    A    
C8    C9    A    
N7    H23   S    
C22   C25   S    
N3    H13   S    
C23   C24   S    
C4    C12   S    
C9    C10   A    
C5    C13   S    
C21   O7    A    
N6    H18   S    
C14   C17   A    
C8    H10   S    
C17   C18   S    
C13   N4    S    
N4    H15   S    
C22   H6    S    
Cu2   O4    S    
N6    C27   S    
C1    C6    S    
C13   H2    S    
C24   C25   S    
N9    H27   S    
N8    H24   S    
C23   N3    S    
C19   N6    S    
C25   C26   S    
C27   H21   S    
C4    C22   S    
Cu2   O8    S    
Cu1   N2    S    
C9    C20   S    
N3    H12   S    
C2    C26   S    
C11   H11   S    
C11   H1    S    
C25   H7    S    
Cu1   O5    S    
C2    C24   S    
C18   H4    S    
C3    C4    S    
C2    H8    S    
C14   C19   S    
C12   O4    A    
C4    C26   S    
C6    C7    A    
Cu2   O2    S    
C26   N8    S    
C15   N5    S    
C2    C3    S    
C5    C10   A    
C12   O3    A    
C11   C13   S    
Cu1   O1    S    
N5    H17   S    
C19   N7    S    
C27   H19   S    
C18   H5    S    
C17   N2    A    
C15   N1    A    
C20   O6    A    
C10   C11   S    
C14   N1    A    
C1    O1    A    
N9    H26   S    
C3    H9    S    
N8    H25   S    
N7    H22   S    
C21   C24   S    
Cu1   Cu2   S    
C22   C23   S    
C16   N2    A    
C20   O5    A    
