data_mof_unit_35618.cif
_audit_creation_date              2012-12-10T17:28:30-0500
_audit_creation_method            fapswitch 2.2
_symmetry_space_group_name_H-M    P1
_symmetry_Int_Tables_number       1
_space_group_crystal_system       triclinic
_cell_length_a                    10.457497
_cell_length_b                    12.116273
_cell_length_c                    12.81107
_cell_angle_alpha                 94.432481
_cell_angle_beta                  91.244847
_cell_angle_gamma                 84.331225
_cell_volume                      1610.30600383

loop_
_atom_site_label
_atom_site_type_symbol
_atom_type_description
_atom_site_fract_x
_atom_site_fract_y
_atom_site_fract_z
_atom_type_partial_charge
C1    C     C_R   0.497490 0.523165 0.700437 0.902598
C2    C     C_R   0.438818 0.538466 0.131229 -0.315981
C3    C     C_R   0.547335 0.459911 0.975128 0.163194
C4    C     C_R   0.458478 0.540654 0.025723 0.162586
C5    C     C_R   0.398020 0.951619 0.387236 0.368933
C6    C     C_R   0.604871 0.047826 0.610604 0.369310
C7    C     C_R   0.407985 0.836109 0.399606 0.097318
C8    C     C_R   0.594135 0.163439 0.599079 0.097639
C9    C     C_R   0.535928 0.860566 0.553477 0.126964
C10   C     C_R   0.463664 0.139647 0.446521 0.136511
C11   C     C_R   0.535367 0.976825 0.541696 -0.150085
C12   C     C_R   0.503339 0.476866 0.299750 0.911084
C13   C     C_R   0.465021 0.023163 0.457645 -0.148634
C14   C     C_R   0.739655 0.494972 0.482917 0.928338
C15   C     C_R   0.259255 0.504621 0.514406 0.910758
C16   C     C_R   0.925171 0.281291 0.479174 0.121725
C17   C     C_R   0.072432 0.718042 0.511416 0.116627
C18   C     C_R   0.990730 0.199690 0.537383 -0.407982
C19   C     C_R   0.010185 0.797154 0.449198 -0.341280
C20   C     C_R   0.083794 0.228290 0.612653 0.478719
C21   C     C_R   0.916761 0.767669 0.375295 0.455369
C22   C     C_R   0.123880 0.335868 0.617983 0.055825
C23   C     C_R   0.511355 0.460885 0.188086 -0.051689
C24   C     C_R   0.873865 0.661233 0.373111 0.042049
C25   C     C_R   0.067283 0.414749 0.550379 -0.036505
C26   C     C_R   0.930663 0.583282 0.441574 -0.031063
C27   C     C_R   0.954935 0.393007 0.494854 0.026142
C28   C     C_R   0.042986 0.605576 0.497248 0.003086
C29   C     C_R   0.120892 0.514164 0.535054 -0.176934
C30   C     C_R   0.876815 0.484401 0.458061 -0.136190
C31   C     C_3   0.790225 0.927447 0.348450 0.068469
C32   C     C_3   0.726763 0.996147 0.263814 -0.798797
C33   C     C_3   0.184872 0.055033 0.640693 0.068403
C34   C     C_R   0.492247 0.539359 0.812515 -0.051498
C35   C     C_3   0.272230 0.998029 0.720840 -0.782885
C36   C     C_3   0.205863 0.022566 0.319377 0.092037
C37   C     C_3   0.142693 0.071960 0.223239 -0.767574
C38   C     C_3   0.801908 0.971514 0.662884 0.092024
C39   C     C_3   0.872987 0.911249 0.749985 -0.766579
C40   C     C_R   0.391708 0.623510 0.970590 -0.246777
C41   C     C_R   0.616086 0.378463 0.031120 -0.251629
C42   C     C_R   0.408144 0.623579 0.863273 0.090253
C43   C     C_R   0.599371 0.379037 0.138673 0.090143
C44   C     C_R   0.564821 0.461091 0.869003 -0.312764
H1    H     H_    0.965207 0.115394 0.525989 0.117131
H2    H     H_    0.801092 0.027451 0.216294 0.246027
H3    H     H_    0.665745 0.944624 0.212011 0.268188
H4    H     H_    0.243917 0.067039 0.572075 0.126605
H5    H     H_    0.109026 0.000019 0.616239 0.146659
H6    H     H_    0.349326 0.051249 0.746750 0.263637
H7    H     H_    0.215799 0.982396 0.789731 0.252827
H8    H     H_    0.317191 0.917561 0.685745 0.204502
H9    H     H_    0.193842 0.086121 0.386855 0.134325
H10   H     H_    0.154805 0.950289 0.335794 0.135131
H11   H     H_    0.156512 0.011263 0.153920 0.257192
H12   H     H_    0.035831 0.881646 0.457969 0.122050
H13   H     H_    0.038186 0.091826 0.235867 0.193998
H14   H     H_    0.185672 0.149259 0.207857 0.250827
H15   H     H_    0.854432 0.043478 0.648263 0.134337
H16   H     H_    0.803795 0.913508 0.590954 0.130307
H17   H     H_    0.824929 0.836717 0.765958 0.252016
H18   H     H_    0.973457 0.884435 0.726475 0.216945
H19   H     H_    0.874482 0.967600 0.822527 0.255474
H20   H     H_    0.767968 0.205036 0.432804 0.199906
H21   H     H_    0.885374 0.194038 0.344080 0.167138
H22   H     H_    0.180880 0.693728 0.644338 0.208730
H23   H     H_    0.368930 0.599050 0.169968 0.160910
H24   H     H_    0.234226 0.783941 0.564169 0.211631
H25   H     H_    0.179550 0.360593 0.769417 0.205139
H26   H     H_    0.298931 0.310155 0.687160 0.234525
H27   H     H_    0.697223 0.688033 0.307124 0.228271
H28   H     H_    0.813561 0.634924 0.223074 0.207145
H29   H     H_    0.658947 0.220636 0.167029 0.184323
H30   H     H_    0.772410 0.310418 0.186307 0.190456
H31   H     H_    0.360083 0.783946 0.836216 0.189800
H32   H     H_    0.238341 0.702577 0.821722 0.179491
H33   H     H_    0.340345 0.253843 0.377093 0.222345
H34   H     H_    0.633114 0.399557 0.829680 0.160715
H35   H     H_    0.475519 0.204783 0.306839 0.222174
H36   H     H_    0.522432 0.796211 0.693178 0.221127
H37   H     H_    0.657968 0.746475 0.623900 0.224895
H38   H     H_    0.634841 0.219854 0.747213 0.196172
H39   H     H_    0.757780 0.217562 0.662812 0.179439
H40   H     H_    0.370673 0.779879 0.250418 0.198472
H41   H     H_    0.246973 0.778468 0.333840 0.175606
H42   H     H_    0.325230 0.686730 0.010144 0.142958
H43   H     H_    0.684286 0.316290 0.992171 0.143475
H44   H     H_    0.845207 0.982683 0.401993 0.114208
H45   H     H_    0.713227 0.895101 0.392452 0.142319
H46   H     H_    0.665776 0.068139 0.300353 0.207103
N1    N     N_R   0.523130 0.207800 0.519340 -0.143407
N2    N     N_3   0.594371 0.815831 0.644825 -0.388357
N3    N     N_3   0.658802 0.235524 0.671315 -0.384915
N4    N     N_3   0.346256 0.763367 0.325969 -0.384993
N5    N     N_R   0.476870 0.792200 0.480660 -0.148842
N6    N     N_3   0.835475 0.249047 0.399155 -0.420323
N7    N     N_3   0.152567 0.757169 0.595856 -0.473725
N8    N     N_3   0.217341 0.367235 0.695536 -0.442916
N9    N     N_3   0.777763 0.629931 0.297942 -0.440736
N10   N     N_3   0.675636 0.300478 0.197734 -0.448493
N11   N     N_3   0.335582 0.705987 0.806235 -0.472694
N12   N     N_3   0.404224 0.184850 0.355721 -0.393608
O1    O     O_R   0.506170 0.421700 0.658830 -0.599705
O2    O     O_3   0.129284 0.157079 0.687704 -0.617502
O3    O     O_3   0.336828 0.990173 0.298265 -0.597063
O4    O     O_3   0.675111 0.007587 0.694903 -0.595329
O5    O     O_R   0.493830 0.578300 0.341170 -0.600077
O6    O     O_R   0.491330 0.609310 0.646410 -0.633337
O7    O     O_R   0.508670 0.390690 0.353590 -0.627582
O8    O     O_R   0.690650 0.406190 0.506220 -0.587860
O9    O     O_R   0.309350 0.593810 0.493780 -0.609758
O10   O     O_R   0.675800 0.593810 0.493800 -0.634462
O11   O     O_R   0.324200 0.406190 0.506200 -0.625511
O12   O     O_3   0.872158 0.839411 0.300801 -0.613312
Zn1   Zn    Zn3+2 0.509910 0.374730 0.508290 0.935486
Zn2   Zn    Zn3+2 0.490090 0.625270 0.491710 0.921111

loop_
_geom_bond_atom_site_label_1
_geom_bond_atom_site_label_2
_ccdc_geom_bond_type
C19   H12   S    
H29   N10   S    
C42   N11   S    
C38   O4    S    
C22   N8    S    
C33   O2    S    
O1    Zn1   S    
C34   C42   A    
C5    O3    S    
C14   O10   A    
C12   C23   S    
C36   H10   S    
C35   H8    S    
H22   N7    S    
C28   C29   A    
C19   C21   A    
C24   C26   A    
C38   C39   S    
C33   H5    S    
C24   N9    S    
C23   C43   A    
C40   H42   S    
C7    N4    S    
H24   N7    S    
C36   H9    S    
C17   C19   A    
H37   N2    S    
H21   N6    S    
C32   H46   S    
C4    C40   A    
C31   H45   S    
C22   C25   A    
C15   O11   A    
H35   N12   S    
O9    Zn2   S    
C9    N5    A    
C31   O12   S    
C5    C13   A    
C37   H14   S    
H25   N8    S    
C16   C27   A    
C40   C42   A    
H38   N3    S    
C27   C30   A    
C41   C43   A    
H33   N12   S    
C14   C30   S    
C41   H43   S    
C9    N2    S    
C12   O7    A    
C1    C34   S    
C15   C29   S    
C25   C29   A    
C39   H17   S    
C3    C44   A    
C16   N6    S    
C15   O9    A    
C10   N12   S    
C34   C44   A    
C43   N10   S    
H20   N6    S    
C2    H23   S    
C6    C11   A    
C5    C7    A    
C6    C8    A    
H27   N9    S    
H36   N2    S    
C2    C4    A    
H41   N4    S    
C31   C32   S    
N5    Zn2   S    
C35   H6    S    
C6    O4    S    
C8    N1    A    
H40   N4    S    
C9    C11   A    
C38   H16   S    
C20   C22   A    
C10   N1    A    
C26   C30   A    
C35   H7    S    
C32   H3    S    
C3    C4    A    
C18   H1    S    
O10   Zn2   S    
C7    N5    A    
H32   N11   S    
C14   O8    A    
C39   H18   S    
C1    O1    A    
C36   C37   S    
C31   H44   S    
C36   O3    S    
C17   C28   A    
C32   H2    S    
C8    N3    S    
C21   O12   S    
C10   C13   A    
C12   O5    A    
H30   N10   S    
C20   O2    S    
C25   C27   A    
C39   H19   S    
C26   C28   A    
O6    Zn2   S    
C44   H34   S    
C11   C13   A    
C33   C35   S    
N1    Zn1   S    
C18   C20   A    
O5    Zn2   S    
C3    C41   A    
O7    Zn1   S    
C1    O6    A    
C38   H15   S    
C37   H11   S    
C16   C18   A    
C21   C24   A    
C2    C23   A    
H31   N11   S    
C33   H4    S    
C17   N7    S    
O8    Zn1   S    
C37   H13   S    
H26   N8    S    
O11   Zn1   S    
H28   N9    S    
H39   N3    S    
