data_mof_unit_63032.cif
_audit_creation_date              2012-10-26T17:55:12-0400
_audit_creation_method            fapswitch 2.2
_symmetry_space_group_name_H-M    P1
_symmetry_Int_Tables_number       1
_space_group_crystal_system       triclinic
_cell_length_a                    21.764118
_cell_length_b                    21.764118
_cell_length_c                    29.358601
_cell_angle_alpha                 89.999977
_cell_angle_beta                  89.999962
_cell_angle_gamma                 90.0
_cell_volume                      13906.489123

loop_
_atom_site_label
_atom_site_type_symbol
_atom_type_description
_atom_site_fract_x
_atom_site_fract_y
_atom_site_fract_z
_atom_type_partial_charge
C1    C     C_R   0.381441 0.000000 0.000000 0.547786
C2    C     C_R   0.120282 1.000000 1.000000 0.636107
C3    C     C_R   0.000000 0.120282 0.000000 0.636107
C4    C     C_R   0.879718 0.000000 0.000000 0.636107
C5    C     C_R   0.500000 0.379718 0.500000 0.636107
C6    C     C_R   0.620282 0.500000 0.500000 0.636107
C7    C     C_R   0.500000 0.620282 0.500000 0.636107
C8    C     C_R   0.379718 0.500000 0.500000 0.636107
C9    C     C_R   0.500000 1.000000 0.084611 0.536072
C10   C     C_R   1.000000 0.500000 0.084611 0.536072
C11   C     C_R   0.500000 1.000000 0.915389 0.536072
C12   C     C_R   1.000000 0.381441 0.000000 0.547786
C13   C     C_R   1.000000 0.500000 0.915389 0.536072
C14   C     C_R   1.000000 0.500000 0.584611 0.536072
C15   C     C_R   0.500000 1.000000 0.584611 0.536072
C16   C     C_R   0.000000 0.500000 0.415389 0.536072
C17   C     C_R   0.500000 1.000000 0.415389 0.536072
C18   C     C_1   0.500000 1.000000 0.135885 -0.004821
C19   C     C_1   1.000000 0.500000 0.135885 -0.004821
C20   C     C_1   0.500000 1.000000 0.864115 -0.004821
C21   C     C_1   0.000000 0.500000 0.864115 -0.004821
C22   C     C_1   1.000000 0.500000 0.635885 -0.004821
C23   C     C_R   0.618559 0.000000 0.000000 0.547787
C24   C     C_1   0.500000 1.000000 0.635885 -0.004821
C25   C     C_1   1.000000 0.500000 0.364115 -0.004821
C26   C     C_1   0.500000 0.000000 0.364115 -0.004821
C27   C     C_1   0.500000 1.000000 0.178370 -0.000458
C28   C     C_1   1.000000 0.500000 0.178370 -0.000458
C29   C     C_1   0.500000 1.000000 0.821630 -0.000458
C30   C     C_1   1.000000 0.500000 0.821630 -0.000458
C31   C     C_1   1.000000 0.500000 0.678370 -0.000458
C32   C     C_1   0.500000 0.000000 0.678370 -0.000458
C33   C     C_1   1.000000 0.500000 0.321630 -0.000458
C34   C     C_R   0.000000 0.618559 0.000000 0.547787
C35   C     C_1   0.500000 1.000000 0.321630 -0.000458
C36   C     C_1   0.500000 1.000000 0.228758 0.035175
C37   C     C_1   1.000000 0.500000 0.228758 0.035175
C38   C     C_1   0.500000 0.000000 0.771242 0.035175
C39   C     C_1   1.000000 0.500000 0.771242 0.035175
C40   C     C_1   1.000000 0.500000 0.728757 0.035175
C41   C     C_1   0.500000 1.000000 0.728757 0.035175
C42   C     C_1   1.000000 0.500000 0.271242 0.035175
C43   C     C_1   0.500000 1.000000 0.271242 0.035175
C44   C     C_R   0.283741 0.038495 0.970279 -0.100544
C45   C     C_R   0.881441 0.500000 0.500000 0.547786
C46   C     C_R   0.961504 0.283741 0.970279 -0.100543
C47   C     C_R   0.716259 0.961504 0.970279 -0.100544
C48   C     C_R   0.038496 0.716259 0.970279 -0.100543
C49   C     C_R   0.716259 0.038495 0.029721 -0.100544
C50   C     C_R   0.038495 0.283741 0.029721 -0.100544
C51   C     C_R   0.283741 0.961504 0.029721 -0.100544
C52   C     C_R   0.961504 0.716259 0.029721 -0.100544
C53   C     C_R   0.783741 0.538495 0.470279 -0.100544
C54   C     C_R   0.461505 0.783741 0.470279 -0.100544
C55   C     C_R   0.216259 0.461504 0.470279 -0.100543
C56   C     C_R   0.500000 0.881441 0.500000 0.547786
C57   C     C_R   0.538496 0.216259 0.470279 -0.100544
C58   C     C_R   0.216259 0.538495 0.529721 -0.100544
C59   C     C_R   0.538496 0.783741 0.529721 -0.100543
C60   C     C_R   0.783741 0.461504 0.529721 -0.100544
C61   C     C_R   0.461505 0.216259 0.529721 -0.100544
C62   C     C_R   0.219893 0.038726 0.969381 0.217952
C63   C     C_R   0.961273 0.219893 0.969381 0.217951
C64   C     C_R   0.780107 0.961273 0.969381 0.217951
C65   C     C_R   0.038726 0.780107 0.969381 0.217951
C66   C     C_R   0.780107 0.038726 0.030619 0.217951
C67   C     C_R   0.118559 0.500000 0.500000 0.547787
C68   C     C_R   0.038726 0.219893 0.030619 0.217951
C69   C     C_R   0.219893 0.961274 0.030619 0.217951
C70   C     C_R   0.961273 0.780107 0.030619 0.217952
C71   C     C_R   0.719893 0.538726 0.469381 0.217952
C72   C     C_R   0.461274 0.719893 0.469381 0.217952
C73   C     C_R   0.280107 0.461274 0.469381 0.217951
C74   C     C_R   0.538726 0.280107 0.469381 0.217952
C75   C     C_R   0.280107 0.538726 0.530619 0.217952
C76   C     C_R   0.538726 0.719893 0.530619 0.217951
C77   C     C_R   0.719893 0.461274 0.530619 0.217951
C78   C     C_R   0.500000 0.118559 0.500000 0.547787
C79   C     C_R   0.461274 0.280107 0.530619 0.217951
C80   C     C_R   0.187238 1.000000 1.000000 0.012180
C81   C     C_R   1.000000 0.187238 1.000000 0.012180
C82   C     C_R   0.812762 1.000000 0.000000 0.012179
C83   C     C_R   0.000000 0.812762 0.000000 0.012179
C84   C     C_R   0.687238 0.500000 0.500000 0.012180
C85   C     C_R   0.500000 0.687238 0.500000 0.012180
C86   C     C_R   0.312762 0.500000 0.500000 0.012179
C87   C     C_R   0.500000 0.312762 0.500000 0.012179
C88   C     C_R   0.315188 0.000000 0.000000 -0.072937
C89   C     C_R   0.000000 0.879718 0.000000 0.636107
C90   C     C_R   1.000000 0.315188 0.000000 -0.072937
C91   C     C_R   0.684811 0.000000 0.000000 -0.072936
C92   C     C_R   0.000000 0.684811 0.000000 -0.072936
C93   C     C_R   0.815189 0.500000 0.500000 -0.072937
C94   C     C_R   0.500000 0.815188 0.500000 -0.072936
C95   C     C_R   0.184811 0.500000 0.500000 -0.072936
C96   C     C_R   0.500000 0.184811 0.500000 -0.072936
Cu1   Cu    Cu3+1 0.500000 0.938190 0.000000 1.035235
Cu2   Cu    Cu3+1 0.000000 0.000000 0.042460 1.331111
Cu3   Cu    Cu3+1 0.500000 0.500000 0.457540 1.331111
Cu4   Cu    Cu3+1 0.500000 0.500000 0.542460 1.331111
Cu5   Cu    Cu3+1 0.061810 0.500000 0.000000 1.035235
Cu6   Cu    Cu3+1 0.500000 0.061810 0.000000 1.035235
Cu7   Cu    Cu3+1 0.938190 0.500000 0.000000 1.035235
Cu8   Cu    Cu3+1 1.000000 0.438190 0.500000 1.035235
Cu9   Cu    Cu3+1 0.561810 0.000000 0.500000 1.035235
Cu10  Cu    Cu3+1 1.000000 0.561810 0.500000 1.035235
Cu11  Cu    Cu3+1 0.438190 0.000000 0.500000 1.035235
Cu12  Cu    Cu3+1 0.000000 1.000000 0.957540 1.331111
H1    H     H_    0.309478 0.067547 0.947187 0.192684
H2    H     H_    0.432453 0.809478 0.447187 0.192684
H3    H     H_    0.190522 0.432453 0.447187 0.192684
H4    H     H_    0.567547 0.190522 0.447187 0.192684
H5    H     H_    0.190522 0.567547 0.552813 0.192684
H6    H     H_    0.567547 0.809478 0.552813 0.192684
H7    H     H_    0.809478 0.432453 0.552813 0.192684
H8    H     H_    0.432453 0.190522 0.552813 0.192684
H9    H     H_    0.211643 0.163187 0.885574 0.383152
H10   H     H_    0.836812 0.211642 0.885575 0.383153
H11   H     H_    0.788357 0.836813 0.885575 0.383153
H12   H     H_    0.932453 0.309478 0.947187 0.192684
H13   H     H_    0.163187 0.788357 0.885574 0.383152
H14   H     H_    0.788357 0.163187 0.114425 0.383153
H15   H     H_    0.163188 0.211642 0.114424 0.383152
H16   H     H_    0.211643 0.836813 0.114425 0.383152
H17   H     H_    0.836813 0.788357 0.114425 0.383153
H18   H     H_    0.711643 0.663188 0.385575 0.383153
H19   H     H_    0.336813 0.711643 0.385574 0.383152
H20   H     H_    0.288357 0.336813 0.385575 0.383152
H21   H     H_    0.663187 0.288357 0.385574 0.383153
H22   H     H_    0.288357 0.663187 0.614425 0.383153
H23   H     H_    0.690522 0.932453 0.947187 0.192684
H24   H     H_    0.663188 0.711642 0.614425 0.383152
H25   H     H_    0.711643 0.336813 0.614425 0.383152
H26   H     H_    0.336813 0.288357 0.614425 0.383153
H27   H     H_    0.067547 0.690522 0.947187 0.192684
H28   H     H_    0.690522 0.067547 0.052813 0.192684
H29   H     H_    0.067547 0.309478 0.052813 0.192684
H30   H     H_    0.309478 0.932453 0.052813 0.192684
H31   H     H_    0.932453 0.690522 0.052813 0.192684
H32   H     H_    0.809478 0.567547 0.447187 0.192684
O1    O     O_R   0.409820 0.947800 0.000000 -0.493663
O2    O     O_R   0.552200 0.909820 0.500000 -0.493663
O3    O     O_R   0.090180 0.552200 0.500000 -0.493663
O4    O     O_R   0.447800 0.090180 0.500000 -0.493663
O5    O     O_R   0.090180 0.447800 0.500000 -0.493663
O6    O     O_R   0.447800 0.909820 0.500000 -0.493663
O7    O     O_R   0.909820 0.552200 0.500000 -0.493663
O8    O     O_R   0.552200 0.090180 0.500000 -0.493663
O9    O     O_R   0.499990 0.947800 0.061980 -0.485544
O10   O     O_R   0.052200 0.499990 0.061980 -0.485544
O11   O     O_R   0.500010 0.052200 0.061980 -0.485544
O12   O     O_R   0.052200 0.409820 0.000000 -0.493663
O13   O     O_R   0.947800 0.500010 0.061980 -0.485544
O14   O     O_R   0.500010 0.947800 0.938020 -0.485544
O15   O     O_R   0.947800 0.499990 0.938020 -0.485544
O16   O     O_R   0.499990 0.052200 0.938020 -0.485544
O17   O     O_R   0.052200 0.500010 0.938020 -0.485544
O18   O     O_R   0.999990 0.447800 0.561980 -0.485544
O19   O     O_R   0.552200 0.999990 0.561980 -0.485544
O20   O     O_R   0.000010 0.552200 0.561980 -0.485544
O21   O     O_R   0.447800 0.000010 0.561980 -0.485544
O22   O     O_R   0.000010 0.447800 0.438020 -0.485544
O23   O     O_R   0.590180 0.052200 0.000000 -0.493663
O24   O     O_R   0.447800 0.999990 0.438020 -0.485544
O25   O     O_R   0.999990 0.552200 0.438020 -0.485544
O26   O     O_R   0.552200 0.000010 0.438020 -0.485544
O27   O     O_R   0.000010 0.909720 0.964150 -0.459643
O28   O     O_R   0.090280 0.000010 0.964150 -0.459643
O29   O     O_R   0.999990 0.090280 0.964150 -0.459643
O30   O     O_R   0.909720 0.999990 0.964150 -0.459643
O31   O     O_R   0.999990 0.909720 0.035850 -0.459643
O32   O     O_R   0.909720 0.000010 0.035850 -0.459642
O33   O     O_R   0.000010 0.090280 0.035850 -0.459643
O34   O     O_R   0.947800 0.590180 0.000000 -0.493663
O35   O     O_R   0.090280 0.999990 0.035850 -0.459643
O36   O     O_R   0.500010 0.409720 0.464150 -0.459643
O37   O     O_R   0.590280 0.500010 0.464150 -0.459643
O38   O     O_R   0.499990 0.590280 0.464150 -0.459643
O39   O     O_R   0.409720 0.499990 0.464150 -0.459643
O40   O     O_R   0.499990 0.409720 0.535850 -0.459643
O41   O     O_R   0.409720 0.500010 0.535850 -0.459642
O42   O     O_R   0.500010 0.590280 0.535850 -0.459643
O43   O     O_R   0.590280 0.499990 0.535850 -0.459643
O44   O     O_2   0.157385 0.050766 0.891424 -0.236207
O45   O     O_R   0.590180 0.947800 0.000000 -0.493663
O46   O     O_2   0.133253 0.124192 0.952135 -0.254605
O47   O     O_3   0.235191 0.138278 0.907772 -0.515158
O48   O     O_2   0.949234 0.157385 0.891424 -0.236206
O49   O     O_2   0.875808 0.133253 0.952135 -0.254607
O50   O     O_3   0.861722 0.235191 0.907772 -0.515158
O51   O     O_2   0.842615 0.949234 0.891424 -0.236207
O52   O     O_2   0.866747 0.875808 0.952135 -0.254605
O53   O     O_3   0.764809 0.861722 0.907772 -0.515158
O54   O     O_2   0.050766 0.842615 0.891424 -0.236207
O55   O     O_2   0.124192 0.866747 0.952135 -0.254605
O56   O     O_R   0.947800 0.409820 0.000000 -0.493663
O57   O     O_3   0.138278 0.764809 0.907772 -0.515158
O58   O     O_2   0.842615 0.050766 0.108576 -0.236207
O59   O     O_2   0.866747 0.124192 0.047865 -0.254605
O60   O     O_3   0.764809 0.138278 0.092228 -0.515158
O61   O     O_2   0.050766 0.157385 0.108576 -0.236205
O62   O     O_2   0.124192 0.133253 0.047864 -0.254607
O63   O     O_3   0.138278 0.235190 0.092228 -0.515158
O64   O     O_2   0.157385 0.949234 0.108576 -0.236207
O65   O     O_2   0.133253 0.875808 0.047865 -0.254605
O66   O     O_3   0.235190 0.861722 0.092228 -0.515157
O67   O     O_R   0.409820 0.052200 0.000000 -0.493663
O68   O     O_2   0.949234 0.842615 0.108576 -0.236207
O69   O     O_2   0.875808 0.866747 0.047865 -0.254605
O70   O     O_3   0.861722 0.764809 0.092228 -0.515158
O71   O     O_2   0.657385 0.550766 0.391424 -0.236206
O72   O     O_2   0.633253 0.624192 0.452135 -0.254606
O73   O     O_3   0.735191 0.638278 0.407772 -0.515158
O74   O     O_2   0.449234 0.657385 0.391424 -0.236207
O75   O     O_2   0.375808 0.633253 0.452135 -0.254605
O76   O     O_3   0.361722 0.735191 0.407772 -0.515158
O77   O     O_2   0.342615 0.449234 0.391424 -0.236207
O78   O     O_R   0.052200 0.590180 0.000000 -0.493663
O79   O     O_2   0.366747 0.375808 0.452135 -0.254605
O80   O     O_3   0.264809 0.361722 0.407772 -0.515158
O81   O     O_2   0.550766 0.342615 0.391424 -0.236207
O82   O     O_2   0.624192 0.366747 0.452135 -0.254605
O83   O     O_3   0.638278 0.264809 0.407772 -0.515158
O84   O     O_2   0.342615 0.550766 0.608576 -0.236207
O85   O     O_2   0.366747 0.624192 0.547865 -0.254605
O86   O     O_3   0.264809 0.638278 0.592228 -0.515158
O87   O     O_2   0.550766 0.657385 0.608576 -0.236206
O88   O     O_2   0.624192 0.633253 0.547865 -0.254606
O89   O     O_R   0.909820 0.447800 0.500000 -0.493663
O90   O     O_3   0.638278 0.735190 0.592228 -0.515157
O91   O     O_2   0.657385 0.449234 0.608576 -0.236207
O92   O     O_2   0.633253 0.375808 0.547865 -0.254605
O93   O     O_3   0.735190 0.361722 0.592228 -0.515158
O94   O     O_2   0.449234 0.342615 0.608576 -0.236207
O95   O     O_2   0.375808 0.366747 0.547865 -0.254605
O96   O     O_3   0.361722 0.264809 0.592228 -0.515158
S1    S     S_3+6 0.183837 0.088521 0.929545 0.056627
S2    S     S_3+6 0.411479 0.683837 0.429545 0.056627
S3    S     S_3+6 0.316163 0.411479 0.429545 0.056627
S4    S     S_3+6 0.588521 0.316163 0.429545 0.056627
S5    S     S_3+6 0.316163 0.588521 0.570455 0.056627
S6    S     S_3+6 0.588521 0.683836 0.570455 0.056627
S7    S     S_3+6 0.683836 0.411479 0.570455 0.056628
S8    S     S_3+6 0.411479 0.316163 0.570455 0.056627
S9    S     S_3+6 0.911479 0.183837 0.929545 0.056627
S10   S     S_3+6 0.816163 0.911479 0.929545 0.056627
S11   S     S_3+6 0.088521 0.816163 0.929545 0.056627
S12   S     S_3+6 0.816163 0.088521 0.070455 0.056627
S13   S     S_3+6 0.088521 0.183836 0.070455 0.056627
S14   S     S_3+6 0.183837 0.911479 0.070455 0.056628
S15   S     S_3+6 0.911479 0.816163 0.070455 0.056627
S16   S     S_3+6 0.683837 0.588521 0.429545 0.056627

loop_
_geom_bond_atom_site_label_1
_geom_bond_atom_site_label_2
_ccdc_geom_bond_type
C8    O41   A    
C68   S13   S    
C15   O21   A    
Cu2   O35   S    
Cu12  O30   S    
C53   H32   S    
O70   S15   S    
C12   O12   A    
C48   H27   S    
O91   S7    D    
H21   O83   S    
C67   O3    A    
C35   C43   S    
O60   S12   S    
O87   S6    D    
C79   C87   A    
C72   C85   A    
C50   H29   S    
Cu2   Cu12  S    
Cu10  O3    S    
C66   S12   S    
Cu9   O26   S    
C56   C94   S    
Cu9   Cu11  S    
C9    O9    A    
C62   S1    S    
C4    O30   A    
C14   O18   A    
C75   S5    S    
C33   C42   S    
Cu12  O28   S    
C12   C90   S    
O74   S2    D    
C10   C19   S    
C61   C79   A    
C73   S3    S    
C17   O26   A    
Cu8   O22   S    
Cu10  O20   S    
H19   O76   S    
C65   C83   A    
C57   H4    S    
Cu1   O45   S    
O85   S5    D    
O92   S7    D    
Cu5   O10   S    
C52   H31   S    
O52   S10   D    
C31   C40   S    
C54   H2    S    
O73   S16   S    
O76   S2    S    
Cu3   O39   S    
O79   S3    D    
C37   C42   T    
Cu4   O43   S    
C15   O19   A    
C89   O27   A    
O65   S14   D    
C11   O14   A    
O63   S13   S    
Cu5   O78   S    
C50   C90   A    
C1    O1    A    
C13   O15   A    
Cu3   O36   S    
Cu11  O21   S    
O58   S12   D    
Cu6   O23   S    
C57   C96   A    
C29   C38   S    
C3    C81   S    
C58   H5    S    
C32   C41   S    
O80   S3    S    
Cu4   O41   S    
C59   C94   A    
O71   S16   D    
O72   S16   D    
Cu4   O42   S    
Cu6   O67   S    
H20   O80   S    
Cu1   Cu6   S    
C78   O8    A    
Cu6   O11   S    
C56   O2    A    
C44   H1    S    
C1    C88   S    
C65   S11   S    
C69   C80   A    
Cu5   O17   S    
O64   S14   D    
Cu5   Cu7   S    
C45   O7    A    
Cu12  O29   S    
C67   C95   S    
C12   O56   A    
C45   O89   A    
C49   C91   A    
C83   C89   S    
C10   O13   A    
C13   O17   A    
O47   S1    S    
O93   S7    S    
C58   C75   A    
C23   O23   A    
C20   C29   T    
C63   S9    S    
C11   C20   S    
C61   C96   A    
C6    C84   S    
C22   C31   T    
O81   S4    D    
O49   S9    D    
O88   S6    D    
Cu10  O25   S    
C13   C21   S    
C2    C80   S    
C89   O31   A    
Cu3   O38   S    
C55   C95   A    
C54   C72   A    
C49   C66   A    
C78   C96   S    
C60   C77   A    
C23   O45   A    
Cu2   O33   S    
C3    O29   A    
O86   S5    S    
C77   C84   A    
C44   C62   A    
C79   S8    S    
Cu9   O8    S    
C53   C93   A    
O57   S11   S    
Cu7   O34   S    
Cu10  O7    S    
C7    O38   A    
C14   O20   A    
H11   O53   S    
O68   S15   D    
C55   C73   A    
C57   C74   A    
C76   S6    S    
C58   C95   A    
C24   C32   T    
C5    O40   A    
C67   O5    A    
C34   O34   A    
C17   O24   A    
C78   O4    A    
C2    O35   A    
C66   C82   A    
O46   S1    D    
C3    O33   A    
C26   C35   T    
C75   C86   A    
Cu3   Cu4   S    
C16   O25   A    
O53   S10   S    
C64   C82   A    
C47   C64   A    
C61   H8    S    
O44   S1    D    
C46   H12   S    
O48   S9    D    
O75   S2    D    
H25   O93   S    
Cu1   O14   S    
C70   C83   A    
C4    C82   S    
Cu1   O1    S    
C48   C65   A    
C69   S14   S    
C38   C41   T    
C46   C90   A    
Cu2   O31   S    
C11   O16   A    
H18   O73   S    
Cu7   O15   S    
C15   C24   S    
C59   C76   A    
C49   H28   S    
C63   C81   A    
C45   C93   S    
O61   S13   D    
O54   S11   D    
C6    O37   A    
C19   C28   T    
C14   C22   S    
C74   C87   A    
C5    O36   A    
C23   C91   S    
C52   C92   A    
Cu7   O56   S    
C17   C26   S    
C53   C71   A    
Cu6   O16   S    
C71   S16   S    
Cu9   O2    S    
H9    O47   S    
C71   C84   A    
C62   C80   A    
C16   C25   S    
Cu11  O6    S    
C74   S4    S    
O77   S3    D    
C39   C40   T    
C9    O11   A    
O50   S9    S    
Cu1   O9    S    
C4    O32   A    
C7    O42   A    
C55   H3    S    
C77   S7    S    
C47   C91   A    
Cu8   O5    S    
Cu12  O27   S    
C7    C85   S    
C18   C27   T    
Cu8   O18   S    
C60   H7    S    
H24   O90   S    
C51   C88   A    
H13   O57   S    
H17   O70   S    
C34   O78   A    
Cu3   O37   S    
Cu8   Cu10  S    
H16   O66   S    
C27   C36   S    
C21   C30   T    
C46   C63   A    
Cu5   O12   S    
H15   O63   S    
C6    O43   A    
O83   S4    S    
C16   O22   A    
O96   S8    S    
C2    O28   A    
Cu2   O32   S    
C60   C93   A    
C1    O67   A    
O90   S6    S    
H10   O50   S    
C8    O39   A    
Cu7   O13   S    
Cu8   O89   S    
Cu9   O19   S    
C68   C81   A    
O55   S11   D    
C28   C37   S    
O69   S15   D    
C59   H6    S    
O59   S12   D    
C70   S15   S    
O82   S4    D    
C30   C39   S    
C8    C86   S    
C56   O6    A    
O84   S5    D    
C34   C92   S    
O95   S8    D    
C54   C94   A    
C52   C70   A    
C5    C87   S    
C51   H30   S    
C9    C18   S    
O62   S13   D    
C64   S10   S    
Cu11  O24   S    
H22   O86   S    
C48   C92   A    
O66   S14   S    
C47   H23   S    
O51   S10   D    
H26   O96   S    
C36   C43   T    
C73   C86   A    
C51   C69   A    
H14   O60   S    
Cu11  O4    S    
C44   C88   A    
C50   C68   A    
C76   C85   A    
C10   O10   A    
C72   S2    S    
C25   C33   T    
O94   S8    D    
Cu4   O40   S    
