data_mof_unit_37129.cif
_audit_creation_date              2012-12-10T17:27:51-0500
_audit_creation_method            fapswitch 2.2
_symmetry_space_group_name_H-M    P1
_symmetry_Int_Tables_number       1
_space_group_crystal_system       triclinic
_cell_length_a                    10.628474
_cell_length_b                    11.995724
_cell_length_c                    12.829499
_cell_angle_alpha                 94.256078
_cell_angle_beta                  90.460693
_cell_angle_gamma                 87.074234
_cell_volume                      1629.06100111

loop_
_atom_site_label
_atom_site_type_symbol
_atom_type_description
_atom_site_fract_x
_atom_site_fract_y
_atom_site_fract_z
_atom_type_partial_charge
C1    C     C_R   0.497420 0.522818 0.700374 0.927902
C2    C     C_R   0.932263 0.504345 0.400177 0.073910
C3    C     C_R   0.872007 0.503575 0.497872 -0.174389
C4    C     C_R   0.939309 0.499923 0.592490 -0.033835
C5    C     C_R   0.068725 0.493454 0.588682 -0.245718
C6    C     C_R   0.129072 0.495811 0.493577 -0.104080
C7    C     C_R   0.510110 0.460565 0.187257 -0.127836
C8    C     C_R   0.495101 0.537661 0.811864 -0.060864
C9    C     C_R   0.410454 0.629909 0.970487 -0.200379
C10   C     C_R   0.424566 0.626692 0.862976 -0.199838
C11   C     C_R   0.556933 0.455436 0.867060 -0.250072
C12   C     C_R   0.739435 0.501191 0.500934 0.923759
C13   C     C_R   0.542940 0.457590 0.973631 0.161087
C14   C     C_R   0.467552 0.544345 0.025593 0.184758
C15   C     C_R   0.450715 0.544341 0.131774 -0.284193
C16   C     C_R   0.584501 0.372308 0.135378 -0.039867
C17   C     C_R   0.600925 0.372604 0.028139 -0.256066
C18   C     C_R   0.381194 0.951926 0.402830 -0.305714
C19   C     C_R   0.392890 0.836095 0.412081 0.035244
C20   C     C_R   0.551657 0.859714 0.541781 -0.036246
C21   C     C_R   0.543348 0.976720 0.535191 0.079836
C22   C     C_R   0.456712 0.023256 0.464777 0.076929
C23   C     C_R   0.503170 0.476732 0.299344 0.838493
C24   C     C_R   0.448155 0.140275 0.458400 -0.005671
C25   C     C_R   0.607413 0.163863 0.587659 0.036426
C26   C     C_R   0.619073 0.048041 0.596955 -0.314453
C27   C     C_R   0.260858 0.498686 0.497750 0.871640
C28   C     C_R   0.864657 0.508397 0.304876 -0.122348
C29   C     C_R   0.927940 0.509312 0.210117 -0.074715
C30   C     C_R   0.059020 0.506295 0.208511 -0.128444
C31   C     C_R   0.127070 0.502138 0.301650 -0.182365
C32   C     C_R   0.064057 0.501040 0.398230 0.095446
H1    H     H_    0.658291 0.306122 0.987082 0.163567
H2    H     H_    0.376662 0.690474 0.819563 0.162382
H3    H     H_    0.613545 0.388068 0.826445 0.165942
H4    H     H_    0.382195 0.177748 0.404795 0.151984
H5    H     H_    0.665867 0.218957 0.635182 0.140576
H6    H     H_    0.313838 0.985274 0.347909 0.157877
H7    H     H_    0.686568 0.014693 0.651767 0.157937
H8    H     H_    0.334629 0.780984 0.364385 0.132391
H9    H     H_    0.617478 0.822242 0.595502 0.149713
H10   H     H_    0.762963 0.511053 0.302695 0.119877
H11   H     H_    0.875053 0.512277 0.137805 0.153344
H12   H     H_    0.108135 0.506956 0.134972 0.150837
H13   H     H_    0.228781 0.499206 0.297410 0.127039
H14   H     H_    0.123287 0.491775 0.660571 0.166961
H15   H     H_    0.392841 0.611193 0.171856 0.154970
H16   H     H_    0.353337 0.697381 0.010032 0.144478
N1    N     N_R   0.523130 0.207800 0.519340 -0.105039
N2    N     N_R   0.476870 0.792180 0.480660 -0.105644
O1    O     O_R   0.506170 0.421690 0.658830 -0.629259
O2    O     O_R   0.491330 0.609320 0.646410 -0.605453
O3    O     O_R   0.690660 0.406170 0.506210 -0.622719
O4    O     O_R   0.675810 0.593790 0.493790 -0.596484
O5    O     O_R   0.508670 0.390680 0.353590 -0.584815
O6    O     O_R   0.493830 0.578310 0.341170 -0.631548
O7    O     O_R   0.324190 0.406210 0.506210 -0.614003
O8    O     O_R   0.309340 0.593830 0.493790 -0.625631
Zn1   Zn    Zn3+2 0.509910 0.374720 0.508290 0.976734
Zn2   Zn    Zn3+2 0.490090 0.625280 0.491710 0.961578
C33   C     C_2   0.877933 0.509645 0.696473 0.880634
O9    O     O_2   0.919709 0.453862 0.766165 -0.630300
O10   O     O_R   0.777011 0.587245 0.716526 -0.817817
H17   H     H_    0.750121 0.592405 0.792391 0.338894
C34   C     C_2   0.649803 0.281118 0.189428 0.928009
O11   O     O_2   0.764660 0.269219 0.185956 -0.631439
O12   O     O_R   0.579931 0.205180 0.239261 -0.784638
H18   H     H_    0.635252 0.145923 0.272242 0.340728

loop_
_geom_bond_atom_site_label_1
_geom_bond_atom_site_label_2
_ccdc_geom_bond_type
C6    C32   A    
C9    C14   A    
C23   O5    A    
C29   C30   A    
C3    C12   S    
O5    Zn1   S    
C1    C8    S    
C11   C13   A    
C9    C10   A    
C6    C27   S    
N1    Zn1   S    
C15   H15   S    
C30   C31   A    
C21   C26   A    
N2    Zn2   S    
C21   C22   A    
C7    C15   A    
C2    C3    A    
O3    Zn1   S    
C23   O6    A    
C10   H2    S    
O4    Zn2   S    
C13   C14   A    
C29   H11   S    
O12   H18   S    
C1    O1    A    
C19   N2    A    
C30   H12   S    
C24   H4    S    
C12   O3    A    
C17   H1    S    
O2    Zn2   S    
C8    C11   A    
C7    C23   S    
C5    C6    A    
C28   H10   S    
C7    C16   A    
C20   H9    S    
C25   N1    A    
C34   O11   D    
C18   H6    S    
C33   O9    D    
C11   H3    S    
C1    O2    A    
C22   C24   A    
C26   H7    S    
O7    Zn1   S    
O1    Zn1   S    
C19   H8    S    
O10   H17   S    
O8    Zn2   S    
C13   C17   A    
O6    Zn2   S    
C20   N2    A    
C20   C21   A    
C9    H16   S    
C2    C32   A    
C18   C19   A    
C27   O7    A    
C24   N1    A    
C33   O10   S    
C14   C15   A    
C28   C29   A    
C2    C28   A    
C16   C34   S    
C31   H13   S    
C25   H5    S    
C25   C26   A    
C18   C22   A    
C34   O12   S    
C4    C33   S    
C8    C10   A    
C12   O4    A    
C3    C4    A    
C31   C32   A    
C16   C17   A    
C4    C5    A    
C5    H14   S    
C27   O8    A    
