data_mof_unit_43413.cif
_audit_creation_date              2012-12-10T17:12:38-0500
_audit_creation_method            fapswitch 2.2
_symmetry_space_group_name_H-M    P1
_symmetry_Int_Tables_number       1
_space_group_crystal_system       triclinic
_cell_length_a                    22.622575
_cell_length_b                    10.734387
_cell_length_c                    10.05615
_cell_angle_alpha                 88.888483
_cell_angle_beta                  91.268754
_cell_angle_gamma                 89.605965
_cell_volume                      2440.90686861

loop_
_atom_site_label
_atom_site_type_symbol
_atom_type_description
_atom_site_fract_x
_atom_site_fract_y
_atom_site_fract_z
_atom_type_partial_charge
C1    C     C_R   0.497529 0.262934 0.501273 0.951874
C2    C     C_R   0.962615 0.628495 0.206039 -0.246253
C3    C     C_R   0.023936 0.627594 0.198451 0.209742
C4    C     C_R   0.058720 0.661744 0.310647 -0.071322
C5    C     C_R   0.030647 0.704374 0.426110 -0.087961
C6    C     C_R   0.064985 0.750692 0.533290 -0.095317
C7    C     C_R   0.036163 0.808403 0.640822 0.181601
C8    C     C_R   0.973799 0.801989 0.648568 -0.070199
C9    C     C_R   0.120524 0.649800 0.316579 0.555133
C10   C     C_R   0.126850 0.733009 0.527293 0.600209
C11   C     C_R   0.233261 0.581298 0.592760 0.232718
C12   C     C_R   0.388347 0.500970 0.498490 0.900059
C13   C     C_R   0.293496 0.554870 0.603461 -0.218791
C14   C     C_R   0.323935 0.514161 0.493188 -0.094506
C15   C     C_R   0.291894 0.480997 0.379115 -0.222022
C16   C     C_R   0.230817 0.503314 0.369348 0.055265
C17   C     C_R   0.204248 0.580867 0.465672 0.114232
C18   C     C_R   0.773762 0.496058 0.434926 -0.132219
C19   C     C_R   0.715606 0.455355 0.443745 0.101419
C20   C     C_R   0.673604 0.532063 0.502515 -0.060998
C21   C     C_R   0.689761 0.648992 0.549809 -0.266616
C22   C     C_R   0.746962 0.692146 0.533981 -0.110012
C23   C     C_R   0.499930 0.737190 0.498418 0.918993
C24   C     C_R   0.789500 0.616155 0.476169 0.253819
C25   C     C_2   0.474202 0.936049 0.405104 0.145448
C26   C     C_2   0.508372 0.867939 0.491614 -0.205438
C27   C     C_2   0.481262 0.068920 0.394538 -0.187158
C28   C     C_2   0.487567 0.132510 0.505833 -0.330197
C29   C     C_2   0.547053 0.498812 0.931538 0.038538
C30   C     C_2   0.544883 0.530872 0.075984 -0.110801
C31   C     C_R   0.611339 0.501265 0.501226 0.903019
C32   C     C_R   0.880309 0.708119 0.562689 0.514020
C33   C     C_R   0.873997 0.646485 0.336373 0.509246
C34   C     C_R   0.934884 0.660746 0.323565 -0.042704
C35   C     C_R   0.968689 0.702670 0.432666 -0.024594
C36   C     C_R   0.940543 0.739562 0.549048 -0.082585
H1    H     H_    0.936729 0.597088 0.121365 0.203530
H2    H     H_    0.657198 0.708851 0.593820 0.178116
H3    H     H_    0.757931 0.785300 0.564940 0.169114
H4    H     H_    0.479307 0.113722 0.296708 0.190302
H5    H     H_    0.484063 0.087567 0.603186 0.168068
H6    H     H_    0.583971 0.568448 0.124598 0.165036
H7    H     H_    0.468939 0.446342 0.103824 0.195686
H8    H     H_    0.316057 0.563389 0.698855 0.203135
H9    H     H_    0.313965 0.429853 0.302500 0.156646
H10   H     H_    0.806488 0.435523 0.392318 0.173203
N1    N     N_R   0.848742 0.660392 0.457577 -0.341897
N2    N     N_R   0.149293 0.651542 0.437746 -0.344608
N3    N     N_2   0.500610 0.501330 0.852150 -0.059981
N4    N     N_2   0.500630 0.501360 0.147810 -0.173888
O1    O     O_R   0.499990 0.319060 0.613040 -0.625184
O2    O     O_2   0.840434 0.615340 0.229547 -0.567088
O3    O     O_2   0.151630 0.645764 0.204334 -0.486564
O4    O     O_2   0.164263 0.800300 0.602150 -0.481482
O5    O     O_R   0.500010 0.319100 0.386900 -0.608076
O6    O     O_R   0.416150 0.499940 0.613100 -0.590765
O7    O     O_R   0.416160 0.499980 0.386960 -0.600366
O8    O     O_R   0.499990 0.680900 0.613100 -0.602141
O9    O     O_R   0.500010 0.680940 0.386960 -0.586273
O10   O     O_R   0.583840 0.500020 0.613040 -0.611148
O11   O     O_R   0.583850 0.500060 0.386900 -0.596109
O12   O     O_2   0.854500 0.717950 0.681632 -0.579000
Zn1   Zn    Zn3+2 0.499990 0.499970 0.650990 0.991568
Zn2   Zn    Zn3+2 0.500010 0.500030 0.349010 0.990446
I1    I     I_    0.693431 0.280105 0.364160 -0.440580
I2    I     I_    0.401031 0.865124 0.292687 -0.263336
C37   C     C_R   0.563410 0.913252 0.558347 0.063872
C38   C     C_R   0.570159 0.904689 0.697607 -0.136953
C39   C     C_R   0.624213 0.933516 0.759171 -0.157227
C40   C     C_R   0.672010 0.969968 0.682317 -0.154014
C41   C     C_R   0.665464 0.980286 0.544069 -0.130078
C42   C     C_R   0.611377 0.952349 0.482014 -0.109134
H11   H     H_    0.533814 0.874265 0.758240 0.166843
H12   H     H_    0.629302 0.925786 0.866291 0.143619
H13   H     H_    0.714197 0.989952 0.729834 0.144050
H14   H     H_    0.702793 0.007028 0.484804 0.163177
H15   H     H_    0.607428 0.957215 0.374508 0.149758
C43   C     C_R   0.605298 0.460515 0.883105 0.142319
C44   C     C_R   0.614258 0.339550 0.836495 -0.070553
C45   C     C_R   0.670096 0.303242 0.793764 -0.150554
C46   C     C_R   0.717392 0.386171 0.799394 -0.105383
C47   C     C_R   0.708958 0.506020 0.847580 -0.075365
C48   C     C_R   0.653130 0.543299 0.889303 -0.165049
H16   H     H_    0.578132 0.273931 0.832801 0.132431
H17   H     H_    0.676765 0.210938 0.756192 0.152482
H18   H     H_    0.760490 0.357720 0.765919 0.139190
H19   H     H_    0.745553 0.570382 0.851534 0.175445
H20   H     H_    0.647072 0.636823 0.925477 0.125060
I3    I     I_    0.427672 0.611408 0.902764 -0.265464
I4    I     I_    0.056466 0.554464 0.019075 -0.286426
I5    I     I_    0.083124 0.903623 0.797084 -0.225791
C49   C     C_R   0.943195 0.871241 0.753469 0.193901
C50   C     C_R   0.915317 0.985580 0.721593 -0.127242
C51   C     C_R   0.885079 0.050172 0.818890 -0.130803
C52   C     C_R   0.882411 0.000941 0.948307 -0.107280
C53   C     C_R   0.909818 0.886880 0.980537 -0.116007
C54   C     C_R   0.940005 0.821883 0.883420 -0.032878
H21   H     H_    0.916917 0.024251 0.621458 0.125557
H22   H     H_    0.863607 0.138236 0.793903 0.134805
H23   H     H_    0.858939 0.050964 0.023488 0.141827
H24   H     H_    0.907372 0.848718 0.080596 0.152678
H25   H     H_    0.960299 0.732887 0.908560 0.152550
I6    I     I_    0.189075 0.573926 0.777451 -0.236223
C55   C     C_R   0.195643 0.421094 0.280282 0.150506
C56   C     C_R   0.145588 0.359210 0.328685 -0.165502
C57   C     C_R   0.114160 0.276830 0.248139 -0.106226
C58   C     C_R   0.132512 0.254566 0.118981 -0.063584
C59   C     C_R   0.182105 0.315331 0.069764 -0.080435
C60   C     C_R   0.213584 0.398198 0.149684 -0.055784
H26   H     H_    0.131223 0.373706 0.429277 0.136575
H27   H     H_    0.075718 0.229724 0.286160 0.145169
H28   H     H_    0.108176 0.190592 0.056851 0.158997
H29   H     H_    0.196115 0.298389 0.969462 0.160163
H30   H     H_    0.251619 0.445081 0.109257 0.150974

loop_
_geom_bond_atom_site_label_1
_geom_bond_atom_site_label_2
_ccdc_geom_bond_type
C59   H29   S    
C23   O8    A    
C56   H26   S    
C50   C51   A    
N3    Zn1   S    
N4    Zn2   S    
C58   H28   S    
C31   O11   A    
C52   C53   A    
C17   N2    S    
C46   C47   A    
C7    C8    A    
C29   N3    D    
C33   O2    S    
C23   O9    A    
C5    C6    A    
O9    Zn2   S    
C45   H17   S    
C3    I4    S    
C18   C24   A    
C26   C37   S    
C32   C36   A    
C21   C22   A    
C37   C42   A    
C44   H16   S    
C34   C35   A    
C57   C58   A    
C15   C16   A    
C28   H5    S    
C59   C60   A    
C18   C19   A    
C8    C36   A    
C23   C26   S    
C42   H15   S    
C43   C48   A    
C16   C55   S    
C21   H2    S    
C19   C20   A    
C16   C17   A    
C1    C28   S    
C58   C59   A    
C40   C41   A    
C8    C49   S    
C54   H25   S    
C2    C34   A    
C48   H20   S    
C30   N4    D    
C13   C14   A    
C53   C54   A    
C51   C52   A    
C18   H10   S    
C55   C56   A    
C49   C54   A    
C57   H27   S    
C29   C43   S    
C37   C38   A    
O1    Zn1   S    
C52   H23   S    
C38   C39   A    
C25   C26   D    
C35   C36   A    
C31   O10   A    
O11   Zn2   S    
C29   C30   S    
C14   C15   A    
C27   H4    S    
C7    I5    S    
O5    Zn2   S    
C33   C34   A    
O6    Zn1   S    
C39   H12   S    
C1    O1    A    
C12   O6    A    
C60   H30   S    
C12   O7    A    
C12   C14   S    
O10   Zn1   S    
C10   N2    A    
C33   N1    A    
C32   N1    A    
C22   C24   A    
C9    O3    S    
C15   H9    S    
C3    C4    A    
C40   H13   S    
O7    Zn2   S    
O8    Zn1   S    
C11   C17   A    
C43   C44   A    
C24   N1    S    
C25   I2    S    
C46   H18   S    
N3    I3    S    
C45   C46   A    
C6    C10   A    
H7    N4    S    
C6    C7    A    
C25   C27   S    
C56   C57   A    
C2    C3    A    
C38   H11   S    
C32   O12   S    
C41   C42   A    
C11   C13   A    
C2    H1    S    
C41   H14   S    
C51   H22   S    
C22   H3    S    
C5    C35   A    
C49   C50   A    
C19   I1    S    
C1    O5    A    
C39   C40   A    
C10   O4    S    
C44   C45   A    
C4    C5    A    
C20   C21   A    
C9    N2    A    
C47   C48   A    
C27   C28   D    
C55   C60   A    
C30   H6    S    
C11   I6    S    
C4    C9    A    
C53   H24   S    
C50   H21   S    
C13   H8    S    
C47   H19   S    
C20   C31   S    
