data_mof_unit_49171.cif
_audit_creation_date              2012-12-10T19:48:04-0500
_audit_creation_method            fapswitch 2.2
_symmetry_space_group_name_H-M    P1
_symmetry_Int_Tables_number       1
_space_group_crystal_system       triclinic
_cell_length_a                    14.885961
_cell_length_b                    14.140617
_cell_length_c                    10.653019
_cell_angle_alpha                 89.989086
_cell_angle_beta                  90.114367
_cell_angle_gamma                 90.323346
_cell_volume                      2242.38484667

loop_
_atom_site_label
_atom_site_type_symbol
_atom_type_description
_atom_site_fract_x
_atom_site_fract_y
_atom_site_fract_z
_atom_type_partial_charge
C1    C     C_R   0.327295 0.499700 0.504580 0.897272
C2    C     C_R   0.441223 0.795164 0.574447 -0.043936
C3    C     C_R   0.557831 0.204795 0.576184 -0.045945
C4    C     C_R   0.558794 0.795944 0.425655 -0.044583
C5    C     C_R   0.499974 0.053270 0.500143 0.001852
C6    C     C_R   0.499998 0.946721 0.500139 0.001234
C7    C     C_R   0.499937 0.499995 0.260646 0.868936
C8    C     C_R   0.500058 0.500004 0.739346 0.871705
C9    C     C_R   0.336620 0.532729 0.129953 -0.132907
C10   C     C_R   0.663296 0.466854 0.870003 -0.137930
C11   C     C_R   0.336878 0.533627 0.868973 -0.142071
C12   C     C_R   0.672704 0.500307 0.495386 0.897549
C13   C     C_R   0.663201 0.466813 0.130984 -0.137623
C14   C     C_R   0.257045 0.548845 0.064361 -0.076488
C15   C     C_R   0.742905 0.450919 0.935588 -0.077483
C16   C     C_R   0.257187 0.549361 0.933900 -0.079239
C17   C     C_R   0.742861 0.450908 0.066051 -0.078207
C18   C     C_R   0.418494 0.517191 0.934213 0.074126
C19   C     C_R   0.581526 0.482936 0.065756 0.072896
C20   C     C_R   0.418405 0.516931 0.065256 0.071011
C21   C     C_R   0.581568 0.482948 0.934713 0.072368
C22   C     C_R   0.500041 0.500052 0.871549 -0.160952
C23   C     C_R   0.046180 0.498702 0.526542 -0.077504
C24   C     C_R   0.499955 0.499948 0.128429 -0.163253
C25   C     C_R   0.093414 0.582022 0.559008 0.435621
C26   C     C_R   0.906535 0.418067 0.440398 0.434522
C27   C     C_R   0.907551 0.587250 0.455142 0.436573
C28   C     C_R   0.092373 0.412836 0.544031 0.435736
C29   C     C_R   0.186050 0.583173 0.547515 -0.236452
C30   C     C_R   0.813931 0.416860 0.452279 -0.238440
C31   C     C_R   0.814940 0.587285 0.466780 -0.206664
C32   C     C_R   0.184984 0.412772 0.532530 -0.207408
C33   C     C_R   0.231103 0.498861 0.521910 -0.211465
C34   C     C_R   0.953778 0.501412 0.472665 -0.076891
C35   C     C_R   0.768876 0.501180 0.477816 -0.212184
C36   C     C_R   0.440818 0.104458 0.422254 0.341463
C37   C     C_R   0.439873 0.894771 0.576179 0.341864
C38   C     C_R   0.559136 0.105185 0.577975 0.341430
C39   C     C_R   0.560132 0.895569 0.424047 0.341668
C40   C     C_R   0.442140 0.204084 0.423915 -0.046321
Cl1   Cl    Cl    0.044174 0.673886 0.646962 -0.470871
Cl2   Cl    Cl    0.955671 0.326274 0.352191 -0.471827
Cl3   Cl    Cl    0.957992 0.687265 0.384693 -0.451812
Cl4   Cl    Cl    0.041894 0.312804 0.614397 -0.451685
Cl5   Cl    Cl    0.364882 0.046085 0.321535 -0.456808
Cl6   Cl    Cl    0.362667 0.952141 0.674660 -0.455937
Cl7   Cl    Cl    0.635052 0.047759 0.678792 -0.457617
Cl8   Cl    Cl    0.637342 0.953978 0.325662 -0.455301
H1    H     H_    0.804672 0.438760 0.117185 0.177303
H2    H     H_    0.777350 0.351585 0.435586 0.217302
H3    H     H_    0.779246 0.653754 0.461809 0.214093
H4    H     H_    0.220635 0.346272 0.537327 0.217378
H5    H     H_    0.396732 0.243127 0.364042 0.181856
H6    H     H_    0.395107 0.755535 0.632970 0.174387
H7    H     H_    0.603215 0.244398 0.636061 0.179991
H8    H     H_    0.604944 0.756927 0.367146 0.178041
H9    H     H_    0.195419 0.561723 0.882760 0.177295
H10   H     H_    0.804775 0.438793 0.884980 0.173670
H11   H     H_    0.195134 0.560769 0.114961 0.173714
H12   H     H_    0.333213 0.532474 0.231336 0.136707
H13   H     H_    0.666640 0.466751 0.768613 0.134417
H14   H     H_    0.333718 0.534250 0.767669 0.127847
H15   H     H_    0.666428 0.466558 0.232284 0.130292
H16   H     H_    0.222647 0.648402 0.564504 0.211891
N1    N     N_R   0.500000 0.252470 0.500000 -0.146166
N2    N     N_R   0.500000 0.747530 0.500000 -0.144491
O1    O     O_R   0.369060 0.579480 0.500010 -0.623842
O2    O     O_R   0.630940 0.420520 0.499990 -0.624654
O3    O     O_R   0.630940 0.579480 0.499990 -0.615137
O4    O     O_R   0.369060 0.420520 0.500010 -0.615633
O5    O     O_R   0.499990 0.579480 0.316780 -0.607473
O6    O     O_R   0.500010 0.420520 0.683220 -0.607914
O7    O     O_R   0.500010 0.579480 0.683220 -0.607483
O8    O     O_R   0.499990 0.420520 0.316780 -0.608750
Zn1   Zn    Zn3+2 0.500000 0.606140 0.500000 0.982687
Zn2   Zn    Zn3+2 0.500000 0.393860 0.500000 0.980650

loop_
_geom_bond_atom_site_label_1
_geom_bond_atom_site_label_2
_ccdc_geom_bond_type
C4    N2    A    
C12   O3    A    
C11   C18   A    
O6    Zn2   S    
C11   H14   S    
C1    C33   S    
C14   H11   S    
C12   O2    A    
N1    Zn2   S    
O8    Zn2   S    
C30   C35   A    
C19   C21   A    
C10   C15   A    
C7    O5    A    
C5    C6    S    
C7    C24   S    
C5    C36   A    
C29   C33   A    
C32   H4    S    
C3    H7    S    
C26   C34   A    
C20   C24   A    
C3    C38   A    
C8    C22   S    
C14   C16   A    
C30   H2    S    
C29   H16   S    
C27   C34   A    
C5    C38   A    
C4    H8    S    
O7    Zn1   S    
C3    N1    A    
C7    O8    A    
C10   C21   A    
C25   C29   A    
C8    O6    A    
C13   C19   A    
C27   C31   A    
C36   C40   A    
C2    H6    S    
C25   Cl1   S    
C28   Cl4   S    
C9    C14   A    
C11   C16   A    
C9    C20   A    
C13   H15   S    
C4    C39   A    
C28   C32   A    
C23   C34   S    
C6    C37   A    
C36   Cl5   S    
C23   C28   A    
C12   C35   S    
C38   Cl7   S    
C26   C30   A    
C40   N1    A    
O4    Zn2   S    
C15   H10   S    
C31   C35   A    
C10   H13   S    
O1    Zn1   S    
C17   H1    S    
C26   Cl2   S    
C15   C17   A    
C18   C22   A    
C31   H3    S    
C2    N2    A    
O2    Zn2   S    
C1    O4    A    
C13   C17   A    
C9    H12   S    
C32   C33   A    
C19   C24   A    
O5    Zn1   S    
C2    C37   A    
N2    Zn1   S    
C8    O7    A    
C1    O1    A    
O3    Zn1   S    
C18   C20   A    
C16   H9    S    
C23   C25   A    
C27   Cl3   S    
C40   H5    S    
C6    C39   A    
C37   Cl6   S    
C21   C22   A    
C39   Cl8   S    
