data_mof_unit_55148.cif
_audit_creation_date              2012-12-11T16:35:13-0500
_audit_creation_method            fapswitch 2.2
_symmetry_space_group_name_H-M    P1
_symmetry_Int_Tables_number       1
_space_group_crystal_system       triclinic
_cell_length_a                    6.927791
_cell_length_b                    17.587792
_cell_length_c                    19.600809
_cell_angle_alpha                 109.053994
_cell_angle_beta                  90.163496
_cell_angle_gamma                 90.401161
_cell_volume                      2257.31390815

loop_
_atom_site_label
_atom_site_type_symbol
_atom_type_description
_atom_site_fract_x
_atom_site_fract_y
_atom_site_fract_z
_atom_type_partial_charge
O1    O     O_R   0.505700 0.440210 0.561730 -0.525646
O2    O     O_R   0.169350 0.406300 0.412660 -0.535745
O3    O     O_R   0.005650 0.559790 0.438270 -0.542301
C1    C     C_R   0.339978 0.380318 0.386947 0.709685
O4    O     O_R   0.175560 0.430650 0.559600 -0.549483
O5    O     O_R   0.011900 0.584320 0.586250 -0.536943
C2    C     C_R   0.344124 0.417420 0.582646 0.711644
O6    O     O_R   0.499450 0.415680 0.413750 -0.529251
O7    O     O_3   0.341370 0.550390 0.508570 -0.373920
V1    V     V_3+5 0.063940 0.490650 0.498410 1.439431
O8    O     O_R   0.682570 0.593700 0.587340 -0.542547
C3    C     C_R   0.852115 0.616607 0.615045 0.692732
O9    O     O_R   0.676370 0.569350 0.440400 -0.547674
C4    C     C_R   0.845267 0.584361 0.418790 0.679996
V2    V     V_3+5 0.564750 0.509350 0.501590 1.442971
O10   O     O_3   0.837190 0.449610 0.491430 -0.354667
C5    C     C_R   0.038737 0.680509 0.284677 -0.145762
H1    H     H_    0.171304 0.678739 0.255135 0.101035
C6    C     C_R   0.027476 0.635357 0.331606 -0.153469
H2    H     H_    0.152333 0.601132 0.337287 0.115435
C7    C     C_R   0.856688 0.633234 0.369630 -0.048747
C8    C     C_R   0.697597 0.677767 0.359715 -0.174090
H3    H     H_    0.564114 0.677831 0.388369 0.120959
C9    C     C_R   0.709647 0.723853 0.313485 -0.144992
H4    H     H_    0.585444 0.758835 0.308796 0.100569
C10   C     C_R   0.880308 0.725791 0.275023 0.090489
C11   C     C_R   0.729513 0.785086 0.186260 -0.144369
H5    H     H_    0.592570 0.757240 0.190909 0.100559
C12   C     C_R   0.740884 0.830831 0.139815 -0.160269
C13   C     C_R   0.916586 0.866242 0.129819 -0.049191
C14   C     C_R   0.080476 0.855177 0.167875 -0.166521
H6    H     H_    0.217690 0.882247 0.162046 0.112767
C15   C     C_R   0.068535 0.810415 0.215196 -0.145436
H7    H     H_    0.196906 0.805229 0.244912 0.097111
C16   C     C_R   0.892924 0.774378 0.224986 0.092500
H8    H     H_    0.069018 0.630218 0.926191 0.122202
C17   C     C_R   0.808887 0.908585 0.751422 -0.138837
C18   C     C_R   0.752092 0.922700 0.688407 -0.121293
C19   C     C_R   0.733210 0.859002 0.624226 -0.117197
C20   C     C_R   0.770651 0.780675 0.622576 -0.137047
C21   C     C_R   0.826681 0.764308 0.685847 0.067041
C22   C     C_R   0.846536 0.829626 0.751638 0.068648
C23   C     C_R   0.865489 0.684650 0.684145 -0.175933
C24   C     C_R   0.922506 0.670283 0.748468 0.061121
C25   C     C_R   0.943257 0.735669 0.814149 0.070157
C26   C     C_R   0.905838 0.815384 0.815744 -0.180912
C27   C     C_R   0.955228 0.591095 0.749085 -0.189821
C28   C     C_R   0.007646 0.576766 0.812650 0.015567
C29   C     C_R   0.029061 0.640889 0.876610 -0.155259
C30   C     C_R   0.997050 0.719337 0.877611 -0.151582
H9    H     H_    0.823986 0.960348 0.799686 0.100387
H10   H     H_    0.723606 0.983490 0.689346 0.117360
H11   H     H_    0.690079 0.870343 0.575319 0.115342
H12   H     H_    0.755670 0.733359 0.571136 0.099419
H13   H     H_    0.013074 0.766794 0.928915 0.107806
C31   C     C_R   0.369503 0.207000 0.378733 -0.041947
C32   C     C_R   0.323766 0.128035 0.374689 -0.132634
C33   C     C_R   0.297728 0.068930 0.308208 -0.136065
C34   C     C_R   0.329754 0.087079 0.245302 -0.141204
C35   C     C_R   0.367743 0.167132 0.247667 0.069910
C36   C     C_R   0.363549 0.230008 0.315584 0.026891
C37   C     C_R   0.416038 0.184534 0.184113 -0.176306
C38   C     C_R   0.428898 0.265759 0.186530 0.065997
C39   C     C_R   0.394573 0.329297 0.252507 0.075549
C40   C     C_R   0.360600 0.311999 0.317523 -0.186689
C41   C     C_R   0.468937 0.285198 0.123445 -0.139028
C42   C     C_R   0.473846 0.364955 0.124971 -0.110247
C43   C     C_R   0.438108 0.426884 0.188906 -0.120423
C44   C     C_R   0.398631 0.409632 0.251997 -0.137055
H14   H     H_    0.324378 0.110561 0.422869 0.118430
H15   H     H_    0.268094 0.007446 0.305413 0.121705
H16   H     H_    0.495720 0.239034 0.072263 0.096757
H17   H     H_    0.504444 0.378740 0.076135 0.121776
H18   H     H_    0.371668 0.460051 0.300225 0.097362
C45   C     C_R   0.534916 0.324938 0.719607 -0.136878
H19   H     H_    0.665121 0.329444 0.751393 0.123317
C46   C     C_R   0.522821 0.370733 0.673234 -0.121660
H20   H     H_    0.644917 0.408235 0.670054 0.118671
C47   C     C_R   0.354764 0.369057 0.632274 -0.041379
C48   C     C_R   0.199200 0.320164 0.638709 -0.152303
H21   H     H_    0.068142 0.317040 0.607618 0.129796
C49   C     C_R   0.212253 0.273432 0.684369 -0.100600
H22   H     H_    0.090993 0.235180 0.686571 0.097097
C50   C     C_R   0.380061 0.275353 0.725809 0.094201
C51   C     C_R   0.228799 0.213010 0.812356 -0.128749
H23   H     H_    0.091057 0.238801 0.806226 0.117678
C52   C     C_R   0.240354 0.167142 0.858688 -0.166360
C53   C     C_R   0.416901 0.134124 0.870353 -0.050688
C54   C     C_R   0.581570 0.147929 0.834115 -0.164176
H24   H     H_    0.719498 0.122782 0.841193 0.113235
C55   C     C_R   0.569624 0.193128 0.787116 -0.144972
H25   H     H_    0.698710 0.200772 0.758971 0.099966
C56   C     C_R   0.393019 0.226515 0.775582 0.090630
O11   O     O_R   0.273230 0.084330 0.086440 -0.537214
O12   O     O_R   0.596660 0.069390 0.940470 -0.546883
O13   O     O_R   0.760270 0.915710 0.913690 -0.534973
C57   C     C_R   0.427607 0.084632 0.919084 0.684329
O14   O     O_R   0.603330 0.093680 0.087390 -0.535065
O15   O     O_R   0.766990 0.940160 0.061660 -0.539467
C58   C     C_R   0.433570 0.117475 0.114459 0.698192
O16   O     O_R   0.266510 0.059870 0.938470 -0.539722
O17   O     O_3   0.431050 0.949630 0.991510 -0.367657
V3    V     V_3+5 0.708490 0.009340 0.001580 1.416954
O18   O     O_R   0.096270 0.930570 0.059390 -0.547068
C59   C     C_R   0.927468 0.915438 0.080945 0.684688
O19   O     O_R   0.089600 0.906290 0.912460 -0.538070
C60   C     C_R   0.919912 0.883483 0.884779 0.698650
V4    V     V_3+5 0.207670 0.990600 0.998190 1.415193
O20   O     O_3   0.935250 0.050360 0.008480 -0.367557
H26   H     H_    0.937742 0.539618 0.700612 0.101763
C61   C     C_1   0.036198 0.495716 0.812576 0.278982
N1    N     N_1   0.058714 0.430671 0.812786 -0.369643
H27   H     H_    0.441151 0.488726 0.189695 0.116460
C62   C     C_1   0.483772 0.251188 0.440451 0.256901
N2    N     N_1   0.583080 0.283284 0.488905 -0.346267
H28   H     H_    0.324937 0.037503 0.195101 0.108547
H29   H     H_    0.110642 0.158182 0.885927 0.123276
H30   H     H_    0.611908 0.837709 0.111083 0.122020

loop_
_geom_bond_atom_site_label_1
_geom_bond_atom_site_label_2
_ccdc_geom_bond_type
O15   V3    S    
C52   C53   A    
C11   C12   A    
C21   C22   A    
C61   N1    T    
C1    O6    A    
C62   N2    T    
C19   H11   S    
C51   H23   S    
C31   C32   A    
O11   V4    S    
C12   C13   A    
C5    C10   A    
C4    C7    S    
C6    C7    A    
C9    C10   A    
C52   H29   S    
C3    C23   S    
O5    C3    A    
C13   C14   A    
C17   H9    S    
C33   H15   S    
C18   H10   S    
O19   C60   A    
O14   V3    S    
V4    O20   S    
C35   C37   A    
C22   C26   A    
C17   C22   A    
C1    C40   S    
C49   C50   A    
C5    C6    A    
O8    V2    S    
C41   H16   S    
C27   C28   A    
C34   H28   S    
C14   C15   A    
O17   V4    S    
O1    V2    S    
C32   H14   S    
C54   C55   A    
O7    V1    S    
C53   C57   S    
C24   C27   A    
C46   H20   S    
C43   H27   S    
O16   V4    S    
C46   C47   A    
C41   C42   A    
C38   C41   A    
C34   C35   A    
O9    C4    A    
C21   C23   A    
C51   C56   A    
O18   C59   A    
O12   V3    S    
C15   H7    S    
C51   C52   A    
O15   C59   A    
C42   C43   A    
C9    H4    S    
C48   C49   A    
C55   H25   S    
O4    C2    A    
C43   C44   A    
C11   C16   A    
C33   C34   A    
C25   C26   A    
C38   C39   A    
C35   C36   A    
O2    C1    A    
C45   H19   S    
C17   C18   A    
C55   C56   A    
C14   H6    S    
O11   C58   A    
C26   C60   S    
C37   C38   A    
C5    H1    S    
C44   H18   S    
C39   C44   A    
C45   C46   A    
O3    C4    A    
C42   H17   S    
C28   C29   A    
O13   C60   A    
C49   H22   S    
O6    V2    S    
C20   H12   S    
O9    V2    S    
C23   C24   A    
C37   C58   S    
O2    V1    S    
O18   V4    S    
C24   C25   A    
C2    C47   S    
C20   C21   A    
O1    C2    A    
C8    H3    S    
C48   H21   S    
O5    V1    S    
O8    C3    A    
O12   C57   A    
C27   H26   S    
C12   H30   S    
O14   C58   A    
C30   H13   S    
V3    O20   S    
C39   C40   A    
C6    H2    S    
O7    V2    S    
O4    V1    S    
C13   C59   S    
O3    V1    S    
V1    O10   S    
C32   C33   A    
C18   C19   A    
O19   V4    S    
C25   C30   A    
C15   C16   A    
C8    C9    A    
C50   C56   S    
O17   V3    S    
C45   C50   A    
C47   C48   A    
C19   C20   A    
C36   C40   A    
C10   C16   S    
C28   C61   S    
C53   C54   A    
C29   C30   A    
O13   V3    S    
C11   H5    S    
C31   C62   S    
C31   C36   A    
C54   H24   S    
C7    C8    A    
C57   O16   A    
H8    C29   S    
V2    O10   S    
