data_mof_unit_18426.cif
_audit_creation_date              2012-12-10T19:43:23-0500
_audit_creation_method            fapswitch 2.2
_symmetry_space_group_name_H-M    P1
_symmetry_Int_Tables_number       1
_space_group_crystal_system       triclinic
_cell_length_a                    11.086338
_cell_length_b                    10.974524
_cell_length_c                    9.927923
_cell_angle_alpha                 86.26638
_cell_angle_beta                  91.171112
_cell_angle_gamma                 100.215181
_cell_volume                      1186.18487147

loop_
_atom_site_label
_atom_site_type_symbol
_atom_type_description
_atom_site_fract_x
_atom_site_fract_y
_atom_site_fract_z
_atom_type_partial_charge
C1    C     C_R   0.505590 0.263158 0.504003 0.784962
C2    C     C_R   0.229322 0.568927 0.991945 -0.206416
C3    C     C_R   0.935602 0.514977 0.381484 0.563241
C4    C     C_R   0.871369 0.496917 0.502734 -0.294799
C5    C     C_R   0.940062 0.487087 0.621998 -0.195497
C6    C     C_R   0.067620 0.501668 0.617430 0.644069
C7    C     C_R   0.130680 0.511238 0.496229 -0.235251
C8    C     C_R   0.063265 0.526402 0.377029 -0.136518
C9    C     C_R   0.911123 0.566715 0.840554 -0.130951
C10   C     C_R   0.863094 0.552602 0.968560 0.668015
C11   C     C_R   0.782159 0.444434 0.010368 -0.203099
C12   C     C_R   0.263809 0.503473 0.498436 0.898540
C13   C     C_R   0.752884 0.349046 0.923672 -0.224162
C14   C     C_R   0.806828 0.359344 0.796908 0.025054
C15   C     C_R   0.884362 0.470103 0.754859 0.130197
C16   C     C_R   0.460771 0.072547 0.749438 0.551931
C17   C     C_R   0.380293 0.996385 0.839971 -0.434380
C18   C     C_R   0.306276 0.890676 0.794792 0.606851
C19   C     C_R   0.335196 0.845450 0.674075 0.545904
C20   C     C_R   0.426178 0.917097 0.590817 -0.266606
C21   C     C_R   0.464306 0.042709 0.615833 -0.073756
C22   C     C_R   0.514654 0.128088 0.510031 -0.097144
C23   C     C_R   0.494784 0.735733 0.495886 0.869224
C24   C     C_R   0.557360 0.079030 0.396610 -0.275766
C25   C     C_R   0.547562 0.950849 0.389261 0.559534
C26   C     C_R   0.483913 0.868272 0.487724 -0.102555
C27   C     C_R   0.657247 0.708577 0.116026 0.344811
C28   C     C_R   0.694317 0.813068 0.023293 0.212282
C29   C     C_R   0.698273 0.796094 0.887237 0.503013
C30   C     C_R   0.648284 0.684402 0.839848 -0.248317
C31   C     C_R   0.571218 0.594585 0.918689 0.022086
C32   C     C_R   0.574109 0.598797 0.066539 0.048376
C33   C     C_R   0.431844 0.407252 0.078441 0.239488
C34   C     C_R   0.736688 0.498123 0.501365 0.812690
C35   C     C_R   0.435629 0.405969 0.931866 0.320269
C36   C     C_R   0.269056 0.659178 0.083328 0.544801
C37   C     C_R   0.210158 0.655146 0.207791 0.242272
C38   C     C_R   0.120305 0.549512 0.244130 0.052998
C39   C     C_R   0.084145 0.458668 0.152848 -0.248319
C40   C     C_R   0.134094 0.470489 0.026352 0.577642
Cu1   Cu    Cu3+1 0.499990 0.499990 0.640660 1.003543
Cu2   Cu    Cu3+1 0.500010 0.500010 0.359340 0.956880
H1    H     H_    0.275339 0.575523 0.896459 0.256561
H2    H     H_    0.738088 0.434365 0.107249 0.226125
H3    H     H_    0.686605 0.269224 0.954953 0.197458
H4    H     H_    0.785112 0.284141 0.730112 0.170922
H5    H     H_    0.601727 0.140137 0.315365 0.172125
H6    H     H_    0.374022 0.018210 0.943691 0.194845
H7    H     H_    0.670556 0.671036 0.738462 0.222980
H8    H     H_    0.014948 0.378137 0.179388 0.195096
H9    H     H_    0.971072 0.652511 0.808783 0.216712
N1    N     N_R   0.501190 0.501210 0.147910 -0.233740
N2    N     N_R   0.501230 0.501290 0.852040 -0.198774
O1    O     O_R   0.499990 0.319640 0.618810 -0.495730
O2    O     O_R   0.500000 0.319660 0.381240 -0.588193
O3    O     O_R   0.319640 0.500000 0.618780 -0.501530
O4    O     O_R   0.319650 0.500020 0.381210 -0.638293
O5    O     O_R   0.500000 0.680340 0.618760 -0.570590
O6    O     O_R   0.500010 0.680360 0.381190 -0.584722
O7    O     O_R   0.680350 0.499980 0.618790 -0.615834
O8    O     O_R   0.680360 0.500000 0.381220 -0.529478
F1    F     F_    0.550221 0.160773 0.794500 -0.702896
F2    F     F_    0.211422 0.829426 0.870148 -0.615222
F3    F     F_    0.270496 0.737018 0.635249 -0.629197
F4    F     F_    0.599142 0.907136 0.285563 -0.694777
N3    N     N_2   0.342226 0.317407 0.149291 -0.426699
H10   H     H_    0.298942 0.348291 0.227040 0.282931
C41   C     C_3   0.361856 0.190468 0.171742 -0.665675
H11   H     H_    0.344023 0.157512 0.278706 0.227620
H12   H     H_    0.456755 0.181285 0.146111 0.220471
H13   H     H_    0.294816 0.129047 0.110999 0.223267
F5    F     F_    0.365523 0.750279 0.050622 -0.672837
N4    N     N_2   0.728240 0.704422 0.239136 -0.301273
H14   H     H_    0.681460 0.697215 0.324740 0.298471
C42   C     C_3   0.840845 0.790248 0.266483 -0.488401
H15   H     H_    0.888417 0.751430 0.353674 0.188598
H16   H     H_    0.820511 0.879665 0.297924 0.231591
H17   H     H_    0.904307 0.807343 0.180521 0.271543
N5    N     N_2   0.746656 0.931471 0.067918 -0.386122
H18   H     H_    0.837202 0.959396 0.040706 0.270320
C43   C     C_3   0.676527 0.027902 0.033551 -0.481914
H19   H     H_    0.706309 0.105159 0.100122 0.196378
H20   H     H_    0.576917 0.993836 0.048493 0.264570
H21   H     H_    0.693602 0.061727 0.926932 0.272830
F6    F     F_    0.758110 0.886626 0.800621 -0.665388
N6    N     N_2   0.389877 0.294256 0.870750 -0.371179
H22   H     H_    0.414393 0.221486 0.926668 0.274113
C44   C     C_3   0.262573 0.266768 0.832620 -0.530532
H23   H     H_    0.206005 0.229017 0.921618 0.259474
H24   H     H_    0.249805 0.195104 0.757319 0.185108
H25   H     H_    0.232425 0.348936 0.785116 0.313316
N7    N     N_2   0.250525 0.749897 0.298866 -0.390573
H26   H     H_    0.332757 0.805255 0.272796 0.306138
C45   C     C_3   0.161335 0.823843 0.333071 -0.616800
H27   H     H_    0.206882 0.903026 0.390663 0.212951
H28   H     H_    0.090194 0.768399 0.399035 0.242692
H29   H     H_    0.119977 0.861546 0.240101 0.229617
F7    F     F_    0.086408 0.384969 0.939513 -0.662960
F8    F     F_    0.874508 0.524058 0.264794 -0.635204
F9    F     F_    0.130784 0.515782 0.733141 -0.626373
F10   F     F_    0.896193 0.646023 0.049381 -0.659052

loop_
_geom_bond_atom_site_label_1
_geom_bond_atom_site_label_2
_ccdc_geom_bond_type
C23   O5    A    
N3    C41   S    
C16   C21   A    
C35   N2    A    
N4    H14   S    
C19   C20   A    
C9    H9    S    
C17   H6    S    
C1    O1    A    
C43   H19   S    
C7    C8    A    
C14   H4    S    
C33   N1    A    
C23   O6    A    
C37   C38   A    
C8    C38   S    
C36   C37   A    
Cu1   O5    S    
C40   F7    S    
C5    C6    A    
C35   N6    S    
N6    C44   S    
C18   F2    S    
C18   C19   A    
Cu1   Cu2   S    
C23   C26   S    
C28   N5    S    
C32   N1    A    
C41   H11   S    
C13   C14   A    
C9    C10   A    
C19   F3    S    
C29   F6    S    
C44   H23   S    
N3    H10   S    
C1    C22   S    
C21   C22   A    
C34   O7    A    
N4    C42   S    
C16   F1    S    
Cu2   O4    S    
C43   H20   S    
C33   N3    S    
C7    C12   S    
C4    C34   S    
C25   F4    S    
C24   C25   A    
C3    C8    A    
C39   C40   A    
N5    C43   S    
N6    H22   S    
C16   C17   A    
C45   H29   S    
C25   C26   A    
C34   O8    A    
C6    F9    S    
C42   H15   S    
Cu1   O3    S    
C29   C30   A    
C2    C40   A    
Cu2   O2    S    
C31   C32   A    
C44   H25   S    
C2    H1    S    
N7    C45   S    
C17   C18   A    
C11   H2    S    
C31   N2    A    
C45   H28   S    
C42   H16   S    
Cu2   O8    S    
Cu1   N2    S    
C12   O3    A    
C12   O4    A    
C30   H7    S    
C44   H24   S    
C22   C24   A    
C3    C4    A    
C43   H21   S    
C2    C36   A    
C28   C29   A    
C37   N7    S    
C27   C32   A    
C38   C39   A    
C24   H5    S    
C10   F10   S    
Cu1   O7    S    
C4    C5    A    
Cu2   O6    S    
C6    C7    A    
C1    O2    A    
C13   H3    S    
C11   C13   A    
C30   C31   A    
C20   C26   A    
C41   H13   S    
N7    H26   S    
C33   C35   A    
C9    C15   A    
C45   H27   S    
C42   H17   S    
Cu1   O1    S    
C5    C15   S    
C10   C11   A    
N5    H18   S    
C3    F8    S    
C39   H8    S    
C20   C21   A    
C41   H12   S    
C27   C28   A    
C14   C15   A    
C27   N4    S    
C36   F5    S    
Cu2   N1    S    
