data_mof_unit_22976.cif
_audit_creation_date              2012-12-11T14:50:53-0500
_audit_creation_method            fapswitch 2.2
_symmetry_space_group_name_H-M    P1
_symmetry_Int_Tables_number       1
_space_group_crystal_system       triclinic
_cell_length_a                    10.931082
_cell_length_b                    11.082559
_cell_length_c                    18.819393
_cell_angle_alpha                 89.445856
_cell_angle_beta                  88.961247
_cell_angle_gamma                 60.35057
_cell_volume                      1981.03109632

loop_
_atom_site_label
_atom_site_type_symbol
_atom_type_description
_atom_site_fract_x
_atom_site_fract_y
_atom_site_fract_z
_atom_type_partial_charge
C1    C     C_R   0.232767 0.647344 0.608072 0.594159
C2    C     C_R   0.532683 0.245637 0.806194 -0.003847
C3    C     C_R   0.514926 0.248367 0.732470 -0.021477
C4    C     C_R   0.651536 0.619618 0.602079 0.566809
C5    C     C_R   0.628117 0.232233 0.686291 0.016626
C6    C     C_R   0.268419 0.589990 0.733964 -0.113291
C7    C     C_R   0.229815 0.619971 0.804770 -0.084396
C8    C     C_R   0.096829 0.725309 0.823102 0.009387
C9    C     C_R   0.007674 0.811927 0.770003 -0.156542
C10   C     C_R   0.044528 0.780785 0.697781 0.077275
C11   C     C_R   0.176126 0.667879 0.680201 0.118195
C12   C     C_3   0.682990 0.539203 0.802997 0.182290
C13   C     C_R   0.699652 0.526699 0.267776 0.089836
C14   C     C_R   0.696581 0.549195 0.195261 -0.085866
C15   C     C_R   0.653544 0.680971 0.169209 0.032369
C16   C     C_R   0.599676 0.276383 0.611206 0.563030
C17   C     C_R   0.603559 0.795004 0.215495 -0.116762
C18   C     C_R   0.600960 0.775035 0.288391 -0.158370
C19   C     C_R   0.651366 0.640824 0.315082 0.050834
C20   C     C_R   0.514823 0.256947 0.278947 -0.108051
C21   C     C_R   0.526028 0.234852 0.206626 0.030557
C22   C     C_R   0.659267 0.145080 0.177731 -0.007947
C23   C     C_3   0.690528 0.674239 0.814742 0.054264
C24   C     C_R   0.778162 0.075632 0.221680 -0.171420
C25   C     C_R   0.765647 0.098008 0.294034 -0.158034
C26   C     C_R   0.634504 0.190356 0.322161 0.029518
C27   C     C_R   0.223849 0.745694 0.279632 0.031366
C28   C     C_R   0.227373 0.648693 0.399522 0.583016
C29   C     C_R   0.231020 0.723147 0.207235 0.077382
C30   C     C_R   0.156686 0.661895 0.180158 -0.019290
C31   C     C_R   0.103343 0.596555 0.224991 -0.153746
C32   C     C_R   0.119562 0.595171 0.297987 0.002406
C33   C     C_R   0.180280 0.670408 0.326204 -0.026630
C34   C     C_3   0.664664 0.647612 0.678042 -0.027304
C35   C     C_R   0.698834 0.108385 0.898806 0.577324
C36   C     C_R   0.721059 0.687855 0.889576 0.582852
C37   C     C_R   0.052747 0.745955 0.897616 0.546211
C38   C     C_R   0.676739 0.102256 0.104829 0.581763
C39   C     C_R   0.695350 0.692363 0.097627 0.567496
C40   C     C_R   0.640996 0.618444 0.390717 0.587560
C41   C     C_R   0.094527 0.707593 0.111411 0.586909
C42   C     C_R   0.616461 0.230092 0.395224 0.567646
C43   C     C_3   0.555534 0.809828 0.786524 -0.059831
C44   C     C_3   0.534124 0.790199 0.705408 0.094400
C45   C     C_3   0.805708 0.646299 0.690865 -0.107905
C46   C     C_3   0.818030 0.663418 0.770966 -0.266530
C47   C     C_2   0.937322 0.523115 0.659994 0.607323
C48   C     C_2   0.409693 0.307281 0.858149 0.578632
C49   C     C_2   0.383080 0.254241 0.707222 0.656419
C50   C     C_2   0.420496 0.867994 0.832881 0.596357
C51   C     C_2   0.397739 0.303283 0.163251 0.582072
C52   C     C_2   0.306184 0.773422 0.158819 0.625926
C53   C     C_2   0.064573 0.521699 0.343086 0.587600
C54   C     C_2   0.522806 0.911410 0.660098 0.627099
C55   C     C_3   0.666841 0.526478 0.721838 -0.180887
C56   C     C_R   0.763637 0.187088 0.715060 0.044582
C57   C     C_R   0.782942 0.161878 0.787764 -0.187874
C58   C     C_R   0.670775 0.185679 0.832457 -0.040450
Cr1   Cr    Cr6+3 0.392930 0.397900 0.502230 1.081490
Cr2   Cr    Cr6+3 0.398240 0.708600 0.501260 1.064506
Cr3   Cr    Cr6+3 0.708800 0.393470 0.496460 1.056356
Cr4   Cr    Cr6+3 0.937620 0.938540 0.007640 1.050508
Cr5   Cr    Cr6+3 0.625150 0.937450 0.994520 1.088927
Cr6   Cr    Cr6+3 0.937990 0.625080 0.001190 1.060966
H1    H     H_    0.581887 0.894594 0.790185 0.144683
H2    H     H_    0.562500 0.863212 0.323888 0.143012
H3    H     H_    0.412605 0.330290 0.301331 0.167817
H4    H     H_    0.880840 0.001393 0.200372 0.165449
H5    H     H_    0.857325 0.046370 0.327399 0.135726
H6    H     H_    0.041250 0.553991 0.203590 0.172118
H7    H     H_    0.815480 0.762326 0.778800 0.080652
H8    H     H_    0.801174 0.735938 0.662781 0.186897
H9    H     H_    0.572603 0.518076 0.710451 0.090063
H10   H     H_    0.077749 0.450037 0.578557 0.367325
H11   H     H_    0.978519 0.087520 0.697737 0.238972
H12   H     H_    0.752792 0.428792 0.701651 0.147708
H13   H     H_    0.889721 0.236143 0.653480 0.275495
H14   H     H_    0.337928 0.392660 0.955193 0.373053
H15   H     H_    0.252842 0.174533 0.714465 0.378994
H16   H     H_    0.318176 0.852857 0.919958 0.363502
H17   H     H_    0.850823 0.929994 0.664134 0.286681
H18   H     H_    0.987826 0.908778 0.612364 0.274057
H19   H     H_    0.764266 0.322920 0.250402 0.228091
H20   H     H_    0.855479 0.352258 0.310116 0.261545
H21   H     H_    0.202359 0.334683 0.147272 0.342593
H22   H     H_    0.173930 0.922605 0.334940 0.257594
H23   H     H_    0.920628 0.580478 0.791398 0.215743
H24   H     H_    0.351732 0.802589 0.329887 0.274083
H25   H     H_    0.314361 0.883759 0.700265 0.282442
H26   H     H_    0.392637 0.726833 0.737586 0.228738
H27   H     H_    0.344010 0.928099 0.130241 0.342826
H28   H     H_    0.050129 0.349205 0.358406 0.333900
H29   H     H_    0.422428 0.050530 0.581873 0.349714
H30   H     H_    0.791401 0.357844 0.865657 0.242435
H31   H     H_    0.882414 0.353695 0.791265 0.272125
H32   H     H_    0.549696 0.464090 0.827541 0.216250
H33   H     H_    0.577534 0.541508 0.895796 0.294643
H34   H     H_    0.888091 0.115629 0.809107 0.150296
H35   H     H_    0.374531 0.512931 0.720789 0.086328
H36   H     H_    0.304371 0.566155 0.845867 0.179450
H37   H     H_    0.906185 0.896962 0.784903 0.105907
H38   H     H_    0.736772 0.461953 0.158915 0.141287
H39   H     H_    0.573339 0.897965 0.195657 0.154032
N1    N     N_3   0.885624 0.148300 0.669939 -0.612407
N2    N     N_3   0.947395 0.856401 0.642387 -0.590541
N3    N     N_3   0.753150 0.387385 0.292907 -0.584946
N4    N     N_3   0.256607 0.848989 0.303481 -0.556571
N5    N     N_3   0.403033 0.784809 0.696709 -0.564180
N6    N     N_3   0.812982 0.418536 0.830400 -0.578419
N7    N     N_3   0.560178 0.549025 0.841022 -0.592828
O1    O     O_R   0.507430 0.255570 0.581420 -0.479496
O2    O     O_R   0.837200 0.593290 0.915250 -0.486263
O3    O     O_R   0.065330 0.635370 0.931590 -0.480202
O4    O     O_R   0.280190 0.527390 0.578910 -0.461763
O5    O     O_R   0.068300 0.828790 0.091860 -0.501431
O6    O     O_R   0.798730 0.057480 0.079370 -0.512396
O7    O     O_R   0.584680 0.080480 0.076790 -0.485447
O8    O     O_R   0.626790 0.809640 0.067050 -0.500941
O9    O     O_R   0.816010 0.596460 0.076500 -0.523686
O10   O     O_R   0.045680 0.638310 0.081070 -0.503374
O11   O     O_3   0.833590 0.833690 0.001120 -0.318858
O12   O     O_R   0.524460 0.695920 0.424060 -0.524545
O13   O     O_R   0.260310 0.739740 0.584580 -0.499818
O14   O     O_R   0.532250 0.695150 0.573830 -0.437773
O15   O     O_R   0.744930 0.503430 0.576380 -0.511917
O16   O     O_R   0.699250 0.276390 0.571950 -0.486752
O17   O     O_R   0.499020 0.256400 0.419850 -0.522313
O18   O     O_R   0.272400 0.528160 0.429140 -0.477334
O19   O     O_R   0.251910 0.740570 0.423020 -0.536959
O20   O     O_2   0.992166 0.410068 0.689487 -0.535926
O21   O     O_R   0.994574 0.539891 0.596118 -0.630569
O22   O     O_2   0.294974 0.321042 0.843619 -0.447900
O23   O     O_R   0.736530 0.504260 0.414810 -0.473262
O24   O     O_R   0.426590 0.352898 0.924558 -0.679946
O25   O     O_2   0.302766 0.345302 0.667683 -0.495150
O26   O     O_R   0.345602 0.159054 0.733710 -0.599101
O27   O     O_2   0.319750 0.980429 0.817985 -0.485696
O28   O     O_R   0.411458 0.799152 0.893617 -0.657103
O29   O     O_2   0.395951 0.366153 0.109158 -0.487366
O30   O     O_R   0.280259 0.291848 0.183402 -0.660490
O31   O     O_2   0.375161 0.701509 0.108444 -0.497513
O32   O     O_R   0.292850 0.904394 0.168516 -0.649840
O33   O     O_2   0.004036 0.572259 0.399456 -0.489355
O34   O     O_R   0.691460 0.277160 0.422180 -0.483033
O35   O     O_R   0.082521 0.393934 0.320912 -0.674924
O36   O     O_2   0.604080 0.955724 0.668309 -0.572786
O37   O     O_R   0.418506 0.972596 0.608564 -0.652866
O38   O     O_3   0.499990 0.499990 0.499980 -0.311700
O39   O     O_R   0.089490 0.825610 0.930610 -0.497822
O40   O     O_R   0.818370 0.054540 0.929880 -0.527468
O41   O     O_R   0.605870 0.077310 0.915530 -0.471290
O42   O     O_R   0.646440 0.806700 0.917570 -0.493753

loop_
_geom_bond_atom_site_label_1
_geom_bond_atom_site_label_2
_ccdc_geom_bond_type
Cr4   O39   S    
C27   C29   A    
C20   H3    S    
H22   N4    S    
C1    C11   S    
C12   N7    S    
C3    C49   S    
C50   O27   D    
Cr3   O23   S    
C7    C8    A    
C45   C46   S    
C27   C33   A    
H15   O26   S    
C12   C23   S    
Cr6   O9    S    
C4    O15   A    
C35   C58   S    
C48   O24   S    
Cr3   O38   S    
C28   O19   A    
C30   C31   A    
Cr5   O7    S    
C39   O9    A    
C14   H38   S    
C37   O3    A    
Cr1   O17   S    
Cr6   O11   S    
C22   C38   S    
C23   C43   S    
C56   C57   A    
C4    O14   A    
C18   C19   A    
H24   N4    S    
H18   N2    S    
Cr2   O14   S    
C5    C16   S    
C5    C56   A    
C21   C22   A    
C10   N2    S    
C38   O7    A    
C31   H6    S    
C8    C9    A    
C36   O2    A    
H20   N3    S    
C30   C41   S    
Cr3   O16   S    
C35   O40   A    
C9    C10   A    
C54   O36   D    
H27   O32   S    
C51   O30   S    
C44   N5    S    
C49   O25   D    
C34   C55   S    
C23   C46   S    
H10   O21   S    
C45   H8    S    
C35   O41   A    
C41   O5    A    
C12   N6    S    
Cr5   O11   S    
H17   N2    S    
C45   C47   S    
C4    C34   S    
C7    H36   S    
C13   C19   A    
C47   O20   D    
C34   C44   S    
C24   C25   A    
C56   N1    S    
H31   N6    S    
C6    C11   A    
Cr5   O8    S    
C36   O42   A    
C2    C48   S    
C25   C26   A    
H32   N7    S    
C52   O32   S    
C47   O21   S    
C53   O33   D    
Cr2   O13   S    
C43   C44   S    
C1    O13   A    
Cr4   O6    S    
C29   C30   A    
C38   O6    A    
Cr3   O34   S    
Cr1   O1    S    
C31   C32   A    
C27   N4    S    
C43   H1    S    
C15   C39   S    
C53   O35   S    
C17   C18   A    
C34   C45   S    
Cr2   O12   S    
H14   O24   S    
H21   O30   S    
Cr5   O41   S    
C46   H7    S    
C42   O17   A    
C55   H12   S    
C49   O26   S    
C28   C33   S    
C10   C11   A    
C42   O34   A    
H11   N1    S    
C22   C24   A    
C25   H5    S    
C8    C37   S    
C32   C53   S    
C21   C51   S    
C26   C42   S    
C46   H23   S    
C15   C17   A    
Cr6   O3    S    
Cr4   O40   S    
H28   O35   S    
C37   O39   A    
C13   N3    S    
C3    C5    A    
Cr2   O19   S    
C50   O28   S    
C43   C50   S    
C6    C7    A    
C18   H2    S    
C39   O8    A    
C40   O12   A    
C40   O23   A    
H30   N6    S    
C52   O31   D    
Cr6   O10   S    
H19   N3    S    
C32   C33   A    
C2    C3    A    
Cr1   O18   S    
H26   N5    S    
Cr4   O5    S    
C6    H35   S    
H33   N7    S    
C57   C58   A    
C20   C26   A    
Cr1   O4    S    
H16   O28   S    
C57   H34   S    
H25   N5    S    
H29   O37   S    
Cr1   O38   S    
C41   O10   A    
C17   H39   S    
C2    C58   A    
Cr5   O42   S    
C12   C55   S    
Cr6   O2    S    
C19   C40   S    
C24   H4    S    
C55   H9    S    
C44   C54   S    
C20   C21   A    
C9    H37   S    
C23   C36   S    
C1    O4    A    
C14   C15   A    
C48   O22   D    
H13   N1    S    
Cr3   O15   S    
Cr2   O38   S    
C13   C14   A    
C16   O16   A    
Cr4   O11   S    
C28   O18   A    
C16   O1    A    
C54   O37   S    
C29   C52   S    
C51   O29   D    
