data_mof_unit_60795.cif
_audit_creation_date              2012-12-10T17:54:41-0500
_audit_creation_method            fapswitch 2.2
_symmetry_space_group_name_H-M    P1
_symmetry_Int_Tables_number       1
_space_group_crystal_system       triclinic
_cell_length_a                    18.852263
_cell_length_b                    18.904595
_cell_length_c                    18.686058
_cell_angle_alpha                 109.400733
_cell_angle_beta                  109.244443
_cell_angle_gamma                 109.675399
_cell_volume                      5132.39255479

loop_
_atom_site_label
_atom_site_type_symbol
_atom_type_description
_atom_site_fract_x
_atom_site_fract_y
_atom_site_fract_z
_atom_type_partial_charge
C1    C     C_R   0.119351 0.000844 0.619130 0.803213
C2    C     C_R   0.265906 0.182899 0.514852 -0.061823
C3    C     C_R   0.188500 0.184532 0.502434 -0.166918
C4    C     C_R   0.173388 0.246904 0.486496 0.307555
C5    C     C_R   0.238265 0.311830 0.487233 0.366715
C6    C     C_R   0.314335 0.308988 0.495623 -0.210561
C7    C     C_R   0.180606 0.924391 0.680721 0.103909
C8    C     C_R   0.185234 0.001642 0.687378 -0.113703
C9    C     C_R   0.250379 0.079837 0.765032 -0.322623
C10   C     C_R   0.317199 0.081231 0.829196 0.472968
C11   C     C_R   0.314221 0.002447 0.817674 -0.163686
C12   C     C_R   0.119887 0.118392 0.501109 0.870120
C13   C     C_R   0.242701 0.924657 0.745769 -0.008623
C14   C     C_3   0.240079 0.849588 0.681872 -0.507271
C15   C     C_3   0.171923 0.849567 0.609983 0.230735
C16   C     C_R   0.743847 0.745536 0.425956 0.118299
C17   C     C_R   0.814965 0.817407 0.503910 -0.279201
C18   C     C_R   0.813966 0.832704 0.583080 0.439744
C19   C     C_R   0.749215 0.768338 0.583885 0.293056
C20   C     C_R   0.683382 0.690800 0.504113 -0.258218
C21   C     C_R   0.678637 0.684245 0.425973 0.087752
C22   C     C_3   0.667039 0.611524 0.350634 -0.466885
C23   C     C_R   0.881177 0.999316 0.381345 0.850654
C24   C     C_3   0.739609 0.679111 0.351196 -0.403007
C25   C     C_R   0.729124 0.946060 0.281380 0.064898
C26   C     C_R   0.816529 0.999811 0.314873 -0.087341
C27   C     C_R   0.840044 0.055480 0.282004 -0.196533
C28   C     C_R   0.775264 0.055615 0.217289 -0.198495
C29   C     C_R   0.686230 0.000099 0.185014 -0.070565
C30   C     C_R   0.666667 0.946140 0.219464 -0.016989
C31   C     C_3   0.593692 0.879074 0.216579 -0.523582
C32   C     C_3   0.665284 0.878852 0.287164 0.722103
C33   C     C_R   0.498362 0.616704 0.619181 0.785120
C34   C     C_R   0.882353 0.881600 0.501744 0.889764
C35   C     C_R   0.381224 0.378699 0.497661 0.839215
C36   C     C_R   0.500211 0.381726 0.380930 0.862556
C37   C     C_R   0.618433 0.619436 0.500543 0.819212
C38   C     C_R   0.500304 0.118791 0.119161 0.847260
C39   C     C_R   0.381338 0.000437 0.881641 0.851319
C40   C     C_R   0.501136 0.881495 0.882178 0.846711
C41   C     C_R   0.618838 0.999963 0.118828 0.794780
C42   C     C_R   0.518529 0.761400 0.691452 0.030523
C43   C     C_R   0.499358 0.682104 0.688200 -0.206150
C44   C     C_R   0.495841 0.673851 0.760299 0.296180
C45   C     C_R   0.283535 0.122937 0.535586 -0.227971
C46   C     C_R   0.501263 0.741858 0.827194 0.460587
C47   C     C_R   0.507555 0.816001 0.821056 -0.248368
C48   C     C_R   0.523834 0.827422 0.757116 -0.010065
C49   C     C_3   0.485518 0.857104 0.697703 -0.467075
C50   C     C_3   0.478990 0.783643 0.624664 0.256220
C51   C     C_R   0.425024 0.250939 0.237465 -0.039643
C52   C     C_R   0.502608 0.318575 0.313069 -0.175049
C53   C     C_R   0.582276 0.327459 0.319477 0.484575
C54   C     C_R   0.580363 0.260003 0.254680 -0.308241
C55   C     C_R   0.500937 0.186646 0.185130 -0.113048
C56   C     C_R   0.358162 0.118516 0.542639 0.555763
C57   C     C_R   0.424092 0.185752 0.174852 0.044772
C58   C     C_3   0.341554 0.116788 0.156861 -0.471409
C59   C     C_3   0.342019 0.188603 0.225930 0.245072
C60   C     C_R   0.412749 0.170539 0.523774 -0.211346
C61   C     C_R   0.397959 0.231871 0.506068 -0.157994
C62   C     C_R   0.327023 0.242326 0.506052 0.049052
Cu1   Cu    Cu3+1 0.000020 0.938200 0.438210 0.991189
Cu2   Cu    Cu3+1 0.999980 0.061800 0.561790 1.007999
Cu3   Cu    Cu3+1 0.438170 0.500030 0.438220 1.015145
Cu4   Cu    Cu3+1 0.561770 0.500000 0.561810 0.996887
Cu5   Cu    Cu3+1 0.561810 0.061820 0.000030 0.949649
Cu6   Cu    Cu3+1 0.438190 0.938280 0.000080 0.990346
H1    H     H_    0.213896 0.791174 0.688192 0.182731
H2    H     H_    0.106299 0.790878 0.572242 0.099451
H3    H     H_    0.684325 0.566911 0.368723 0.198616
H4    H     H_    0.602848 0.579416 0.291323 0.213127
H5    H     H_    0.799347 0.673966 0.370129 0.190833
H6    H     H_    0.717339 0.685435 0.291871 0.232973
H7    H     H_    0.907831 0.098634 0.306330 0.170498
H8    H     H_    0.239785 0.078913 0.546169 0.153278
H9    H     H_    0.795042 0.099190 0.193140 0.170573
H10   H     H_    0.556664 0.905756 0.240573 0.206350
H11   H     H_    0.553493 0.818080 0.152458 0.184297
H12   H     H_    0.421855 0.849185 0.689860 0.197035
H13   H     H_    0.533181 0.922340 0.714669 0.167685
H14   H     H_    0.520406 0.804648 0.596652 0.090843
H15   H     H_    0.640122 0.262013 0.260416 0.157488
H16   H     H_    0.287726 0.088222 0.089788 0.183127
H17   H     H_    0.350507 0.068771 0.175000 0.213474
H18   H     H_    0.287776 0.200475 0.199517 0.153469
H19   H     H_    0.467787 0.164213 0.523937 0.157293
H20   H     H_    0.441860 0.269218 0.490641 0.180128
H21   H     H_    0.251623 0.139984 0.774129 0.173551
H22   H     H_    0.302411 0.867372 0.681561 0.198900
O1    O     O_R   0.090180 0.947810 0.537990 -0.557333
O2    O     O_R   0.552150 0.590170 0.642370 -0.597956
O3    O     O_R   0.357600 0.409850 0.447820 -0.525095
O4    O     O_R   0.461980 0.409830 0.552180 -0.620499
O5    O     O_R   0.447790 0.409860 0.357660 -0.598735
O6    O     O_R   0.552170 0.409840 0.462020 -0.554272
O7    O     O_R   0.537960 0.590200 0.447840 -0.587630
O8    O     O_R   0.642340 0.590180 0.552210 -0.559517
O9    O     O_R   0.552220 0.142430 0.090190 -0.581696
O10   O     O_R   0.447830 0.038100 0.090230 -0.591077
O11   O     O_R   0.462030 0.052220 0.909860 -0.578227
O12   O     O_R   0.090150 0.052180 0.642350 -0.592945
O13   O     O_R   0.357640 0.947890 0.909900 -0.584584
O14   O     O_R   0.552170 0.962000 0.909870 -0.594633
O15   O     O_R   0.447780 0.857670 0.909910 -0.544101
O16   O     O_R   0.642360 0.052210 0.090200 -0.603009
O17   O     O_R   0.537970 0.947880 0.090240 -0.574538
O18   O     O_R   0.090190 0.037990 0.447830 -0.592620
O19   O     O_R   0.090170 0.142360 0.552190 -0.556703
O20   O     O_R   0.909850 0.947820 0.357650 -0.590651
O21   O     O_R   0.909820 0.052190 0.462010 -0.561337
O22   O     O_R   0.909830 0.857640 0.447810 -0.598913
O23   O     O_R   0.909810 0.962010 0.552170 -0.562080
O24   O     O_R   0.447770 0.590190 0.538000 -0.531832
O25   O     O_3   0.094211 0.242183 0.469973 -0.734837
H23   H     H_    0.088694 0.283823 0.450679 0.357471
O26   O     O_3   0.202553 0.873808 0.558193 -0.688493
H24   H     H_    0.196189 0.820840 0.515183 0.332631
O27   O     O_3   0.881708 0.906190 0.661030 -0.541736
C63   C     C_3   0.852426 0.964297 0.688429 -0.197292
H25   H     H_    0.819784 0.976028 0.635523 0.145275
H26   H     H_    0.909500 0.027510 0.743340 0.173206
H27   H     H_    0.808295 0.941157 0.712963 0.183657
O28   O     O_3   0.754577 0.782753 0.663496 -0.700579
H28   H     H_    0.697244 0.744851 0.653851 0.319194
O29   O     O_3   0.670399 0.911218 0.368975 -0.716248
H29   H     H_    0.619412 0.865715 0.362965 0.334199
O30   O     O_3   0.667053 0.800776 0.260968 -0.747880
H30   H     H_    0.666107 0.783211 0.204163 0.297230
O31   O     O_3   0.483514 0.600445 0.766997 -0.699499
H31   H     H_    0.469147 0.553145 0.711928 0.320667
O32   O     O_3   0.493075 0.731920 0.894617 -0.527942
C64   C     C_3   0.577022 0.770083 0.965240 -0.231687
H32   H     H_    0.570879 0.761560 0.019227 0.174417
H33   H     H_    0.614757 0.840935 0.990614 0.118218
H34   H     H_    0.612996 0.738024 0.946681 0.175437
O33   O     O_3   0.392684 0.719053 0.562161 -0.685973
H35   H     H_    0.371938 0.740492 0.522419 0.326143
O34   O     O_3   0.374310 0.057746 0.559171 -0.563784
C65   C     C_3   0.388585 0.074710 0.643650 -0.284447
H36   H     H_    0.327119 0.056685 0.645674 0.188319
H37   H     H_    0.437872 0.143674 0.693999 0.126736
H38   H     H_    0.413937 0.034089 0.660823 0.197186
O35   O     O_3   0.659271 0.398112 0.393083 -0.561213
C66   C     C_3   0.724600 0.430195 0.372592 -0.329506
H39   H     H_    0.773374 0.498047 0.425334 0.191827
H40   H     H_    0.698880 0.431158 0.310201 0.150368
H41   H     H_    0.758826 0.392506 0.370891 0.175950
O36   O     O_3   0.351771 0.180566 0.300424 -0.721246
H42   H     H_    0.402384 0.172243 0.321978 0.330557
O37   O     O_3   0.225667 0.376296 0.475936 -0.572059
C67   C     C_3   0.253237 0.443906 0.558233 -0.260162
H43   H     H_    0.244816 0.496321 0.549472 0.206162
H44   H     H_    0.323131 0.472002 0.603842 0.144955
H45   H     H_    0.213722 0.421663 0.587412 0.170625
O38   O     O_3   0.382364 0.158156 0.905164 -0.567156
C68   C     C_3   0.437964 0.209312 0.885152 -0.287712
H46   H     H_    0.463724 0.173550 0.850918 0.151506
H47   H     H_    0.494310 0.266966 0.947246 0.193567
H48   H     H_    0.404993 0.233005 0.845673 0.148974

loop_
_geom_bond_atom_site_label_1
_geom_bond_atom_site_label_2
_ccdc_geom_bond_type
C40   C47   S    
C16   C21   A    
C1    C8    S    
C34   O22   A    
Cu3   O24   S    
C4    O25   S    
C19   C20   A    
C65   H38   S    
C24   H6    S    
O30   H30   S    
C37   O7    A    
C66   H39   S    
C57   C58   S    
C50   O33   S    
C7    C8    A    
C53   C54   A    
C52   C53   A    
C34   O23   A    
Cu2   O12   S    
C50   H14   S    
C33   O24   A    
O29   H29   S    
C45   H8    S    
C28   C29   A    
C65   H37   S    
C12   O19   A    
C46   O32   S    
C5    C6    A    
C24   H5    S    
C44   O31   S    
O25   H23   S    
C6    C35   S    
C18   C19   A    
C23   C26   S    
C49   H13   S    
Cu1   O22   S    
C23   O20   A    
C37   O8    A    
C3    C12   S    
C54   C55   A    
C68   H46   S    
C14   H22   S    
C38   C55   S    
C31   C32   S    
C45   C56   A    
C63   H26   S    
C8    C9    A    
C64   H34   S    
O37   C67   S    
Cu6   O13   S    
C51   C57   A    
Cu6   O17   S    
C13   C14   S    
O32   C64   S    
C9    C10   A    
C36   C52   S    
C63   H27   S    
Cu5   O9    S    
Cu4   O4    S    
C25   C32   S    
Cu3   O3    S    
C59   O36   S    
C68   H47   S    
C21   C22   S    
C42   C43   A    
C27   H7    S    
C31   H11   S    
C22   H4    S    
C54   H15   S    
C66   H40   S    
C60   H19   S    
C44   C46   A    
Cu5   O14   S    
C39   O11   A    
C35   O3    A    
C2    C45   A    
C19   O28   S    
C41   O16   A    
Cu5   Cu6   S    
C33   C43   S    
C65   H36   S    
C38   O10   A    
C33   O2    A    
C9    H21   S    
C12   O18   A    
C56   O34   S    
C16   C17   A    
Cu2   O21   S    
Cu4   O2    S    
C58   C59   S    
C56   C60   A    
C60   C61   A    
C43   C44   A    
Cu6   O10   S    
C29   C30   A    
C61   H20   S    
C58   H16   S    
C40   O14   A    
C36   O6    A    
C47   C48   A    
C67   H45   S    
C7    C13   A    
O34   C65   S    
C17   C18   A    
C26   C27   A    
C42   C48   A    
C20   C21   A    
C11   C39   S    
C28   H9    S    
C32   O29   S    
C42   C50   S    
C48   C49   S    
C67   H44   S    
Cu3   Cu4   S    
C68   H48   S    
C55   C57   A    
C64   H32   S    
C14   H1    S    
C22   C24   S    
C51   C59   S    
C17   C34   S    
C10   O38   S    
C3    C4    A    
C58   H17   S    
C22   H3    S    
C66   H41   S    
C63   H25   S    
Cu5   O11   S    
C31   H10   S    
Cu4   O6    S    
C35   O4    A    
C25   C30   A    
C15   H2    S    
C46   C47   A    
O38   C68   S    
Cu2   O23   S    
C41   O17   A    
C29   C41   S    
C38   O9    A    
O27   C63   S    
Cu5   O16   S    
C39   O13   A    
C23   O21   A    
O33   H35   S    
C5    O37   S    
C49   H12   S    
C6    C62   A    
O35   C66   S    
C53   O35   S    
C32   O30   S    
Cu1   O20   S    
O31   H31   S    
C25   C26   A    
C59   H18   S    
Cu3   O7    S    
C51   C52   A    
O36   H42   S    
C20   C37   S    
C11   C13   A    
C36   O5    A    
Cu4   O8    S    
Cu2   O19   S    
C30   C31   S    
C4    C5    A    
C18   O27   S    
C1    O1    A    
C7    C15   S    
C2    C3    A    
C61   C62   A    
C10   C11   A    
Cu1   Cu2   S    
C15   O26   S    
Cu3   O5    S    
C67   H43   S    
C16   C24   S    
C49   C50   S    
Cu6   O15   S    
Cu1   O1    S    
C27   C28   A    
C64   H33   S    
C14   C15   S    
O28   H28   S    
Cu1   O18   S    
O26   H24   S    
C1    O12   A    
C2    C62   A    
C40   O15   A    
