data_mof_unit_38265.cif
_audit_creation_date              2013-03-05T16:06:16-0500
_audit_creation_method            fapswitch 2.2
_symmetry_space_group_name_H-M    P1
_symmetry_Int_Tables_number       1
_space_group_crystal_system       triclinic
_cell_length_a                    10.828121
_cell_length_b                    9.5002
_cell_length_c                    27.768099
_cell_angle_alpha                 90.129349
_cell_angle_beta                  90.153795
_cell_angle_gamma                 89.97627
_cell_volume                      2856.46751879

loop_
_atom_site_label
_atom_site_type_symbol
_atom_site_description
_atom_site_fract_x
_atom_site_fract_y
_atom_site_fract_z
_atom_type_partial_charge
O1    O     O_R   0.319640 0.618740 0.500000 -0.602952
O2    O     O_R   0.680360 0.381260 0.500000 -0.603216
O3    O     O_R   0.680360 0.618740 0.500000 -0.561544
O4    O     O_R   0.319640 0.381260 0.500000 -0.601306
C1    C     C_R   0.262001 0.500026 0.499968 0.778825
C2    C     C_R   0.737981 0.499988 0.500058 0.855572
O5    O     O_R   0.500020 0.618770 0.430260 -0.525097
O6    O     O_R   0.499980 0.381230 0.569740 -0.587873
O7    O     O_R   0.499980 0.618770 0.569740 -0.523770
O8    O     O_R   0.500020 0.381230 0.430260 -0.582404
C3    C     C_R   0.502215 0.499954 0.407421 0.861497
C4    C     C_R   0.501230 0.500078 0.592643 0.866287
Cu1   Cu    Cu3+1 0.500000 0.640660 0.500000 1.049698
Cu2   Cu    Cu3+1 0.500000 0.359340 0.500000 0.977716
C5    C     C_R   0.424137 0.592971 0.177593 0.564362
C6    C     C_R   0.502879 0.363938 0.822033 0.591264
O9    O     O_2   0.375524 0.702241 0.202272 -0.519826
O10   O     O_2   0.554982 0.256466 0.797519 -0.494281
N1    N     N_R   0.475563 0.482646 0.201834 -0.466170
N2    N     N_R   0.458380 0.478174 0.797828 -0.469135
C7    C     C_R   0.524916 0.369714 0.177965 0.635753
C8    C     C_R   0.402746 0.587522 0.821519 0.622081
C9    C     C_R   0.554919 0.592493 0.275944 -0.173767
C10   C     C_R   0.543348 0.589205 0.725432 -0.160252
C11   C     C_R   0.565024 0.598554 0.326209 0.343574
C12   C     C_R   0.557260 0.597174 0.675378 0.383114
C13   C     C_R   0.429969 0.393715 0.331362 -0.247786
C14   C     C_R   0.423127 0.392374 0.667251 -0.251976
C15   C     C_R   0.421511 0.388820 0.281380 -0.062503
C16   C     C_R   0.410666 0.385783 0.717065 -0.051200
C17   C     C_R   0.483373 0.488480 0.253475 0.265199
C18   C     C_R   0.470540 0.484277 0.746351 0.255411
C19   C     C_R   0.467199 0.475884 0.101662 -0.099538
C20   C     C_R   0.447877 0.474563 0.897894 -0.092544
C21   C     C_R   0.421822 0.593389 0.127249 -0.003189
C22   C     C_R   0.495882 0.358532 0.872266 0.004124
C23   C     C_R   0.378931 0.710985 0.102122 -0.070350
C24   C     C_R   0.534488 0.238768 0.897254 -0.058188
C25   C     C_R   0.517562 0.360170 0.127064 -0.189364
C26   C     C_R   0.400856 0.592162 0.872560 -0.203403
C27   C     C_R   0.500123 0.498638 0.354413 -0.153061
C28   C     C_R   0.495001 0.498088 0.645681 -0.160829
H1    H     H_    0.379855 0.316238 0.352179 0.177352
H2    H     H_    0.374587 0.315575 0.645377 0.188007
H3    H     H_    0.366251 0.307863 0.264259 0.177017
H4    H     H_    0.353773 0.304544 0.732930 0.185972
H5    H     H_    0.350326 0.805586 0.120875 0.215291
H6    H     H_    0.565019 0.145339 0.878345 0.198512
C29   C     C_R   0.392990 0.584419 0.974782 -0.117678
C30   C     C_R   0.516841 0.362772 0.024725 -0.103264
C31   C     C_R   0.503330 0.358299 0.973854 0.118471
C32   C     C_R   0.405888 0.588791 0.025694 0.108996
C33   C     C_R   0.449522 0.473558 0.948992 0.050308
C34   C     C_R   0.461256 0.474337 0.050580 0.055705
C35   C     C_R   0.323053 0.685097 0.948478 0.272918
C36   C     C_R   0.588212 0.262812 0.050809 0.193624
C37   C     C_R   0.347615 0.704562 0.899237 0.311055
C38   C     C_R   0.567201 0.245781 0.100383 0.361694
O11   O     O_2   0.344747 0.686825 0.795342 -0.419037
O12   O     O_2   0.586861 0.272155 0.203545 -0.434686
C39   C     C_R   0.375152 0.710217 0.052235 -0.066590
C40   C     C_R   0.533698 0.237064 0.947167 -0.065246
H7    H     H_    0.589836 0.663982 0.748686 0.177298
H8    H     H_    0.603731 0.667700 0.253804 0.190281
H9    H     H_    0.351127 0.807507 0.034729 0.198360
H10   H     H_    0.555826 0.138987 0.964573 0.192621
C41   C     C_R   0.063884 0.372117 0.500035 -0.164964
C42   C     C_R   0.936031 0.627976 0.499999 -0.087588
C43   C     C_R   0.936162 0.372098 0.500095 -0.165116
C44   C     C_R   0.063765 0.627998 0.499936 -0.164446
H11   H     H_    0.111991 0.272110 0.500047 0.153502
H12   H     H_    0.887894 0.727968 0.499980 0.163162
H13   H     H_    0.888142 0.272084 0.500160 0.157070
H14   H     H_    0.111786 0.728009 0.499866 0.152222
C45   C     C_R   0.871768 0.500017 0.500066 -0.008238
C46   C     C_R   0.128173 0.500061 0.499968 -0.021617
C47   C     C_R   0.411298 0.074339 0.475533 -0.000172
C48   C     C_R   0.589818 0.925733 0.523776 0.075491
C49   C     C_R   0.589301 0.074588 0.524104 0.006533
C50   C     C_R   0.411133 0.925409 0.475627 0.029942
H15   H     H_    0.340490 0.130373 0.455811 0.120829
H16   H     H_    0.662220 0.869851 0.542568 0.175181
H17   H     H_    0.660604 0.130752 0.543569 0.135874
H18   H     H_    0.340183 0.869178 0.455989 0.124253
N3    N     N_R   0.500000 0.852070 0.500000 -0.170248
N4    N     N_R   0.500000 0.147930 0.500000 -0.171863
S1    S     S_3+6 0.655862 0.729192 0.652284 0.019856
O13   O     O_2   0.734065 0.670452 0.612369 -0.294251
O14   O     O_2   0.578352 0.847699 0.632974 -0.310513
O15   O     O_3   0.749634 0.791725 0.695783 -0.479908
H19   H     H_    0.702579 0.868563 0.711475 0.371622
S2    S     S_3+6 0.664144 0.727471 0.351631 0.036450
O16   O     O_2   0.587440 0.843521 0.373051 -0.234682
O17   O     O_2   0.742735 0.663307 0.390529 -0.316554
O18   O     O_3   0.756525 0.796880 0.309264 -0.475537
H20   H     H_    0.813861 0.719882 0.300351 0.354536
S3    S     S_3+6 0.325568 0.876214 0.874789 0.111230
O19   O     O_2   0.204918 0.881535 0.847991 -0.123416
O20   O     O_2   0.323833 0.984982 0.914140 -0.260864
O21   O     O_3   0.440933 0.916233 0.836735 -0.470634
H21   H     H_    0.517628 0.894135 0.854736 0.323391
S4    S     S_3+6 0.591227 0.075682 0.125693 0.098279
O22   O     O_2   0.586827 0.965046 0.086975 -0.264605
O23   O     O_2   0.715070 0.070634 0.150226 -0.169917
O24   O     O_3   0.479564 0.040431 0.165922 -0.499512
H22   H     H_    0.506805 0.953074 0.182210 0.393911
S5    S     S_3+6 0.173888 0.738042 0.969088 0.086941
O25   O     O_2   0.131188 0.643664 0.009121 -0.251641
O26   O     O_2   0.175871 0.887855 0.986593 -0.217738
O27   O     O_3   0.072813 0.725381 0.923189 -0.450274
H23   H     H_    0.993289 0.758973 0.936514 0.398058
S6    S     S_3+6 0.736092 0.208382 0.029114 0.090786
O28   O     O_2   0.732304 0.057941 0.012354 -0.196498
O29   O     O_2   0.777543 0.300064 0.988157 -0.255943
O30   O     O_3   0.840696 0.221105 0.073780 -0.410051
H24   H     H_    0.839981 0.321714 0.083240 0.351734

loop_
_geom_bond_atom_site_label_1
_geom_bond_atom_site_label_2
_geom_bond_distance
_ccdc_geom_bond_type
C16   C18   1.396936 A    
S1    O13   1.502925 D    
C13   C15   1.391360 A    
O18   H20   0.990674 S    
C50   H18   1.081534 S    
O3    C2    1.288981 A    
N1    C17   1.437172 S    
S6    O29   1.503691 D    
S3    O19   1.502625 D    
C2    C45   1.448660 S    
C42   C45   1.400965 A    
C5    N1    1.364698 A    
C19   C25   1.415751 A    
C20   C26   1.415420 A    
N1    C7    1.369008 A    
C10   C12   1.400663 A    
C32   C39   1.407771 A    
C49   N4    1.366227 A    
C41   H11   1.083328 S    
O30   H24   0.990705 S    
S4    O24   1.682622 S    
C48   H16   1.080503 S    
O27   H23   0.990541 S    
S2    O16   1.502676 D    
O7    Cu1   1.948149 S    
C12   S1    1.769921 S    
C44   H14   1.083306 S    
C4    C28   1.474656 S    
S5    O25   1.503667 D    
C43   H13   1.083319 S    
C38   S4    1.782358 S    
C23   H5    1.083202 S    
C24   H6    1.082302 S    
O3    Cu1   1.963945 S    
O6    C4    1.294675 A    
C37   S3    1.783512 S    
Cu1   Cu2   2.672596 S    
S5    O26   1.503068 D    
O2    C2    1.289231 A    
C31   C40   1.407473 A    
C5    C21   1.398121 A    
S6    O28   1.502616 D    
S3    O20   1.502363 D    
C32   C34   1.421232 A    
C40   H10   1.077220 S    
Cu2   N4    2.008438 S    
C7    O12   1.346615 S    
O8    Cu2   1.948149 S    
C11   C27   1.419538 A    
C8    O11   1.346456 S    
C48   C49   1.414170 A    
C29   C35   1.421758 A    
C25   C38   1.420134 A    
C14   H2    1.083571 S    
S2    O18   1.682226 S    
C30   C36   1.422388 A    
C35   S5    1.786707 S    
C42   H12   1.083366 S    
C31   C33   1.419772 A    
C9    C17   1.400404 A    
O5    C3    1.293723 A    
C10   C18   1.399421 A    
C50   N3    1.366571 A    
C39   H9    1.076767 S    
C13   C27   1.405515 A    
C7    C25   1.418131 A    
C47   H15   1.081594 S    
C6    N2    1.364867 A    
C29   C32   1.420738 A    
C8    C26   1.418086 A    
S2    O17   1.503343 D    
C30   C31   1.420303 A    
C30   C34   1.414014 A    
S4    O23   1.503267 D    
C48   N3    1.366202 A    
C6    O10   1.350007 S    
C9    H8    1.082514 S    
N2    C8    1.368716 A    
C47   N4    1.366681 A    
C10   H7    1.082356 S    
C35   C37   1.406305 A    
C44   C46   1.401052 A    
S5    O27   1.681853 S    
O1    C1    1.289212 A    
O1    Cu1   1.964117 S    
C43   C45   1.400825 A    
C22   C24   1.397269 A    
S3    O21   1.682527 S    
C12   C28   1.419381 A    
N2    C18   1.437129 S    
C47   C50   1.414868 A    
C19   C34   1.419782 A    
C5    O9    1.350041 S    
C11   S2    1.772963 S    
O6    Cu2   1.947215 S    
C26   C37   1.421107 A    
C21   C23   1.397132 A    
C16   H4    1.082880 S    
O4    C1    1.289189 A    
C23   C39   1.385765 A    
O24   H22   0.990497 S    
C1    C46   1.449099 S    
S1    O14   1.502975 D    
C14   C16   1.391713 A    
C15   C17   1.397205 A    
C6    C22   1.398203 A    
C49   H17   1.081538 S    
O15   H19   0.990856 S    
C29   C33   1.412528 A    
C14   C28   1.406743 A    
O21   H21   0.990800 S    
C19   C21   1.410766 A    
C36   C38   1.405563 A    
C3    C27   1.472084 S    
C20   C22   1.410559 A    
C9    C11   1.400809 A    
O4    Cu2   1.963945 S    
S4    O22   1.502524 D    
O2    Cu2   1.964117 S    
O7    C4    1.295869 A    
O8    C3    1.295479 A    
C13   H1    1.083638 S    
O5    Cu1   1.947215 S    
C20   C33   1.419031 A    
C42   C44   1.383119 A    
S1    O15   1.683336 S    
Cu1   N3    2.008437 S    
C41   C46   1.400977 A    
C41   C43   1.383000 A    
C36   S6    1.788145 S    
S6    O30   1.681604 S    
C15   H3    1.082945 S    
C24   C40   1.386167 A    
