data_mof_unit_20565.cif
_audit_creation_date              2012-12-10T20:49:28-0500
_audit_creation_method            fapswitch 2.2
_symmetry_space_group_name_H-M    P1
_symmetry_Int_Tables_number       1
_space_group_crystal_system       triclinic
_cell_length_a                    15.780703
_cell_length_b                    8.927907
_cell_length_c                    8.114497
_cell_angle_alpha                 90.143462
_cell_angle_beta                  91.057259
_cell_angle_gamma                 90.248658
_cell_volume                      1143.03130471

loop_
_atom_site_label
_atom_site_type_symbol
_atom_type_description
_atom_site_fract_x
_atom_site_fract_y
_atom_site_fract_z
_atom_type_partial_charge
C1    C     C_1   0.500013 0.065206 0.499813 -0.181978
C2    C     C_3   0.976536 0.610501 0.585677 0.096920
C3    C     C_1   0.249027 0.494641 0.493971 -0.151083
C4    C     C_1   0.750994 0.500993 0.505438 -0.142047
C5    C     C_3   0.032331 0.481601 0.650256 0.337744
C6    C     C_3   0.967166 0.504551 0.340656 0.381334
C7    C     C_3   0.083499 0.489963 0.490198 -0.136317
C8    C     C_3   0.916437 0.495918 0.502698 -0.109143
C9    C     C_1   0.174064 0.491160 0.490371 0.046049
C10   C     C_1   0.825969 0.499783 0.506786 0.085794
C11   C     C_3   0.998017 0.184314 0.189760 -0.654383
C12   C     C_1   0.500029 0.934795 0.500187 -0.181899
C13   C     C_3   0.008846 0.837924 0.746549 -0.739668
C14   C     C_3   0.888391 0.133089 0.559098 -0.717932
C15   C     C_3   0.095019 0.743626 0.193537 -0.671290
C16   C     C_R   0.499988 0.218020 0.499869 0.931293
C17   C     C_R   0.500034 0.781980 0.500132 0.931416
C18   C     C_R   0.337556 0.499073 0.498375 0.889662
C19   C     C_R   0.662444 0.500845 0.501587 0.890268
C20   C     C_3   0.972622 0.366916 0.565219 0.120180
C21   C     C_3   0.027306 0.619164 0.426297 0.119645
C22   C     C_3   0.023634 0.374848 0.406114 0.090890
Cl1   Cl    Cl    0.915408 0.521932 0.144029 -0.607824
Cl2   Cl    Cl    0.078582 0.463161 0.851228 -0.644902
H1    H     H_    0.115925 0.255737 0.278425 0.247327
H2    H     H_    0.854420 0.060149 0.646838 0.250230
H3    H     H_    0.926488 0.060391 0.478162 0.255524
H4    H     H_    0.840523 0.194802 0.484383 0.241670
H5    H     H_    0.102932 0.809210 0.437128 0.230344
H6    H     H_    0.126680 0.850312 0.159928 0.211604
H7    H     H_    0.043282 0.723391 0.102265 0.304926
H8    H     H_    0.142191 0.651850 0.187853 0.261050
H9    H     H_    0.014808 0.065553 0.167356 0.225203
H10   H     H_    0.005167 0.246966 0.073039 0.298998
H11   H     H_    0.930824 0.189315 0.227106 0.255989
H12   H     H_    0.905331 0.696734 0.775492 0.279540
H13   H     H_    0.980744 0.910896 0.842031 0.234398
H14   H     H_    0.030432 0.911037 0.645631 0.239242
H15   H     H_    0.063929 0.778648 0.802215 0.272311
H16   H     H_    0.990433 0.180965 0.716622 0.251214
N1    N     N_1   0.500010 0.500000 0.073640 -0.022321
N2    N     N_1   0.499990 0.500000 0.926360 -0.022151
N3    N     N_2   0.054087 0.245959 0.315809 -0.294596
N4    N     N_2   0.945619 0.733058 0.685172 -0.274806
N5    N     N_2   0.943205 0.234632 0.650600 -0.264521
N6    N     N_2   0.061059 0.756245 0.357213 -0.292616
O1    O     O_R   0.500000 0.285340 0.636850 -0.614299
O2    O     O_R   0.500000 0.714660 0.363150 -0.614973
O3    O     O_R   0.500000 0.285340 0.363150 -0.615510
O4    O     O_R   0.500000 0.714660 0.636850 -0.615560
O5    O     O_R   0.376770 0.500000 0.636850 -0.603446
O6    O     O_R   0.623230 0.500000 0.363150 -0.602571
O7    O     O_R   0.376780 0.500000 0.363100 -0.618879
O8    O     O_R   0.623220 0.500000 0.636900 -0.611412
Zn1   Zn    Zn3+2 0.499990 0.500000 0.682780 1.014034
Zn2   Zn    Zn3+2 0.500010 0.500000 0.317220 1.011329

loop_
_geom_bond_atom_site_label_1
_geom_bond_atom_site_label_2
_ccdc_geom_bond_type
C17   O4    A    
C12   C17   S    
N1    Zn2   S    
C15   H7    S    
C3    C9    T    
C14   H3    S    
C4    C19   S    
O3    Zn2   S    
C5    C7    S    
N1    N2    T    
C13   H13   S    
C22   N3    S    
C15   N6    S    
C17   O2    A    
H5    N6    S    
H1    N3    S    
C2    C21   S    
C11   H11   S    
C15   H8    S    
C1    C16   S    
C14   H2    S    
O7    Zn2   S    
C11   N3    S    
C1    C12   T    
C13   H14   S    
C8    C20   S    
C5    Cl2   S    
O6    Zn2   S    
C3    C18   S    
C6    Cl1   S    
C19   O8    A    
O1    Zn1   S    
C20   C22   S    
C18   O5    A    
C14   N5    S    
O5    Zn1   S    
C11   H10   S    
H16   N5    S    
N2    Zn1   S    
C5    C20   S    
H12   N4    S    
C2    C5    S    
C13   H15   S    
C4    C10   T    
C7    C22   S    
C7    C9    S    
C11   H9    S    
C16   O3    A    
C16   O1    A    
C15   H6    S    
C8    C10   S    
C21   N6    S    
C20   N5    S    
O2    Zn2   S    
O8    Zn1   S    
C6    C8    S    
C18   O7    A    
C14   H4    S    
C7    C21   S    
C6    C21   S    
C19   O6    A    
C13   N4    S    
C2    C8    S    
O4    Zn1   S    
C2    N4    S    
C6    C22   S    
