data_mof_unit_41942.cif
_audit_creation_date              2012-12-10T17:43:39-0500
_audit_creation_method            fapswitch 2.2
_symmetry_space_group_name_H-M    P1
_symmetry_Int_Tables_number       1
_space_group_crystal_system       triclinic
_cell_length_a                    15.018323
_cell_length_b                    10.723024
_cell_length_c                    9.914696
_cell_angle_alpha                 90.076323
_cell_angle_beta                  89.769319
_cell_angle_gamma                 93.047493
_cell_volume                      1594.40893451

loop_
_atom_site_label
_atom_site_type_symbol
_atom_type_description
_atom_site_fract_x
_atom_site_fract_y
_atom_site_fract_z
_atom_type_partial_charge
C1    C     C_R   0.507295 0.260743 0.500807 0.886888
C2    C     C_R   0.182055 0.451709 0.610179 0.555517
C3    C     C_R   0.230706 0.502551 0.500598 -0.328488
C4    C     C_R   0.326708 0.500411 0.500259 1.004295
C5    C     C_R   0.187545 0.555732 0.391299 0.529391
C6    C     C_R   0.543655 0.116544 0.752878 -0.337667
C7    C     C_R   0.523491 0.057108 0.875087 0.582879
C8    C     C_R   0.474961 0.943064 0.875463 0.628295
C9    C     C_R   0.454810 0.883198 0.753568 -0.296837
C10   C     C_R   0.483220 0.937470 0.629107 0.022707
C11   C     C_R   0.514712 0.062283 0.628837 0.006255
C12   C     C_R   0.909377 0.557532 0.389636 0.009703
C13   C     C_R   0.514084 0.127507 0.504324 -0.089912
C14   C     C_R   0.503750 0.063363 0.382234 -0.106835
C15   C     C_R   0.491909 0.936036 0.382320 -0.100028
C16   C     C_R   0.492158 0.739079 0.500930 0.882679
C17   C     C_R   0.483543 0.872030 0.504639 -0.096386
C18   C     C_R   0.383425 0.322168 0.133302 0.623533
C19   C     C_R   0.332159 0.235708 0.057738 0.632262
C20   C     C_R   0.334394 0.239423 0.919341 -0.330626
C21   C     C_R   0.388169 0.329324 0.854965 -0.087954
C22   C     C_R   0.444594 0.414814 0.926341 -0.043963
C23   C     C_R   0.948286 0.402486 0.720076 0.635019
C24   C     C_R   0.443667 0.413508 0.071132 -0.152108
C25   C     C_R   0.552884 0.581857 0.071386 0.646350
C26   C     C_R   0.552919 0.581710 0.928320 0.587598
C27   C     C_R   0.673155 0.501869 0.499616 0.942289
C28   C     C_R   0.816936 0.556851 0.389677 0.612203
C29   C     C_R   0.768915 0.504329 0.498913 -0.236427
C30   C     C_R   0.812169 0.453830 0.608791 -0.235299
C31   C     C_R   0.904318 0.453789 0.610558 -0.023946
C32   C     C_R   0.953266 0.505562 0.500292 -0.016814
C33   C     C_R   0.040651 0.402052 0.720044 -0.180899
C34   C     C_R   0.089830 0.452892 0.610975 -0.102379
C35   C     C_R   0.046130 0.505201 0.500602 -0.067102
C36   C     C_R   0.095166 0.556907 0.390469 0.010974
C37   C     C_R   0.051010 0.608835 0.281540 -0.106565
C38   C     C_R   0.958616 0.609107 0.281103 -0.127856
F1    F     F_    0.774018 0.609398 0.285200 -0.595822
F2    F     F_    0.235336 0.608530 0.287215 -0.629776
F3    F     F_    0.548473 0.112465 0.993083 -0.647252
F4    F     F_    0.449860 0.888246 0.993836 -0.620167
F5    F     F_    0.606893 0.665937 0.138310 -0.547098
F6    F     F_    0.367071 0.312882 0.265202 -0.614777
F7    F     F_    0.277122 0.149367 0.120418 -0.587916
F8    F     F_    0.607252 0.665395 0.860936 -0.590495
F9    F     F_    0.902076 0.352584 0.826883 -0.635035
F10   F     F_    0.223973 0.398611 0.714849 -0.672082
H1    H     H_    0.925942 0.649401 0.195555 0.220949
H2    H     H_    0.504773 0.111292 0.286028 0.226084
H3    H     H_    0.583216 0.203639 0.757068 0.221318
H4    H     H_    0.415517 0.795867 0.758170 0.208594
H5    H     H_    0.489847 0.887910 0.286113 0.244690
H6    H     H_    0.292727 0.173909 0.861142 0.220633
H7    H     H_    0.382367 0.329833 0.748615 0.265497
H8    H     H_    0.773707 0.413069 0.692064 0.238634
H9    H     H_    0.073423 0.361736 0.805506 0.231844
H10   H     H_    0.087634 0.648936 0.196303 0.215145
N1    N     N_R   0.499150 0.498800 0.142780 -0.178698
N2    N     N_R   0.499120 0.498720 0.857170 -0.189981
O1    O     O_R   0.500000 0.316780 0.614690 -0.679073
O2    O     O_R   0.499990 0.316750 0.385360 -0.565148
O3    O     O_R   0.367850 0.499980 0.614680 -0.624166
O4    O     O_R   0.367840 0.499960 0.385350 -0.500870
O5    O     O_R   0.500010 0.683250 0.614640 -0.594068
O6    O     O_R   0.500000 0.683220 0.385310 -0.570437
O7    O     O_R   0.632160 0.500040 0.614650 -0.597205
O8    O     O_R   0.632150 0.500020 0.385320 -0.537041
Zn1   Zn    Zn3+2 0.500010 0.500020 0.653130 1.020402
Zn2   Zn    Zn3+2 0.499990 0.499980 0.346870 1.132569

loop_
_geom_bond_atom_site_label_1
_geom_bond_atom_site_label_2
_ccdc_geom_bond_type
C19   F7    S    
C6    C7    A    
C18   C24   A    
C18   F6    S    
C6    H3    S    
C27   C29   S    
C29   C30   A    
C9    C10   A    
C4    O4    A    
C37   H10   S    
C27   O7    A    
C3    C5    A    
C1    O2    A    
C25   F5    S    
C19   C20   A    
C33   C34   A    
C21   H7    S    
C7    C8    A    
C38   H1    S    
O6    Zn2   S    
C21   C22   A    
C12   C32   A    
O7    Zn1   S    
C12   C38   A    
C11   C13   A    
C4    O3    A    
C2    C34   A    
C14   H2    S    
C9    H4    S    
C30   H8    S    
N2    Zn1   S    
C12   C28   A    
C24   N1    A    
O5    Zn1   S    
C15   H5    S    
N1    Zn2   S    
O8    Zn2   S    
C36   C37   A    
C37   C38   A    
C8    F4    S    
C2    C3    A    
O4    Zn2   S    
C7    F3    S    
C22   N2    A    
C30   C31   A    
C34   C35   A    
C22   C24   A    
C23   F9    S    
C10   C11   A    
C26   F8    S    
C10   C17   A    
C28   F1    S    
C3    C4    S    
C5    C36   A    
O3    Zn1   S    
C1    C13   S    
C20   C21   A    
O2    Zn2   S    
C20   H6    S    
C18   C19   A    
C5    F2    S    
O1    Zn1   S    
C6    C11   A    
C15   C17   A    
C14   C15   A    
C28   C29   A    
C16   O6    A    
C33   H9    S    
C16   O5    A    
C25   N1    A    
C27   O8    A    
C2    F10   S    
C25   C26   A    
C13   C14   A    
C26   N2    A    
C32   C35   A    
C31   C32   A    
C16   C17   S    
C23   C31   A    
C8    C9    A    
C23   C33   A    
C35   C36   A    
C1    O1    A    
