data_mof_unit_46243.cif
_audit_creation_date              2012-12-10T18:11:07-0500
_audit_creation_method            fapswitch 2.2
_symmetry_space_group_name_H-M    P1
_symmetry_Int_Tables_number       1
_space_group_crystal_system       triclinic
_cell_length_a                    10.75274
_cell_length_b                    9.457188
_cell_length_c                    10.670666
_cell_angle_alpha                 89.986676
_cell_angle_beta                  89.491335
_cell_angle_gamma                 90.001779
_cell_volume                      1085.06452906

loop_
_atom_site_label
_atom_site_type_symbol
_atom_type_description
_atom_site_fract_x
_atom_site_fract_y
_atom_site_fract_z
_atom_type_partial_charge
C1    C     C_R   0.259903 0.500005 0.503054 0.755956
C2    C     C_3   0.494883 0.500017 0.123463 -0.167588
C3    C     C_3   0.072996 0.634740 0.574490 -0.395894
C4    C     C_3   0.073017 0.368972 0.579993 -0.394371
C5    C     C_3   0.929462 0.638034 0.574347 -0.174938
C6    C     C_3   0.929458 0.364683 0.578506 -0.175301
C7    C     C_3   0.071162 0.496541 0.372181 -0.385155
C8    C     C_3   0.122044 0.500044 0.507155 0.116828
C9    C     C_3   0.877897 0.500097 0.511807 0.044334
C10   C     C_3   0.927698 0.497494 0.375015 -0.388586
C11   C     C_3   0.595600 0.083353 0.588742 -0.199441
C12   C     C_3   0.595648 0.916612 0.588691 -0.198678
C13   C     C_3   0.376799 0.084276 0.542562 -0.183064
C14   C     C_3   0.376821 0.915705 0.542642 -0.182550
C15   C     C_3   0.527532 0.084186 0.375682 0.373384
C16   C     C_3   0.527485 0.915876 0.375674 0.373046
C17   C     C_R   0.498203 0.500011 0.259731 0.840784
C18   C     C_R   0.739610 0.500018 0.506326 0.775373
C19   C     C_R   0.495862 0.499985 0.740375 0.855239
C20   C     C_3   0.433856 0.617189 0.043709 -0.201320
C21   C     C_3   0.432377 0.383784 0.043835 -0.202196
C22   C     C_3   0.373109 0.500951 0.960932 -0.232189
C23   C     C_3   0.490699 0.499958 0.876798 -0.033508
C24   C     C_3   0.550032 0.613400 0.958562 0.386407
C25   C     C_3   0.548597 0.385606 0.958677 0.387804
C26   C     C_3   0.610808 0.499036 0.038624 -0.148837
Cu1   Cu    Cu3+1 0.499860 0.642410 0.500060 0.965738
Cu2   Cu    Cu3+1 0.499860 0.357590 0.500060 0.965668
H1    H     H_    0.276022 0.501722 0.926391 0.169135
H2    H     H_    0.893507 0.592030 0.323589 0.196810
H3    H     H_    0.892513 0.401903 0.325857 0.197508
H4    H     H_    0.579882 0.121835 0.685875 0.200486
H5    H     H_    0.580060 0.877985 0.685817 0.200298
H6    H     H_    0.689846 0.121468 0.561929 0.193330
H7    H     H_    0.689889 0.878618 0.561758 0.193438
H8    H     H_    0.452741 0.119548 0.310761 0.016983
H9    H     H_    0.452634 0.880589 0.310804 0.016889
H10   H     H_    0.305704 0.117991 0.473554 0.100014
H11   H     H_    0.305662 0.881918 0.473753 0.100075
H12   H     H_    0.388058 0.714098 0.080419 0.152594
H13   H     H_    0.385346 0.287674 0.080671 0.152666
H14   H     H_    0.107760 0.731370 0.525983 0.161492
H15   H     H_    0.108633 0.269931 0.536261 0.161898
H16   H     H_    0.110317 0.637373 0.671552 0.177227
H17   H     H_    0.109395 0.372136 0.677431 0.176319
H18   H     H_    0.899979 0.730898 0.517700 0.152361
H19   H     H_    0.900937 0.269855 0.523972 0.151247
H20   H     H_    0.105769 0.589722 0.318482 0.170097
H21   H     H_    0.104839 0.399991 0.322806 0.170503
N1    N     N_3   0.500250 0.143650 0.502780 -0.171176
N2    N     N_3   0.500250 0.856350 0.502780 -0.171271
O1    O     O_R   0.317570 0.620260 0.500070 -0.610028
O2    O     O_R   0.317570 0.379740 0.500070 -0.610038
O3    O     O_R   0.499850 0.620240 0.316900 -0.570666
O4    O     O_R   0.499850 0.379760 0.316900 -0.570720
O5    O     O_R   0.682190 0.620260 0.500030 -0.559373
O6    O     O_R   0.682190 0.379740 0.500030 -0.559405
O7    O     O_R   0.499910 0.620280 0.683200 -0.563233
O8    O     O_R   0.499910 0.379720 0.683200 -0.563116
C27   C     C_1   0.334507 0.145359 0.663704 0.341653
N3    N     N_1   0.300879 0.191564 0.758580 -0.304181
C28   C     C_1   0.334729 0.854742 0.663923 0.341242
N4    N     N_1   0.301319 0.808688 0.758952 -0.305144
O9    O     O_3   0.641962 0.137355 0.331024 -0.683645
H22   H     H_    0.640227 0.131591 0.238117 0.296337
O10   O     O_3   0.641865 0.862677 0.330945 -0.683945
H23   H     H_    0.640021 0.868335 0.238052 0.296306
O11   O     O_3   0.608872 0.734748 0.912572 -0.714375
H24   H     H_    0.634230 0.788799 0.987706 0.316773
O12   O     O_3   0.605959 0.263300 0.912806 -0.714980
H25   H     H_    0.630701 0.208932 0.987994 0.316297
C29   C     C_1   0.742876 0.498004 0.070923 0.300637
N5    N     N_1   0.847828 0.497146 0.093461 -0.294685
C30   C     C_1   0.881195 0.662289 0.702316 0.240801
N6    N     N_1   0.844688 0.681763 0.803069 -0.214918
C31   C     C_1   0.879927 0.344202 0.706495 0.241568
N7    N     N_1   0.842324 0.327697 0.807267 -0.215028

loop_
_geom_bond_atom_site_label_1
_geom_bond_atom_site_label_2
_ccdc_geom_bond_type
C7    C10   S    
C3    H14   S    
C22   H1    S    
C1    C8    S    
C26   C29   S    
C16   N2    S    
C4    C8    S    
C6    C9    S    
Cu1   O3    S    
C7    C8    S    
C13   C27   S    
Cu2   O6    S    
C24   C26   S    
C20   H12   S    
C15   C16   S    
C14   C28   S    
C15   N1    S    
C5    C30   S    
C1    O2    A    
C14   H11   S    
Cu2   N1    S    
C10   H3    S    
C20   C24   S    
O11   H24   S    
C15   O9    S    
O12   H25   S    
C9    C10   S    
C17   O4    A    
C18   O5    A    
C16   H9    S    
O10   H23   S    
C13   C14   S    
C2    C17   S    
Cu2   O4    S    
Cu1   N2    S    
C4    H17   S    
C19   O7    A    
C3    H16   S    
C6    H19   S    
C2    C20   S    
C31   N7    T    
C7    H21   S    
C4    C6    S    
C3    C8    S    
C30   N6    T    
Cu1   O5    S    
C19   O8    A    
C25   C26   S    
C27   N3    T    
C19   C23   S    
C5    C9    S    
C28   N4    T    
C10   H2    S    
C18   O6    A    
C14   N2    S    
C23   C24   S    
C2    C21   S    
C2    C26   S    
C12   H7    S    
C13   H10   S    
C21   H13   S    
C20   C22   S    
C11   H4    S    
C16   O10   S    
C15   H8    S    
C12   N2    S    
Cu1   O1    S    
Cu2   O8    S    
C21   C25   S    
C11   H6    S    
C29   N5    T    
C3    C5    S    
Cu1   O7    S    
Cu2   O2    S    
C6    C31   S    
C4    H15   S    
C5    H18   S    
C7    H20   S    
C11   N1    S    
O9    H22   S    
C23   C25   S    
C1    O1    A    
C24   O11   S    
C13   N1    S    
C9    C18   S    
Cu1   Cu2   S    
C22   C23   S    
C25   O12   S    
C12   H5    S    
C21   C22   S    
C17   O3    A    
C11   C12   S    
