data_mof_unit_56430.cif
_audit_creation_date              2012-12-10T19:47:24-0500
_audit_creation_method            fapswitch 2.2
_symmetry_space_group_name_H-M    P1
_symmetry_Int_Tables_number       1
_space_group_crystal_system       triclinic
_cell_length_a                    10.849513
_cell_length_b                    10.847699
_cell_length_c                    12.721042
_cell_angle_alpha                 92.773678
_cell_angle_beta                  92.920589
_cell_angle_gamma                 89.44038
_cell_volume                      1493.43171836

loop_
_atom_site_label
_atom_site_type_symbol
_atom_type_description
_atom_site_fract_x
_atom_site_fract_y
_atom_site_fract_z
_atom_type_partial_charge
C1    C     C_R   0.261966 0.495422 0.500731 0.834891
C2    C     C_R   0.738033 0.504586 0.499269 0.834627
C3    C     C_R   0.494722 0.871698 0.498071 -0.099735
C4    C     C_R   0.505320 0.128302 0.501926 -0.099734
C5    C     C_R   0.436072 0.935555 0.415169 0.065175
C6    C     C_R   0.563963 0.064444 0.584837 0.065084
C7    C     C_R   0.238985 0.244918 0.770392 -0.136360
C8    C     C_R   0.761118 0.755080 0.229535 -0.136001
C9    C     C_R   0.187510 0.296871 0.679672 0.600707
C10   C     C_R   0.812611 0.703175 0.320271 0.600457
C11   C     C_R   0.129614 0.413441 0.686613 -0.032427
C12   C     C_R   0.870368 0.586532 0.313384 -0.032448
C13   C     C_R   0.124734 0.476970 0.785237 -0.184930
C14   C     C_R   0.875060 0.522864 0.214807 -0.184485
C15   C     C_R   0.177411 0.424882 0.875524 -0.087868
C16   C     C_R   0.822335 0.574889 0.124510 -0.087991
C17   C     C_R   0.233612 0.308577 0.868181 -0.122303
C18   C     C_R   0.766301 0.691278 0.131792 -0.122108
C19   C     C_R   0.938972 0.475755 0.590264 -0.246022
C20   C     C_R   0.061025 0.524276 0.409742 -0.245960
C21   C     C_R   0.871778 0.507583 0.498584 -0.029786
C22   C     C_R   0.128220 0.492433 0.501418 -0.029771
C23   C     C_R   0.504030 0.261924 0.500854 0.835401
C24   C     C_R   0.495984 0.738076 0.499146 0.835237
C25   C     C_R   0.933506 0.535362 0.407833 0.069271
C26   C     C_R   0.066490 0.464649 0.592170 0.069290
C27   C     C_2   0.495178 0.452666 0.032474 0.364248
C28   C     C_2   0.504798 0.547324 0.967523 0.364186
C29   C     C_1   0.514556 0.529488 0.852379 0.248307
C30   C     C_1   0.485434 0.470506 0.147620 0.248269
C31   C     C_R   0.833376 0.221178 0.734223 -0.176523
C32   C     C_R   0.166443 0.778966 0.266019 -0.176467
C33   C     C_R   0.753971 0.177254 0.651070 -0.269542
C34   C     C_R   0.245915 0.822937 0.349102 -0.269686
C35   C     C_R   0.640255 0.125292 0.671801 -0.021859
C36   C     C_R   0.359684 0.874707 0.328277 -0.021953
C37   C     C_R   0.606787 0.118914 0.776814 0.598715
C38   C     C_R   0.393137 0.880863 0.223244 0.599048
C39   C     C_R   0.685365 0.165745 0.859438 -0.164458
C40   C     C_R   0.314482 0.833992 0.140689 -0.164753
C41   C     C_R   0.798633 0.216922 0.838253 0.357945
C42   C     C_R   0.201163 0.782993 0.161966 0.357861
C43   C     C_R   0.557309 0.936605 0.581895 -0.101226
C44   C     C_R   0.442741 0.063391 0.418097 -0.101320
Cu1   Cu    Cu3+1 0.492140 0.492110 0.395880 1.024680
Cu2   Cu    Cu3+1 0.507860 0.507890 0.604120 1.024688
H1    H     H_    0.079504 0.566238 0.792153 0.195778
H2    H     H_    0.920172 0.433529 0.207939 0.195776
H3    H     H_    0.173241 0.473844 0.951431 0.203924
H4    H     H_    0.826345 0.525813 0.048638 0.203862
H5    H     H_    0.891593 0.455341 0.660165 0.169795
H6    H     H_    0.108401 0.544707 0.339842 0.169869
H7    H     H_    0.922892 0.256236 0.718001 0.180986
H8    H     H_    0.076908 0.744029 0.282317 0.181078
H9    H     H_    0.782838 0.179833 0.570934 0.181645
H10   H     H_    0.217070 0.820527 0.429256 0.181804
H11   H     H_    0.659401 0.159845 0.940058 0.241741
H12   H     H_    0.340430 0.839720 0.060051 0.241840
H13   H     H_    0.604893 0.887157 0.644257 0.178762
H14   H     H_    0.395146 0.112833 0.355736 0.178736
H15   H     H_    0.271946 0.267224 0.938429 0.227222
H16   H     H_    0.727957 0.732590 0.061529 0.227239
H17   H     H_    0.281342 0.154359 0.765054 0.227689
H18   H     H_    0.718897 0.845709 0.234823 0.227652
N1    N     N_1   0.480320 0.480250 0.239400 -0.169040
N2    N     N_1   0.519680 0.519750 0.760600 -0.169042
O1    O     O_R   0.313000 0.493330 0.412070 -0.583805
O2    O     O_R   0.687000 0.506670 0.587930 -0.583820
O3    O     O_R   0.326280 0.506660 0.587930 -0.581874
O4    O     O_R   0.673720 0.493340 0.412070 -0.581896
O5    O     O_R   0.493370 0.312980 0.412070 -0.573838
O6    O     O_R   0.506630 0.687020 0.587930 -0.573816
O7    O     O_R   0.506650 0.326310 0.587930 -0.568650
O8    O     O_R   0.493350 0.673690 0.412070 -0.568673
Cl1   Cl    Cl    0.898319 0.272902 0.942196 -0.630571
Cl2   Cl    Cl    0.101407 0.726926 0.058109 -0.630563
F1    F     F_    0.502221 0.665113 0.008733 -0.692594
F2    F     F_    0.497748 0.334875 0.991263 -0.692628
F3    F     F_    0.499613 0.064907 0.799250 -0.651898
F4    F     F_    0.500370 0.934681 0.200717 -0.651856
F5    F     F_    0.190810 0.232150 0.585795 -0.681640
F6    F     F_    0.809475 0.768009 0.414107 -0.681566

loop_
_geom_bond_atom_site_label_1
_geom_bond_atom_site_label_2
_ccdc_geom_bond_type
C33   H9    S    
C34   H10   S    
Cu1   O5    S    
C27   F2    S    
C39   C41   A    
Cu1   Cu2   S    
C37   F3    S    
C3    C43   A    
C28   C29   S    
C35   C37   A    
C16   H4    S    
Cu2   N2    S    
C2    O2    A    
C33   C35   A    
C20   C25   A    
C39   H11   S    
C5    C36   S    
C6    C35   S    
C15   C17   A    
C19   C26   A    
Cu2   O3    S    
C17   H15   S    
C7    C17   A    
Cu1   O1    S    
C31   C33   A    
Cu2   O6    S    
C43   H13   S    
C40   C42   A    
C1    C22   S    
C27   C30   S    
C3    C24   S    
C23   O7    A    
C32   H8    S    
C40   H12   S    
C23   O5    A    
C4    C6    A    
C13   H1    S    
C4    C23   S    
C18   H16   S    
C14   H2    S    
C4    C44   A    
C11   C26   S    
C10   F6    S    
C1    O3    A    
Cu1   O8    S    
C32   C34   A    
Cu2   O2    S    
C41   Cl1   S    
C2    C21   S    
C16   C18   A    
C31   H7    S    
C28   F1    S    
C9    C11   A    
C7    H17   S    
C10   C12   A    
C8    H18   S    
C8    C10   A    
C5    C44   A    
C20   C22   A    
C6    C43   A    
C13   C15   A    
Cu1   N1    S    
C14   C16   A    
C24   O6    A    
C7    C9    A    
C21   C25   A    
C31   C41   A    
C19   C21   A    
Cu1   O4    S    
C12   C14   A    
C3    C5    A    
C42   Cl2   S    
C12   C25   S    
C36   C38   A    
C37   C39   A    
C38   C40   A    
C11   C13   A    
C24   O8    A    
C38   F4    S    
C44   H14   S    
C1    O1    A    
C34   C36   A    
C15   H3    S    
C8    C18   A    
C30   N1    T    
C29   N2    T    
C19   H5    S    
C20   H6    S    
C22   C26   A    
C27   C28   D    
C32   C42   A    
C2    O4    A    
Cu2   O7    S    
C9    F5    S    
