data_mof_unit_52877.cif
_audit_creation_date              2013-03-05T15:49:17-0500
_audit_creation_method            fapswitch 2.2
_symmetry_space_group_name_H-M    P1
_symmetry_Int_Tables_number       1
_space_group_crystal_system       triclinic
_cell_length_a                    10.698026
_cell_length_b                    12.079592
_cell_length_c                    12.869144
_cell_angle_alpha                 94.899321
_cell_angle_beta                  92.017509
_cell_angle_gamma                 85.502487
_cell_volume                      1651.19200584

loop_
_atom_site_label
_atom_site_type_symbol
_atom_site_description
_atom_site_fract_x
_atom_site_fract_y
_atom_site_fract_z
_atom_type_partial_charge
O1    O     O_R   0.506170 0.421690 0.658830 -0.570792
O2    O     O_R   0.491330 0.609320 0.646410 -0.619563
C1    C     C_R   0.495434 0.523213 0.700297 0.973205
O3    O     O_R   0.690660 0.406170 0.506210 -0.556970
O4    O     O_R   0.675810 0.593790 0.493790 -0.633460
C2    C     C_R   0.739283 0.498117 0.494658 1.017697
Zn1   Zn    Zn3+2 0.509910 0.374720 0.508290 1.140850
Zn2   Zn    Zn3+2 0.490090 0.625280 0.491710 1.027245
O5    O     O_R   0.508670 0.390680 0.353590 -0.501790
O6    O     O_R   0.493830 0.578310 0.341170 -0.626193
O7    O     O_R   0.324190 0.406210 0.506210 -0.527814
O8    O     O_R   0.309340 0.593830 0.493790 -0.600397
C3    C     C_R   0.503979 0.476456 0.299535 1.009281
C4    C     C_R   0.260398 0.500710 0.498706 0.938181
C5    C     C_R   0.882857 0.359272 0.327200 0.336972
C6    C     C_R   0.959393 0.295706 0.252475 0.321295
C7    C     C_R   0.082377 0.320558 0.243612 -0.140368
H1    H     H_    0.137024 0.280912 0.179575 0.199734
C8    C     C_R   0.134008 0.399839 0.312850 0.413316
C9    C     C_R   0.068271 0.444177 0.402902 -0.113487
C10   C     C_R   0.938991 0.431255 0.407058 -0.102154
C11   C     C_R   0.872189 0.494772 0.489150 -0.076231
C12   C     C_R   0.932473 0.559338 0.568729 0.456514
H2    H     H_    0.110179 0.605870 0.631852 0.161549
C13   C     C_R   0.061123 0.560715 0.568410 -0.235508
C14   C     C_R   0.127615 0.502674 0.488035 -0.083429
C15   C     C_R   0.499579 0.459258 0.187276 -0.138564
C16   C     C_R   0.490086 0.538803 0.812434 -0.227887
C17   C     C_R   0.566196 0.625538 0.974720 -0.245487
C18   C     C_R   0.553400 0.624298 0.866930 0.437255
C19   C     C_R   0.433935 0.458358 0.864694 0.244615
C20   C     C_R   0.455459 0.454654 0.972494 -0.037501
C21   C     C_R   0.521458 0.540481 0.026401 0.021854
C22   C     C_R   0.539968 0.543137 0.132803 -0.296891
C23   C     C_R   0.446473 0.366545 0.135198 0.369537
C24   C     C_R   0.413735 0.368803 0.028350 0.370908
H3    H     H_    0.585709 0.611824 0.174072 0.188292
H4    H     H_    0.615227 0.690844 0.018006 0.154024
N1    N     N_R   0.523130 0.207800 0.519340 -0.178324
N2    N     N_R   0.476870 0.792180 0.480660 -0.186092
C25   C     C_R   0.368740 0.954031 0.413254 -0.339433
C26   C     C_R   0.382742 0.837615 0.420096 0.572942
C27   C     C_R   0.560480 0.858456 0.534543 0.504907
C28   C     C_R   0.552795 0.975550 0.526382 -0.151816
C29   C     C_R   0.454377 0.024414 0.465267 -0.181662
C30   C     C_R   0.443531 0.142894 0.460631 0.564383
C31   C     C_R   0.618991 0.161797 0.578023 0.258005
C32   C     C_R   0.637743 0.045817 0.580999 0.191077
H5    H     H_    0.289393 0.987729 0.368661 0.166419
O9    O     O_3   0.863622 0.616554 0.648196 -0.708844
H6    H     H_    0.920550 0.657817 0.697199 0.366716
O10   O     O_3   0.339563 0.290364 0.979284 -0.683840
H7    H     H_    0.283988 0.264838 0.030879 0.345724
O11   O     O_3   0.606345 0.702435 0.813322 -0.708823
H8    H     H_    0.648084 0.755542 0.863626 0.360550
N3    N     N_R   0.355697 0.381801 0.806924 0.270342
O12   O     O_R   0.250428 0.419317 0.764377 -0.386410
O13   O     O_R   0.399610 0.279942 0.781094 -0.268257
O14   O     O_3   0.354645 0.196192 0.398393 -0.674639
H9    H     H_    0.339217 0.147107 0.334551 0.333992
N4    N     N_R   0.705563 0.231409 0.633232 0.253001
O15   O     O_R   0.819581 0.229305 0.600687 -0.325593
O16   O     O_R   0.682726 0.270012 0.728656 -0.306295
N5    N     N_R   0.745136 0.001565 0.638032 0.291281
O17   O     O_R   0.841263 0.954009 0.587979 -0.302036
O18   O     O_R   0.753415 0.021184 0.738921 -0.279478
O19   O     O_3   0.301673 0.767801 0.367253 -0.727752
H10   H     H_    0.239071 0.812608 0.326529 0.324370
O20   O     O_3   0.651458 0.812835 0.599471 -0.664162
H11   H     H_    0.625892 0.741020 0.617326 0.418617
O21   O     O_3   0.755131 0.353320 0.320640 -0.779028
H12   H     H_    0.729278 0.333469 0.247153 0.338770
O22   O     O_3   0.915335 0.212704 0.183728 -0.724090
H13   H     H_    0.845037 0.180837 0.216088 0.358218
O23   O     O_3   0.243861 0.438850 0.285337 -0.740583
H14   H     H_    0.236706 0.520782 0.301626 0.332392
O24   O     O_3   0.423353 0.277516 0.190448 -0.718129
H15   H     H_    0.426109 0.208967 0.142213 0.335740

loop_
_geom_bond_atom_site_label_1
_geom_bond_atom_site_label_2
_geom_bond_distance
_ccdc_geom_bond_type
C30   O14   1.377931 S    
C22   H3    1.086299 S    
C25   C26   1.412419 A    
C23   C24   1.408946 A    
O23   H14   0.991537 S    
C29   C30   1.432960 A    
C28   C29   1.413885 A    
Zn1   O7    1.993088 S    
C18   O11   1.382102 S    
C20   C24   1.419127 A    
C1    C16   1.441870 S    
O4    C2    1.294389 A    
O7    C4    1.292343 A    
C32   N5    1.433779 S    
C5    C6    1.419678 A    
C2    C11   1.423322 S    
C17   C21   1.394040 A    
N3    O12   1.300912 A    
O22   H13   0.990967 S    
N4    O16   1.300247 A    
O5    C3    1.293261 A    
N2    C27   1.376830 A    
C8    C9    1.420115 A    
C6    C7    1.382932 A    
C17   H4    1.084911 S    
C19   N3    1.438262 S    
C24   O10   1.380794 S    
N2    C26   1.361563 A    
O14   H9    0.988139 S    
C27   O20   1.373477 S    
C10   C11   1.429764 A    
O20   H11   0.977671 S    
O3    Zn1   2.001178 S    
C25   H5    1.080282 S    
C21   C22   1.374633 A    
C15   C22   1.384223 A    
O19   H10   0.991470 S    
C31   C32   1.403229 A    
H2    C13   1.085434 S    
O3    C2    1.284737 A    
C12   O9    1.385117 S    
C15   C23   1.403914 A    
C13   C14   1.384618 A    
O24   H15   0.990712 S    
C23   O24   1.381302 S    
C6    O22   1.379634 S    
O1    C1    1.293202 A    
N5    O18   1.300908 A    
C27   C28   1.423017 A    
C17   C18   1.388020 A    
C19   C20   1.402178 A    
Zn2   O8    2.001175 S    
C7    H1    1.082993 S    
O9    H6    0.991917 S    
C4    C14   1.420854 S    
N1    C30   1.367078 A    
O8    C4    1.284635 A    
C26   O19   1.378786 S    
O10   H7    0.990432 S    
N1    C31   1.363303 A    
Zn1   O5    2.015973 S    
O11   H8    0.991794 S    
C25   C29   1.411376 A    
O1    Zn1   1.972530 S    
C16   C19   1.410354 A    
O2    Zn2   2.015975 S    
O6    C3    1.297375 A    
C31   N4    1.429474 S    
O4    Zn2   1.993088 S    
C5    O21   1.373195 S    
C20   C21   1.418492 A    
C16   C18   1.403461 A    
O2    C1    1.295617 A    
O21   H12   0.990762 S    
N5    O17   1.301248 A    
C9    C14   1.411321 A    
C8    O23   1.368649 S    
C7    C8    1.385192 A    
N3    O13   1.302156 A    
C12   C13   1.377860 A    
N4    O15   1.301215 A    
C5    C10   1.434799 A    
C9    C10   1.407311 A    
Zn2   O6    1.972531 S    
Zn1   N1    2.026974 S    
C11   C12   1.403205 A    
C3    C15   1.441509 S    
Zn2   N2    2.026735 S    
C28   C32   1.419312 A    
