data_mof_unit_44258.cif
_audit_creation_date              2012-12-10T19:12:32-0500
_audit_creation_method            fapswitch 2.2
_symmetry_space_group_name_H-M    P1
_symmetry_Int_Tables_number       1
_space_group_crystal_system       triclinic
_cell_length_a                    15.727235
_cell_length_b                    10.632006
_cell_length_c                    9.71859
_cell_angle_alpha                 90.176267
_cell_angle_beta                  89.873794
_cell_angle_gamma                 89.766611
_cell_volume                      1625.04026434

loop_
_atom_site_label
_atom_site_type_symbol
_atom_type_description
_atom_site_fract_x
_atom_site_fract_y
_atom_site_fract_z
_atom_type_partial_charge
C1    C     C_R   0.497094 0.257758 0.500097 0.843808
C2    C     C_3   0.462779 0.928658 0.640314 -0.371375
C3    C     C_3   0.437339 0.072061 0.384987 -0.392806
C4    C     C_R   0.337877 0.500104 0.500075 0.901374
C5    C     C_3   0.588190 0.073793 0.476012 -0.423078
C6    C     C_3   0.496343 0.121563 0.500618 0.148968
C7    C     C_3   0.497469 0.878879 0.500117 0.062233
C8    C     C_3   0.437041 0.928179 0.385745 -0.371893
C9    C     C_3   0.590131 0.928914 0.480671 -0.187310
C10   C     C_3   0.428797 0.420205 0.081280 -0.261503
C11   C     C_3   0.434233 0.409609 0.919667 -0.245752
C12   C     C_3   0.083000 0.505293 0.498378 0.062957
C13   C     C_3   0.483707 0.627567 0.081563 -0.361941
C14   C     C_3   0.581670 0.454685 0.079879 -0.076695
C15   C     C_3   0.482392 0.625584 0.918464 0.413423
C16   C     C_R   0.497845 0.742368 0.500188 0.848044
C17   C     C_3   0.582097 0.456034 0.917243 -0.383953
C18   C     C_R   0.662114 0.500170 0.499913 0.950890
C19   C     C_3   0.972427 0.400699 0.563751 -0.194582
C20   C     C_3   0.028618 0.401356 0.432209 -0.260795
C21   C     C_1   0.249053 0.501517 0.500135 -0.166178
C22   C     C_1   0.750927 0.501659 0.499717 -0.111014
C23   C     C_3   0.971209 0.608441 0.566559 -0.257668
C24   C     C_3   0.028453 0.504233 0.629883 -0.154617
C25   C     C_2   0.636661 0.874856 0.356810 0.937377
C26   C     C_2   0.607820 0.325530 0.131189 0.961037
C27   C     C_2   0.056315 0.724500 0.362263 0.911523
C28   C     C_3   0.916920 0.504675 0.500463 0.150084
C29   C     C_3   0.027174 0.608617 0.435684 -0.066745
C30   C     C_3   0.972160 0.505754 0.371906 0.452897
C31   C     C_1   0.173815 0.503200 0.499551 0.021512
C32   C     C_1   0.826155 0.503182 0.499889 0.039381
C33   C     C_3   0.463274 0.072091 0.641174 -0.416095
H1    H     H_    0.053345 0.317859 0.375863 0.162272
H2    H     H_    0.365868 0.460695 0.110260 0.149290
H3    H     H_    0.947939 0.315949 0.616957 0.162243
H4    H     H_    0.429602 0.325597 0.128815 0.198838
H5    H     H_    0.449962 0.310988 0.890246 0.184373
H6    H     H_    0.370880 0.428459 0.873892 0.157939
H7    H     H_    0.423688 0.667730 0.124088 0.180244
H8    H     H_    0.632045 0.521100 0.114409 0.136524
H9    H     H_    0.599179 0.362507 0.873110 0.197956
H10   H     H_    0.632830 0.520754 0.881116 0.151804
H11   H     H_    0.534839 0.691662 0.117169 0.166602
H12   H     H_    0.396864 0.894296 0.658086 0.208332
H13   H     H_    0.534000 0.689003 0.882697 0.111505
H14   H     H_    0.946049 0.692543 0.621328 0.174457
H15   H     H_    0.053754 0.503348 0.736432 0.157559
H16   H     H_    0.397846 0.108153 0.661478 0.171303
H17   H     H_    0.504774 0.104967 0.726689 0.199941
H18   H     H_    0.502657 0.894572 0.727240 0.198493
H19   H     H_    0.647267 0.863478 0.150262 0.338101
H20   H     H_    0.357848 0.638422 0.916243 0.323486
H21   H     H_    0.590459 0.137743 0.123507 0.363265
H22   H     H_    0.990166 0.505126 0.176859 0.323779
H23   H     H_    0.371451 0.108234 0.400374 0.154011
H24   H     H_    0.154587 0.828948 0.294872 0.338566
H25   H     H_    0.371177 0.894181 0.404732 0.168580
H26   H     H_    0.612136 0.109845 0.375836 0.213915
H27   H     H_    0.631200 0.111847 0.556851 0.157078
H28   H     H_    0.627052 0.901036 0.573704 0.123356
H29   H     H_    0.459435 0.104880 0.282439 0.218710
H30   H     H_    0.455880 0.892610 0.282458 0.222429
N1    N     N_3   0.498170 0.499750 0.138610 -0.094455
N2    N     N_3   0.498850 0.496730 0.861320 -0.063550
O1    O     O_R   0.499980 0.314910 0.616040 -0.638697
O2    O     O_R   0.610384 0.904547 0.223483 -0.840332
O3    O     O_3   0.406255 0.676068 0.865781 -0.754399
O4    O     O_2   0.670599 0.314244 0.204190 -0.616615
O5    O     O_R   0.564289 0.218278 0.087388 -0.858247
O6    O     O_3   0.939693 0.506987 0.238097 -0.723646
O7    O     O_2   0.003677 0.798270 0.316916 -0.586407
O8    O     O_R   0.143110 0.747785 0.346015 -0.822361
O9    O     O_R   0.500040 0.314680 0.383960 -0.626328
O10   O     O_R   0.376750 0.500100 0.616020 -0.593694
O11   O     O_R   0.376810 0.499870 0.383940 -0.626396
O12   O     O_R   0.499960 0.685320 0.616040 -0.593286
O13   O     O_R   0.500020 0.685090 0.383960 -0.628531
O14   O     O_R   0.623190 0.500130 0.616060 -0.647478
O15   O     O_R   0.623250 0.499900 0.383980 -0.578002
O16   O     O_2   0.698167 0.805991 0.374098 -0.622729
Zn1   Zn    Zn3+2 0.499960 0.500150 0.654960 0.946399
Zn2   Zn    Zn3+2 0.500040 0.499850 0.345040 0.952293

loop_
_geom_bond_atom_site_label_1
_geom_bond_atom_site_label_2
_ccdc_geom_bond_type
C12   C29   S    
C27   C29   S    
C2    C7    S    
C25   O2    S    
O9    Zn2   S    
C3    C6    S    
C30   O6    S    
C9    C25   S    
C7    C8    S    
C20   C30   S    
C21   C31   T    
C22   C32   T    
C10   H4    S    
C9    H28   S    
C1    O9    A    
C23   C29   S    
C19   H3    S    
C5    C6    S    
C33   H16   S    
C15   N2    S    
C16   O12   A    
H24   O8    S    
H20   O3    S    
C17   H9    S    
C4    O10   A    
C8    H25   S    
O13   Zn2   S    
C19   C20   S    
C18   O14   A    
C13   H7    S    
C23   C24   S    
C10   H2    S    
C20   H1    S    
C25   O16   D    
C14   C17   S    
O15   Zn2   S    
O11   Zn2   S    
C2    H12   S    
C23   H14   S    
C5    H26   S    
C1    C6    S    
C24   H15   S    
C28   C32   S    
C3    C8    S    
C10   C11   S    
C33   H17   S    
C11   H5    S    
C17   H10   S    
N1    Zn2   S    
C5    C9    S    
C29   C30   S    
O1    Zn1   S    
C3    H23   S    
H21   O5    S    
C14   N1    S    
C12   C20   S    
C1    O1    A    
C23   C28   S    
C14   C26   S    
C11   H6    S    
C19   C28   S    
H19   O2    S    
C14   H8    S    
C2    C33   S    
C7    C16   S    
C13   C15   S    
C12   C31   S    
C26   O5    S    
C3    H29   S    
C7    C9    S    
C5    H27   S    
C18   C22   S    
C10   N1    S    
O14   Zn1   S    
O10   Zn1   S    
C12   C24   S    
C17   N2    S    
C6    C33   S    
C28   C30   S    
C19   C24   S    
C4    C21   S    
N2    Zn1   S    
C13   N1    S    
O12   Zn1   S    
C15   O3    S    
C16   O13   A    
C4    O11   A    
C2    H18   S    
C8    H30   S    
C18   O15   A    
C26   O4    D    
C15   H13   S    
C27   O8    S    
C13   H11   S    
H22   O6    S    
C27   O7    D    
C11   N2    S    
