data_mof_unit_19778.cif
_audit_creation_date              2012-12-10T17:36:46-0500
_audit_creation_method            fapswitch 2.2
_symmetry_space_group_name_H-M    P1
_symmetry_Int_Tables_number       1
_space_group_crystal_system       triclinic
_cell_length_a                    12.001662
_cell_length_b                    12.748855
_cell_length_c                    15.715571
_cell_angle_alpha                 90.418991
_cell_angle_beta                  85.93718
_cell_angle_gamma                 95.396661
_cell_volume                      2387.92434906

loop_
_atom_site_label
_atom_site_type_symbol
_atom_type_description
_atom_site_fract_x
_atom_site_fract_y
_atom_site_fract_z
_atom_type_partial_charge
C1    C     C_R   0.524225 0.700811 0.497086 0.990248
C2    C     C_R   0.548817 0.028310 0.507628 -0.160913
C3    C     C_R   0.951294 0.401828 0.419793 0.564042
C4    C     C_R   0.048838 0.598831 0.579699 0.572676
C5    C     C_R   0.835798 0.411382 0.427858 0.523853
C6    C     C_R   0.164262 0.588874 0.571938 0.526298
C7    C     C_R   0.859553 0.542798 0.534468 0.742320
C8    C     C_R   0.140498 0.457576 0.465254 0.742044
C9    C     C_R   0.976846 0.536186 0.528928 -0.454926
C10   C     C_R   0.023246 0.464357 0.470668 -0.448992
C11   C     C_R   0.499890 0.500292 0.662005 0.910347
C12   C     C_R   0.475860 0.299163 0.501298 0.987157
C13   C     C_R   0.500060 0.499690 0.338003 0.906463
C14   C     C_3   0.434659 0.571529 0.033399 0.051835
C15   C     C_3   0.557067 0.419756 0.967450 0.066356
C16   C     C_3   0.539809 0.591083 0.970641 0.071186
C17   C     C_3   0.451902 0.400905 0.030500 0.062886
C18   C     C_1   0.498716 0.499615 0.750862 -0.131445
C19   C     C_1   0.500205 0.498137 0.249196 -0.113779
C20   C     C_3   0.388338 0.477008 0.979784 0.076834
C21   C     C_3   0.603582 0.514524 0.020642 0.073364
C22   C     C_3   0.493372 0.496596 0.917332 0.026202
C23   C     C_R   0.644098 0.977420 0.527519 0.027721
C24   C     C_3   0.498368 0.495594 0.082992 0.003368
C25   C     C_1   0.495994 0.498494 0.826213 -0.081229
C26   C     C_1   0.499954 0.496708 0.173987 -0.075752
C27   C     C_R   0.458218 0.186591 0.497537 -0.311386
C28   C     C_R   0.543403 0.813247 0.490325 -0.332799
C29   C     C_3   0.585501 0.696026 0.928194 -0.386311
C30   C     C_3   0.635219 0.776481 0.991643 -0.367497
C31   C     C_3   0.651949 0.886972 0.953289 -0.854098
C32   C     C_3   0.404867 0.299042 0.077368 -0.387490
C33   C     C_3   0.358540 0.212152 0.017972 -0.366487
C34   C     C_R   0.370616 0.027858 0.436411 0.001888
C35   C     C_3   0.340890 0.105765 0.063290 -0.853845
C36   C     C_3   0.363208 0.651210 0.079888 -0.400183
C37   C     C_3   0.326059 0.734255 0.020240 -0.356661
C38   C     C_3   0.226488 0.786979 0.061126 -0.860796
C39   C     C_3   0.622753 0.337275 0.919242 -0.396633
C40   C     C_3   0.675656 0.264236 0.978677 -0.361812
C41   C     C_3   0.750317 0.192091 0.927926 -0.848560
C42   C     C_3   0.720324 0.535109 0.055133 -0.408351
C43   C     C_3   0.815634 0.545989 0.984428 -0.342022
C44   C     C_3   0.927929 0.580125 0.020914 -0.865610
C45   C     C_R   0.635450 0.867940 0.525332 0.516487
C46   C     C_3   0.264320 0.456254 0.960088 -0.420496
C47   C     C_3   0.247630 0.394934 0.876884 -0.334886
C48   C     C_3   0.125451 0.351073 0.871897 -0.861655
C49   C     C_3   0.756913 0.035573 0.545908 -0.271170
C50   C     C_3   0.848470 0.014791 0.476025 -0.410679
C51   C     C_3   0.956247 0.085932 0.487138 -0.740396
C52   C     C_3   0.269037 0.974199 0.395149 -0.294195
C53   C     C_3   0.191158 0.907814 0.460403 -0.272352
C54   C     C_3   0.100268 0.839817 0.416832 -0.840487
C55   C     C_R   0.374470 0.136500 0.450412 0.506896
C56   C     C_R   0.465617 0.865668 0.449872 0.527173
C57   C     C_R   0.536839 0.131097 0.532990 0.539538
C58   C     C_R   0.461105 0.973494 0.462996 -0.153830
F1    F     F_    0.594930 0.177017 0.596897 -0.686648
F2    F     F_    0.008620 0.669219 0.636483 -0.568463
F3    F     F_    0.394201 0.808517 0.400180 -0.686945
F4    F     F_    0.297064 0.193812 0.418415 -0.609327
F5    F     F_    0.715553 0.815068 0.558526 -0.606617
F6    F     F_    0.188114 0.389682 0.410102 -0.538311
F7    F     F_    0.811931 0.610830 0.589511 -0.540667
F8    F     F_    0.233169 0.649049 0.621283 -0.612311
F9    F     F_    0.766896 0.351152 0.378540 -0.611681
F10   F     F_    0.991638 0.332032 0.362533 -0.576833
H1    H     H_    0.708777 0.887880 0.894289 0.280813
H2    H     H_    0.304638 0.045014 0.019550 0.251168
H3    H     H_    0.276452 0.231390 0.997271 0.236855
H4    H     H_    0.416560 0.204957 0.960639 0.227290
H5    H     H_    0.472718 0.270815 0.113231 0.210594
H6    H     H_    0.336623 0.317858 0.124962 0.221835
H7    H     H_    0.152980 0.727957 0.073246 0.263769
H8    H     H_    0.248618 0.825084 0.122258 0.268842
H9    H     H_    0.203207 0.848176 0.017498 0.253326
H10   H     H_    0.395966 0.796290 0.006432 0.232496
H11   H     H_    0.302726 0.698818 0.958591 0.230158
H12   H     H_    0.570164 0.913600 0.937971 0.258519
H13   H     H_    0.288618 0.605955 0.112273 0.220138
H14   H     H_    0.411748 0.691961 0.130099 0.204912
H15   H     H_    0.700462 0.142470 0.883188 0.273996
H16   H     H_    0.819863 0.239433 0.891297 0.264955
H17   H     H_    0.787002 0.139674 0.972318 0.250722
H18   H     H_    0.727109 0.310816 0.023955 0.233311
H19   H     H_    0.609185 0.214334 0.015926 0.233758
H20   H     H_    0.565379 0.289399 0.878589 0.203816
H21   H     H_    0.688786 0.379108 0.875586 0.211764
H22   H     H_    0.925319 0.658306 0.052290 0.259163
H23   H     H_    0.690032 0.942912 0.999911 0.250368
H24   H     H_    0.947943 0.521425 0.068075 0.271320
H25   H     H_    0.995531 0.586210 0.968650 0.258043
H26   H     H_    0.822810 0.469457 0.951651 0.230558
H27   H     H_    0.799004 0.604812 0.936456 0.238232
H28   H     H_    0.721736 0.607815 0.094494 0.202968
H29   H     H_    0.733646 0.469564 0.098287 0.211932
H30   H     H_    0.100058 0.294151 0.924480 0.257971
H31   H     H_    0.069677 0.415990 0.876304 0.271605
H32   H     H_    0.115311 0.309644 0.810138 0.257166
H33   H     H_    0.270641 0.448626 0.821825 0.248713
H34   H     H_    0.579702 0.778138 0.051072 0.226480
H35   H     H_    0.302030 0.329107 0.871210 0.219552
H36   H     H_    0.218483 0.412802 0.014902 0.212768
H37   H     H_    0.226769 0.531837 0.955209 0.207947
H38   H     H_    0.940021 0.170199 0.484928 0.286480
H39   H     H_    0.990243 0.069560 0.549111 0.250529
H40   H     H_    0.019744 0.071432 0.434647 0.272904
H41   H     H_    0.867713 0.931342 0.477795 0.277832
H42   H     H_    0.818604 0.030514 0.412346 0.240579
H43   H     H_    0.754839 0.121805 0.547495 0.260885
H44   H     H_    0.781561 0.010737 0.609035 0.232244
H45   H     H_    0.717972 0.754531 0.008797 0.232079
H46   H     H_    0.051291 0.889467 0.378596 0.248671
H47   H     H_    0.138809 0.781093 0.374359 0.277542
H48   H     H_    0.042251 0.797076 0.465805 0.279501
H49   H     H_    0.238543 0.855526 0.497473 0.283099
H50   H     H_    0.150981 0.961207 0.506831 0.217222
H51   H     H_    0.218427 0.032888 0.368297 0.227418
H52   H     H_    0.295849 0.927603 0.338769 0.243809
H53   H     H_    0.650930 0.681130 0.877150 0.215128
H54   H     H_    0.515982 0.728091 0.896764 0.210628
H55   H     H_    0.422181 0.081726 0.082341 0.259234
H56   H     H_    0.282228 0.110069 0.120887 0.277117
N1    N     N_R   0.207800 0.519340 0.515560 -0.246061
N2    N     N_R   0.792200 0.480660 0.484440 -0.246362
O1    O     O_R   0.421700 0.658830 0.504150 -0.542673
O2    O     O_R   0.578300 0.341170 0.495850 -0.553336
O3    O     O_R   0.609310 0.646410 0.494170 -0.561383
O4    O     O_R   0.390690 0.353590 0.505830 -0.560942
O5    O     O_R   0.406210 0.506220 0.628210 -0.601573
O6    O     O_R   0.593790 0.493780 0.371790 -0.599044
O7    O     O_R   0.593830 0.493800 0.618230 -0.567877
O8    O     O_R   0.406170 0.506200 0.381770 -0.564815
Zn1   Zn    Zn3+2 0.374730 0.508290 0.506660 1.092268
Zn2   Zn    Zn3+2 0.625270 0.491710 0.493340 1.089420

loop_
_geom_bond_atom_site_label_1
_geom_bond_atom_site_label_2
_ccdc_geom_bond_type
C55   F4    S    
C11   C18   S    
C16   C21   S    
C47   H33   S    
C13   O8    A    
C3    F10   S    
C5    F9    S    
C17   C20   S    
C28   C56   A    
C2    C57   A    
C31   H12   S    
C38   H8    S    
C53   C54   S    
C37   H11   S    
C37   C38   S    
C6    F8    S    
C12   O4    A    
C23   C45   A    
C40   H19   S    
C36   C37   S    
O1    Zn1   S    
O5    Zn1   S    
C11   O7    A    
C32   H6    S    
C30   C31   S    
C27   C55   A    
C23   C49   S    
C14   C24   S    
C41   H15   S    
C46   H37   S    
C50   H42   S    
C43   H26   S    
C15   C17   S    
C40   H18   S    
C19   C26   T    
C44   H25   S    
C33   H4    S    
C15   C22   S    
O4    Zn1   S    
C35   H2    S    
C36   H14   S    
C51   H40   S    
C22   C25   S    
C54   H48   S    
C5    N2    A    
O7    Zn2   S    
C43   H27   S    
C9    C10   A    
C44   H24   S    
C49   H43   S    
N1    Zn1   S    
N2    Zn2   S    
C34   C55   A    
C54   H47   S    
C30   H34   S    
C18   C25   T    
C39   H20   S    
C38   H7    S    
C48   H32   S    
C28   C45   A    
C17   C24   S    
C47   H35   S    
C13   C19   S    
C12   C27   S    
C14   C20   S    
C4    C6    A    
C27   C57   A    
C42   H29   S    
C32   H5    S    
C53   H50   S    
C16   C29   S    
C41   H16   S    
C46   H36   S    
C45   F5    S    
C50   H41   S    
C29   H53   S    
C43   C44   S    
C29   C30   S    
C7    F7    S    
O3    Zn2   S    
C47   C48   S    
C15   C21   S    
C36   H13   S    
O6    Zn2   S    
C29   H54   S    
C4    F2    S    
C50   C51   S    
C1    C28   S    
C15   C39   S    
C8    F6    S    
C49   H44   S    
C52   H52   S    
C8    C10   A    
C40   C41   S    
C20   C22   S    
C31   H23   S    
C14   C16   S    
C42   C43   S    
C39   C40   S    
C44   H22   S    
C52   C53   S    
C7    C9    A    
C48   H31   S    
C46   C47   S    
C35   H56   S    
C16   C22   S    
C34   C52   S    
C1    O1    A    
C6    N1    A    
C24   C26   S    
C3    C5    A    
C11   O5    A    
C2    C58   A    
O8    Zn1   S    
C12   O2    A    
C38   H9    S    
C41   H17   S    
C37   H10   S    
C1    O3    A    
C42   H28   S    
C32   C33   S    
O2    Zn2   S    
C3    C10   A    
C14   C36   S    
C51   H38   S    
C54   H46   S    
C35   H55   S    
C33   C35   S    
C13   O6    A    
C56   C58   A    
C53   H49   S    
C48   H30   S    
C7    N2    A    
C57   F1    S    
C33   H3    S    
C21   C42   S    
C52   H51   S    
C8    N1    A    
C31   H1    S    
C51   H39   S    
C49   C50   S    
C21   C24   S    
C2    C23   A    
C34   C58   A    
C17   C32   S    
C56   F3    S    
C4    C9    A    
C39   H21   S    
C20   C46   S    
C30   H45   S    
