data_mof_unit_35923.cif
_audit_creation_date              2012-12-10T20:44:42-0500
_audit_creation_method            fapswitch 2.2
_symmetry_space_group_name_H-M    P1
_symmetry_Int_Tables_number       1
_space_group_crystal_system       triclinic
_cell_length_a                    9.863325
_cell_length_b                    10.703166
_cell_length_c                    16.812801
_cell_angle_alpha                 89.15291
_cell_angle_beta                  93.705278
_cell_angle_gamma                 90.139967
_cell_volume                      1771.00162363

loop_
_atom_site_label
_atom_site_type_symbol
_atom_type_description
_atom_site_fract_x
_atom_site_fract_y
_atom_site_fract_z
_atom_type_partial_charge
C1    C     C_R   0.499455 0.259891 0.498900 0.906761
C2    C     C_R   0.651635 0.466291 0.782108 -0.252268
C3    C     C_R   0.561124 0.400537 0.143634 -0.149600
C4    C     C_R   0.559318 0.401252 0.225802 0.223056
C5    C     C_R   0.480331 0.485518 0.096810 0.292831
C6    C     C_R   0.476708 0.488130 0.261717 -0.100234
C7    C     C_R   0.393008 0.569788 0.215369 -0.249646
C8    C     C_R   0.395676 0.568788 0.133002 -0.119633
C9    C     C_R   0.611337 0.065416 0.468433 0.137948
C10   C     C_R   0.495442 0.128646 0.487806 -0.105739
C11   C     C_R   0.371781 0.064192 0.489944 -0.182063
C12   C     C_R   0.516889 0.495976 0.653486 0.921762
C13   C     C_R   0.371820 0.935339 0.487857 -0.172283
C14   C     C_R   0.495213 0.871746 0.482567 -0.179999
C15   C     C_R   0.610638 0.938133 0.463018 0.105941
C16   C     C_3   0.756034 0.928325 0.493681 0.310935
C17   C     C_3   0.753647 0.069295 0.504307 -0.559619
C18   C     C_R   0.078796 0.474178 0.568479 0.228506
C19   C     C_R   0.064618 0.529603 0.432993 -0.102758
C20   C     C_R   0.920954 0.528074 0.432768 0.015432
C21   C     C_R   0.935905 0.475393 0.568658 0.212743
C22   C     C_3   0.934127 0.356250 0.615413 -0.485589
C23   C     C_R   0.499462 0.740097 0.496303 0.893115
C24   C     C_3   0.087285 0.353582 0.614164 -0.475718
C25   C     C_R   0.483422 0.498414 0.347121 0.932972
C26   C     C_R   0.525248 0.474384 0.739326 -0.160002
C27   C     C_R   0.405936 0.449939 0.777548 -0.298860
C28   C     C_R   0.411263 0.415703 0.857450 0.420898
C29   C     C_R   0.538394 0.414019 0.901065 0.138714
C30   C     C_R   0.658408 0.436076 0.862882 0.246927
H1    H     H_    0.277797 0.886481 0.497046 0.209264
H2    H     H_    0.771203 0.874017 0.550433 0.097449
H3    H     H_    0.757407 0.095495 0.568142 0.164222
H4    H     H_    0.822266 0.124479 0.467454 0.265661
H5    H     H_    0.112525 0.552638 0.378617 0.158355
H6    H     H_    0.861419 0.547454 0.377836 0.195941
H7    H     H_    0.898353 0.369372 0.675997 0.225558
H8    H     H_    0.883467 0.279646 0.581254 0.213302
H9    H     H_    0.138375 0.363097 0.674296 0.233925
H10   H     H_    0.626372 0.334045 0.116868 0.203670
H11   H     H_    0.125440 0.275614 0.578784 0.212502
H12   H     H_    0.744773 0.484405 0.753257 0.195888
H13   H     H_    0.329146 0.636640 0.243012 0.175356
H14   H     H_    0.332646 0.633657 0.097137 0.187596
H15   H     H_    0.308174 0.456363 0.745125 0.200097
H16   H     H_    0.277342 0.111642 0.499286 0.182970
N1    N     N_2   0.545676 0.404265 0.984297 -0.106357
N2    N     N_2   0.480940 0.490344 0.013168 -0.109986
N3    N     N_R   0.142860 0.499130 0.500540 -0.117179
N4    N     N_R   0.857210 0.499170 0.500530 -0.120556
O1    O     O_R   0.614690 0.316790 0.499990 -0.607039
O2    O     O_R   0.385350 0.316760 0.500000 -0.628937
O3    O     O_R   0.627460 0.498860 0.616130 -0.628297
O4    O     O_R   0.398120 0.498820 0.616130 -0.620433
O5    O     O_R   0.614650 0.683240 0.500000 -0.596831
O6    O     O_R   0.385310 0.683210 0.500010 -0.617035
O7    O     O_R   0.601880 0.501180 0.383870 -0.582669
O8    O     O_R   0.372540 0.501140 0.383870 -0.630815
Zn1   Zn    Zn3+2 0.653130 0.500020 0.499990 1.008012
Zn2   Zn    Zn3+2 0.346870 0.499980 0.500010 0.970273
Br1   Br    Br    0.667918 0.278661 0.285507 -0.440997
S1    S     S_3+6 0.861259 0.879324 0.416706 0.039542
O9    O     O_2   0.791256 0.775781 0.370724 -0.301144
O10   O     O_2   0.887287 0.985570 0.360137 -0.246595
O11   O     O_3   0.009913 0.827574 0.459131 -0.584888
H17   H     H_    0.065364 0.807956 0.413875 0.370775
Br2   Br    Br    0.832246 0.432069 0.920821 -0.358621
S2    S     S_3+6 0.257741 0.376739 0.901188 0.060249
O12   O     O_2   0.198552 0.493324 0.933581 -0.260669
O13   O     O_2   0.158029 0.322564 0.839580 -0.284358
O14   O     O_3   0.287403 0.271825 0.975727 -0.522758
H18   H     H_    0.201065 0.266457 0.002590 0.401025

loop_
_geom_bond_atom_site_label_1
_geom_bond_atom_site_label_2
_ccdc_geom_bond_type
C14   C23   S    
C5    C8    A    
S1    O10   D    
C23   O5    A    
S1    O9    D    
O5    Zn1   S    
C16   H2    S    
C18   C21   A    
C11   C13   A    
C9    C10   A    
C19   N3    A    
C19   C20   A    
C30   Br2   S    
C2    C30   A    
C27   H15   S    
O3    Zn1   S    
O14   H18   S    
C2    C26   A    
O4    Zn2   S    
C13   C14   A    
C25   O8    A    
C24   H11   S    
C1    O1    A    
C26   C27   A    
C29   C30   A    
N3    Zn2   S    
C17   H3    S    
C2    H12   S    
S2    O14   S    
C18   C24   S    
N4    Zn1   S    
C16   C17   S    
S2    O13   D    
C21   N4    A    
C1    O2    A    
C29   N1    S    
C3    H10   S    
O11   H17   S    
C6    C7    A    
C7    H13   S    
C9    C15   A    
C5    N2    S    
C22   C24   S    
O7    Zn1   S    
C6    C25   S    
O1    Zn1   S    
C17   H4    S    
O8    Zn2   S    
C3    C4    A    
C22   H8    S    
N1    N2    D    
C8    H14   S    
C25   O7    A    
C23   O6    A    
C24   H9    S    
O6    Zn2   S    
C4    C6    A    
C7    C8    A    
C10   C11   A    
C9    C17   S    
C27   C28   A    
C19   H5    S    
C13   H1    S    
C14   C15   A    
C28   C29   A    
C11   H16   S    
C20   N4    A    
O2    Zn2   S    
S1    O11   S    
C28   S2    S    
C21   C22   S    
C22   H7    S    
C4    Br1   S    
C16   S1    S    
C15   C16   S    
C12   O4    A    
C1    C10   S    
C12   O3    A    
C18   N3    A    
C12   C26   S    
S2    O12   D    
C3    C5    A    
C20   H6    S    
