data_mof_unit_20475.cif
_audit_creation_date              2012-10-26T18:29:56-0400
_audit_creation_method            fapswitch 2.2
_symmetry_space_group_name_H-M    P1
_symmetry_Int_Tables_number       1
_space_group_crystal_system       triclinic
_cell_length_a                    10.826653
_cell_length_b                    13.118816
_cell_length_c                    11.68246
_cell_angle_alpha                 100.273688
_cell_angle_beta                  95.411189
_cell_angle_gamma                 90.429065
_cell_volume                      1624.91346709

loop_
_atom_site_label
_atom_site_type_symbol
_atom_type_description
_atom_site_fract_x
_atom_site_fract_y
_atom_site_fract_z
_atom_type_partial_charge
C1    C     C_R   0.497517 0.298973 0.477526 0.606561
C2    C     C_R   0.496468 0.031122 0.549935 0.020719
C3    C     C_R   0.475654 0.968537 0.438091 0.004032
C4    C     C_R   0.259495 0.495907 0.498080 0.574846
C5    C     C_R   0.472941 0.859981 0.426562 0.076799
C6    C     C_R   0.506418 0.878356 0.639021 -0.130908
C7    C     C_R   0.509529 0.985589 0.649686 -0.117389
C8    C     C_R   0.392551 0.393622 0.017127 -0.151286
C9    C     C_R   0.400625 0.406241 0.140228 0.079734
C10   C     C_R   0.546578 0.543868 0.159488 0.075020
C11   C     C_R   0.538624 0.535702 0.036529 -0.012176
C12   C     C_3   0.877033 0.484411 0.501450 -0.082463
C13   C     C_R   0.462194 0.459213 0.963599 -0.001449
C14   C     C_R   0.457303 0.451370 0.839757 0.045478
C15   C     C_R   0.593946 0.597925 0.863995 0.199742
C16   C     C_R   0.498915 0.701059 0.520682 0.593447
C17   C     C_R   0.603858 0.604296 0.985923 -0.141142
C18   C     C_R   0.739321 0.491268 0.500248 0.587459
C19   C     C_3   0.085884 0.434028 0.594728 -0.281316
C20   C     C_3   0.942094 0.432310 0.605262 0.040453
C21   C     C_3   0.069002 0.602885 0.521431 -0.082660
C22   C     C_3   0.057700 0.424888 0.374135 0.082817
C23   C     C_3   0.925812 0.598402 0.515547 -0.277292
C24   C     C_3   0.120699 0.490342 0.493887 -0.065898
C25   C     C_2   0.117118 0.680087 0.452438 0.608766
C26   C     C_2   0.451767 0.796483 0.307184 0.579611
C27   C     C_2   0.461445 0.161214 0.236877 0.608712
C28   C     C_2   0.657478 0.684157 0.824885 0.597978
C29   C     C_2   0.892858 0.321252 0.600425 0.654233
C30   C     C_2   0.919645 0.492479 0.727498 0.604122
C31   C     C_2   0.108318 0.314313 0.356004 0.596971
C32   C     C_2   0.842725 0.330163 0.316575 0.647061
C33   C     C_3   0.913067 0.429093 0.377243 -0.081727
C34   C     C_R   0.492045 0.814397 0.528653 0.014558
C35   C     C_R   0.492177 0.185389 0.461144 0.016633
C36   C     C_R   0.458992 0.015830 0.339293 -0.105417
C37   C     C_R   0.470221 0.122285 0.348662 0.065239
C38   C     C_R   0.503740 0.138665 0.560676 -0.118558
Cu1   Cu    Cu3+1 0.509350 0.507730 0.615930 1.065603
Cu2   Cu    Cu3+1 0.490650 0.492270 0.384070 1.084184
H1    H     H_    0.136182 0.472397 0.679073 0.159971
H2    H     H_    0.331996 0.333415 0.964679 0.132394
H3    H     H_    0.661340 0.664853 0.042064 0.170434
H4    H     H_    0.346856 0.355103 0.179774 0.213550
H5    H     H_    0.608558 0.600947 0.215152 0.159691
H6    H     H_    0.102349 0.635465 0.613994 0.163610
H7    H     H_    0.894560 0.647972 0.594213 0.200174
H8    H     H_    0.085325 0.767033 0.326833 0.376072
H9    H     H_    0.335265 0.703175 0.187953 0.347961
H10   H     H_    0.549749 0.226991 0.122924 0.326486
H11   H     H_    0.701212 0.837254 0.857491 0.341977
H12   H     H_    0.879681 0.482608 0.317862 0.139937
H13   H     H_    0.928245 0.171275 0.607126 0.358865
H14   H     H_    0.841187 0.495359 0.878495 0.344896
H15   H     H_    0.091657 0.164905 0.375015 0.358756
H16   H     H_    0.808491 0.225789 0.167085 0.368893
H17   H     H_    0.882026 0.633467 0.442343 0.175046
H18   H     H_    0.516443 0.845404 0.717611 0.176419
H19   H     H_    0.440127 0.970374 0.252355 0.174674
H20   H     H_    0.523233 0.032967 0.736140 0.135806
H21   H     H_    0.519362 0.185955 0.647132 0.146846
H22   H     H_    0.398935 0.391933 0.783426 0.121109
H23   H     H_    0.126163 0.355987 0.582367 0.181274
I1    I     I_    0.094385 0.485468 0.216366 -0.217567
N1    N     N_R   0.523430 0.519360 0.790130 -0.247205
N2    N     N_R   0.476570 0.480640 0.209880 -0.241246
O1    O     O_R   0.506640 0.354460 0.582000 -0.511567
O2    O     O_R   0.041510 0.714359 0.363698 -0.672585
O3    O     O_2   0.533124 0.792306 0.240767 -0.540004
O4    O     O_R   0.338420 0.743528 0.270748 -0.636225
O5    O     O_2   0.366548 0.144921 0.170135 -0.497163
O6    O     O_R   0.564657 0.209257 0.203976 -0.650471
O7    O     O_2   0.724521 0.668322 0.746008 -0.480194
O8    O     O_R   0.648996 0.784932 0.887289 -0.707656
O9    O     O_2   0.781328 0.304746 0.599136 -0.449947
O10   O     O_R   0.973577 0.239485 0.608615 -0.672305
O11   O     O_2   0.969144 0.577610 0.764647 -0.518279
O12   O     O_R   0.490840 0.341410 0.386200 -0.457125
O13   O     O_R   0.846016 0.449020 0.799785 -0.633539
O14   O     O_2   0.207284 0.297576 0.314840 -0.499677
O15   O     O_R   0.046355 0.232620 0.390380 -0.654150
O16   O     O_2   0.773571 0.284006 0.367558 -0.428895
O17   O     O_R   0.857243 0.292700 0.198923 -0.652424
O18   O     O_R   0.325590 0.506510 0.597900 -0.534037
O19   O     O_R   0.309790 0.493450 0.402100 -0.444501
O20   O     O_R   0.509160 0.658590 0.613800 -0.492509
O21   O     O_R   0.493360 0.645540 0.418000 -0.480953
O22   O     O_R   0.690210 0.506550 0.597900 -0.421754
O23   O     O_R   0.674410 0.493490 0.402100 -0.527440
O24   O     O_2   0.222359 0.716167 0.478526 -0.486520

loop_
_geom_bond_atom_site_label_1
_geom_bond_atom_site_label_2
_ccdc_geom_bond_type
C8    C13   A    
C6    H18   S    
C19   C20   S    
H11   O8    S    
C36   H19   S    
C28   O8    S    
C31   O14   D    
C29   O10   S    
C20   C30   S    
C33   H12   S    
C12   C23   S    
C25   O24   D    
Cu2   O21   S    
C36   C37   A    
C35   C37   A    
C8    H2    S    
Cu1   O18   S    
H14   O13   S    
C4    C24   S    
C14   H22   S    
C15   C17   A    
C22   C33   S    
H10   O6    S    
C9    N2    A    
C16   C34   S    
C30   O11   D    
C2    C7    A    
C19   H23   S    
C8    C9    A    
C16   O21   A    
Cu2   O23   S    
H15   O15   S    
C38   H21   S    
Cu2   N2    S    
C13   C14   A    
C16   O20   A    
C1    O12   A    
Cu1   N1    S    
C25   O2    S    
Cu1   O22   S    
C28   O7    D    
C20   C29   S    
C10   N2    A    
C23   H7    S    
C22   C31   S    
C35   C38   A    
Cu1   Cu2   S    
C4    O19   A    
C18   O22   A    
C6    C34   A    
Cu2   O19   S    
C17   H3    S    
C2    C38   A    
C4    O18   A    
C5    C34   A    
C12   C20   S    
C10   H5    S    
H8    O2    S    
C30   O13   S    
H9    O4    S    
C21   C23   S    
C26   O4    S    
C22   C24   S    
H13   O10   S    
C7    H20   S    
C27   O5    D    
C1    C35   S    
H16   O17   S    
C21   H6    S    
C23   H17   S    
C32   O17   S    
C21   C25   S    
C11   C17   A    
C9    H4    S    
C18   O23   A    
Cu1   O1    S    
C3    C5    A    
C6    C7    A    
C29   O9    D    
C32   O16   D    
C31   O15   S    
C32   C33   S    
C2    C3    A    
C11   C13   A    
C15   C28   S    
C3    C36   A    
C27   C37   S    
C1    O1    A    
C14   N1    A    
C19   C24   S    
Cu2   O12   S    
C10   C11   A    
C22   I1    S    
C5    C26   S    
C21   C24   S    
C12   C18   S    
C26   O3    D    
Cu1   O20   S    
C12   C33   S    
C27   O6    S    
C19   H1    S    
C15   N1    A    
