data_mof_unit_8165.cif
_audit_creation_date              2013-03-05T15:40:59-0500
_audit_creation_method            fapswitch 2.2
_symmetry_space_group_name_H-M    P1
_symmetry_Int_Tables_number       1
_space_group_crystal_system       triclinic
_cell_length_a                    28.215708
_cell_length_b                    7.188446
_cell_length_c                    17.194852
_cell_angle_alpha                 89.930907
_cell_angle_beta                  101.926679
_cell_angle_gamma                 90.049342
_cell_volume                      3412.29179478

loop_
_atom_site_label
_atom_site_type_symbol
_atom_site_description
_atom_site_fract_x
_atom_site_fract_y
_atom_site_fract_z
_atom_type_partial_charge
O1    O     O_R   0.000700 0.436510 0.857920 -0.553366
O2    O     O_R   0.999300 0.563490 0.142080 -0.558180
O3    O     O_R   0.999300 0.936510 0.642080 -0.555000
O4    O     O_R   0.000700 0.063490 0.357920 -0.553496
O5    O     O_R   0.930080 0.766380 0.721890 -0.529481
O6    O     O_R   0.069920 0.233620 0.278110 -0.562908
O7    O     O_R   0.069920 0.266380 0.778110 -0.532950
O8    O     O_R   0.930080 0.733620 0.221890 -0.567735
C1    C     C_R   0.910509 0.597612 0.709287 0.850508
C2    C     C_R   0.089525 0.402593 0.290021 0.838928
C3    C     C_R   0.089569 0.097740 0.790402 0.839720
C4    C     C_R   0.910530 0.902457 0.209876 0.851346
O9    O     O_R   0.996180 0.766230 0.862310 -0.558389
O10   O     O_R   0.003820 0.233770 0.137690 -0.559659
O11   O     O_R   0.003820 0.266230 0.637690 -0.562500
O12   O     O_R   0.996180 0.733770 0.362310 -0.558038
O13   O     O_R   0.065870 0.936460 0.783500 -0.561879
O14   O     O_R   0.934130 0.063540 0.216500 -0.528975
O15   O     O_R   0.934130 0.436460 0.716500 -0.565221
O16   O     O_R   0.065870 0.563540 0.283500 -0.531514
C5    C     C_R   0.998490 0.596406 0.894487 0.851298
C6    C     C_R   0.001523 0.403602 0.105519 0.842952
C7    C     C_R   0.001511 0.096506 0.605485 0.843305
C8    C     C_R   0.998480 0.903502 0.394512 0.851670
O17   O     O_3   0.022790 0.603020 0.723980 -0.281956
O18   O     O_3   0.977210 0.396980 0.276020 -0.276948
O19   O     O_3   0.977210 0.103020 0.776020 -0.278880
O20   O     O_3   0.022790 0.896980 0.223980 -0.280355
V1    V     V_3+5 0.995770 0.877900 0.754830 1.159460
V2    V     V_3+5 0.004230 0.122100 0.245170 1.158162
V3    V     V_3+5 0.004230 0.377900 0.745170 1.155373
V4    V     V_3+5 0.995770 0.622100 0.254830 1.154408
C9    C     C_2   0.001692 0.082740 0.519531 -0.235299
C10   C     C_2   0.998286 0.917283 0.480460 -0.233384
C11   C     C_2   0.998304 0.582675 0.980407 -0.236926
C12   C     C_2   0.001726 0.417350 0.019606 -0.234590
H1    H     H_    0.004475 0.211708 0.487793 0.106954
H2    H     H_    0.995501 0.788317 0.512199 0.106691
H3    H     H_    0.995506 0.711616 0.012020 0.106353
H4    H     H_    0.004527 0.288411 0.987995 0.108250
C13   C     C_R   0.683827 0.960423 0.031182 0.655610
C14   C     C_R   0.316662 0.044449 0.974297 0.655441
C15   C     C_R   0.317132 0.427289 0.469519 0.657868
C16   C     C_R   0.683131 0.568969 0.526124 0.649032
O21   O     O_2   0.713960 0.974290 0.979868 -0.509296
O22   O     O_2   0.286939 0.053199 0.026404 -0.506294
O23   O     O_2   0.287529 0.415134 0.521733 -0.509849
O24   O     O_2   0.712272 0.604621 0.474763 -0.499953
N1    N     N_R   0.702477 0.931073 0.110308 -0.427961
N2    N     N_R   0.297535 0.047437 0.894262 -0.427372
N3    N     N_R   0.297890 0.427301 0.389520 -0.426523
N4    N     N_R   0.702870 0.544599 0.605204 -0.429411
C17   C     C_R   0.672717 0.919482 0.163791 0.610191
C18   C     C_R   0.327091 0.044157 0.840279 0.601382
C19   C     C_R   0.327184 0.443664 0.335463 0.607465
C20   C     C_R   0.674026 0.511907 0.658793 0.604878
C21   C     C_R   0.779417 0.069988 0.177105 -0.036958
C22   C     C_R   0.224732 0.219800 0.830759 -0.018357
C23   C     C_R   0.220843 0.573159 0.327173 -0.022502
C24   C     C_R   0.775345 0.713727 0.672214 -0.033777
C25   C     C_R   0.830031 0.067837 0.201696 0.108439
C26   C     C_R   0.174297 0.237251 0.804480 0.134715
C27   C     C_R   0.170127 0.572670 0.302346 0.122513
C28   C     C_R   0.825705 0.731266 0.698165 0.116539
C29   C     C_R   0.831175 0.757205 0.146958 -0.213325
C30   C     C_R   0.164958 0.922248 0.850806 -0.205284
C31   C     C_R   0.169114 0.252744 0.348074 -0.209666
C32   C     C_R   0.835664 0.425880 0.643597 -0.212710
C33   C     C_R   0.780308 0.757305 0.123459 0.379844
C34   C     C_R   0.215449 0.903677 0.875636 0.376972
C35   C     C_R   0.219928 0.252248 0.371502 0.383379
C36   C     C_R   0.785182 0.406624 0.618513 0.372587
C37   C     C_R   0.754286 0.917447 0.137910 0.190941
C38   C     C_R   0.245605 0.055755 0.866363 0.178005
C39   C     C_R   0.245980 0.415842 0.361872 0.179965
C40   C     C_R   0.754764 0.553713 0.632518 0.190514
C41   C     C_R   0.602125 0.964706 0.056941 -0.066990
C42   C     C_R   0.398140 0.026405 0.948063 -0.067413
C43   C     C_R   0.398337 0.458481 0.443148 -0.066248
C44   C     C_R   0.602323 0.520671 0.551990 -0.067162
C45   C     C_R   0.633432 0.976738 0.003061 -0.038977
C46   C     C_R   0.367142 0.031848 0.002563 -0.042915
C47   C     C_R   0.367597 0.440617 0.497675 -0.040623
C48   C     C_R   0.632633 0.556616 0.498070 -0.041940
C49   C     C_R   0.613904 0.006067 0.922482 -0.036224
C50   C     C_R   0.387099 0.025016 0.083967 -0.040665
C51   C     C_R   0.387744 0.437852 0.579037 -0.039744
C52   C     C_R   0.611983 0.579823 0.417500 -0.042411
C53   C     C_R   0.622111 0.936025 0.138154 -0.034853
C54   C     C_R   0.377792 0.034613 0.866128 -0.034683
C55   C     C_R   0.377768 0.460576 0.361225 -0.034019
C56   C     C_R   0.623354 0.499267 0.633233 -0.036066
C57   C     C_R   0.856630 0.910649 0.185923 -0.123354
C58   C     C_R   0.143592 0.087181 0.815343 -0.146470
C59   C     C_R   0.143542 0.410904 0.313714 -0.143607
C60   C     C_R   0.856649 0.586445 0.683507 -0.123195
H5    H     H_    0.851136 0.635937 0.134706 0.135742
H6    H     H_    0.142174 0.805479 0.858855 0.154865
H7    H     H_    0.149383 0.127576 0.356506 0.150609
H8    H     H_    0.858785 0.313399 0.632139 0.142134
H9    H     H_    0.637162 0.018336 0.879859 0.139259
H10   H     H_    0.364192 0.031822 0.127288 0.143815
H11   H     H_    0.364943 0.425945 0.622367 0.140912
H12   H     H_    0.634335 0.610565 0.374870 0.145422
C61   C     C_R   0.480158 0.013361 0.919581 0.022483
C62   C     C_R   0.520041 0.974259 0.085257 0.022624
C63   C     C_R   0.521008 0.474407 0.580345 0.021967
C64   C     C_R   0.479792 0.499090 0.414628 0.022441
C65   C     C_R   0.469091 0.997815 0.058260 0.019302
C66   C     C_R   0.531394 0.005059 0.947153 0.019628
C67   C     C_R   0.530701 0.522601 0.442192 0.020961
C68   C     C_R   0.469729 0.465920 0.553327 0.019770
C69   C     C_R   0.449344 0.012608 0.975416 0.053591
C70   C     C_R   0.550977 0.981443 0.029677 0.053714
C71   C     C_R   0.551130 0.505943 0.524736 0.052846
C72   C     C_R   0.449499 0.474542 0.470480 0.053924
C73   C     C_R   0.458353 0.020883 0.837648 -0.103302
C74   C     C_R   0.541364 0.941642 0.166215 -0.101185
C75   C     C_R   0.543529 0.451134 0.661399 -0.102144
C76   C     C_R   0.457890 0.497459 0.332684 -0.103120
C77   C     C_R   0.408335 0.031147 0.811714 -0.059503
C78   C     C_R   0.591255 0.923253 0.191906 -0.056585
C79   C     C_R   0.593533 0.463606 0.687075 -0.059535
C80   C     C_R   0.408033 0.478508 0.306767 -0.058364
O25   O     O_2   0.307488 0.048362 0.761756 -0.531131
O26   O     O_2   0.691990 0.891110 0.241473 -0.524319
O27   O     O_2   0.694337 0.489868 0.736474 -0.528938
O28   O     O_2   0.307472 0.442825 0.256964 -0.527653
C81   C     C_R   0.564074 0.020159 0.895003 -0.099644
C82   C     C_R   0.436899 0.008327 0.111356 -0.102788
C83   C     C_R   0.437626 0.449984 0.606401 -0.101368
C84   C     C_R   0.562179 0.563581 0.390039 -0.100633
H13   H     H_    0.248262 0.334657 0.823302 0.142976
H14   H     H_    0.759368 0.192111 0.188333 0.134974
H15   H     H_    0.751909 0.825838 0.683089 0.132657
H16   H     H_    0.241239 0.697197 0.319553 0.146520
H17   H     H_    0.393674 0.035986 0.748314 0.129748
H18   H     H_    0.605555 0.898504 0.254539 0.122977
H19   H     H_    0.608766 0.444324 0.749767 0.130552
H20   H     H_    0.393278 0.478179 0.243366 0.129955
H21   H     H_    0.478814 0.015422 0.791355 0.068622
H22   H     H_    0.520449 0.925845 0.211567 0.066639
H23   H     H_    0.523676 0.419479 0.706914 0.067218
H24   H     H_    0.478326 0.507079 0.286437 0.069619
H25   H     H_    0.552499 0.046069 0.832280 0.068164
H26   H     H_    0.449003 0.007229 0.174978 0.072317
H27   H     H_    0.449682 0.449700 0.670017 0.070285
H28   H     H_    0.549500 0.587214 0.327348 0.067079
N5    N     N_R   0.755913 0.594553 0.085703 0.096825
O29   O     O_R   0.779393 0.473535 0.051926 -0.348886
O30   O     O_R   0.711469 0.557483 0.090541 -0.370543
N6    N     N_R   0.235364 0.729821 0.909241 0.095385
O31   O     O_R   0.209276 0.617592 0.942607 -0.345635
O32   O     O_R   0.277969 0.674985 0.900908 -0.381010
N7    N     N_R   0.244348 0.085076 0.404225 0.095667
O33   O     O_R   0.221800 0.962393 0.438961 -0.350585
O34   O     O_R   0.287692 0.046752 0.393911 -0.376656
N8    N     N_R   0.765615 0.237435 0.579648 0.093978
O35   O     O_R   0.792223 0.132533 0.544229 -0.349240
O36   O     O_R   0.722746 0.178730 0.584851 -0.371621
N9    N     N_3   0.154569 0.405697 0.765675 -0.439047
H29   H     H_    0.181577 0.506523 0.768140 0.202219
H30   H     H_    0.142001 0.374663 0.705550 0.179094
N10   N     N_3   0.853969 0.224380 0.244132 -0.454280
H31   H     H_    0.839839 0.243711 0.295168 0.195496
H32   H     H_    0.845524 0.342232 0.208325 0.201425
N11   N     N_3   0.844918 0.894802 0.740897 -0.457057
H33   H     H_    0.829711 0.905864 0.791235 0.194207
H34   H     H_    0.833776 0.010320 0.704789 0.211198
N12   N     N_3   0.145910 0.734974 0.264510 -0.440437
H35   H     H_    0.170299 0.845134 0.265874 0.193482
H36   H     H_    0.133084 0.702407 0.204601 0.182690

loop_
_geom_bond_atom_site_label_1
_geom_bond_atom_site_label_2
_geom_bond_distance
_ccdc_geom_bond_type
O17   V3    1.761181 S    
C31   C59   1.409218 A    
C61   C66   1.426572 A    
N1    C17   1.369896 A    
O1    C5    1.318501 A    
C30   H6    1.082853 S    
C79   H19   1.083632 S    
O19   V1    1.762817 S    
C25   N10   1.432442 S    
O13   V1    1.982035 S    
C63   C68   1.426555 A    
C64   C76   1.416856 A    
O3    C7    1.317944 A    
C11   C12   1.359173 D    
C14   C46   1.409644 A    
C44   C48   1.408739 A    
O4    V2    2.005949 S    
O15   V3    1.982506 S    
N9    H29   1.045746 S    
C36   N8    1.441833 S    
N11   H34   1.045187 S    
C42   C54   1.408385 A    
O7    C3    1.331807 A    
C41   C53   1.408753 A    
C32   C60   1.409445 A    
C62   C70   1.422140 A    
O9    V1    2.011865 S    
N10   H31   1.045637 S    
N3    C39   1.445746 S    
C18   C54   1.409284 A    
C28   N11   1.432504 S    
N2    C38   1.445759 S    
C74   C78   1.391907 A    
O4    C8    1.317905 A    
C25   C57   1.414175 A    
C26   N9    1.437694 S    
C82   H26   1.076579 S    
C53   C78   1.397469 A    
C77   H17   1.083649 S    
C27   C59   1.418325 A    
C23   H16   1.083218 S    
O1    V3    2.006967 S    
C75   H23   1.076395 S    
C66   C81   1.416851 A    
O2    V4    2.006967 S    
C14   O22   1.349409 S    
C20   O27   1.349426 S    
C51   C83   1.391426 A    
O3    V1    2.005949 S    
C73   C77   1.391420 A    
C34   C38   1.413691 A    
C19   C55   1.409470 A    
C52   H12   1.083667 S    
C1    O15   1.329798 A    
C2    O16   1.329162 A    
C7    C9    1.482449 S    
C76   H24   1.076534 S    
O2    C6    1.318452 A    
C31   C35   1.406827 A    
C83   H27   1.076326 S    
O14   V2    1.982035 S    
C66   C70   1.422367 A    
C43   C55   1.408351 A    
C65   C69   1.422182 A    
C30   C58   1.410147 A    
C49   C81   1.391347 A    
C16   N4    1.369814 A    
O11   C7    1.336417 A    
C35   N7    1.440494 S    
O12   C8    1.336454 A    
C43   C72   1.427409 A    
C62   C74   1.417069 A    
N8    O36   1.301119 A    
C61   C73   1.416994 A    
O10   V2    2.011865 S    
C63   C75   1.416970 A    
N9    H30   1.045577 S    
C21   C37   1.400836 A    
O5    V1    1.990854 S    
C22   H13   1.083020 S    
C73   H21   1.076321 S    
C18   O25   1.349475 S    
N7    O33   1.301580 A    
O7    V3    1.991592 S    
N4    C20   1.369579 A    
O8    V4    1.991589 S    
C12   H4    1.086226 S    
C34   N6    1.441104 S    
C78   H18   1.083685 S    
C56   C79   1.397089 A    
N11   H33   1.045631 S    
O18   V4    1.761182 S    
C50   C82   1.391861 A    
C27   N12   1.437785 S    
C16   C48   1.409465 A    
C46   C50   1.397437 A    
O11   V3    2.013633 S    
C24   C40   1.401110 A    
C8    C10   1.482441 S    
C32   C36   1.407101 A    
C84   H28   1.076634 S    
C44   C56   1.408656 A    
C11   H3    1.086232 S    
C32   H8    1.082866 S    
O5    C1    1.331811 A    
C42   C46   1.408431 A    
C1    C60   1.494617 S    
C44   C71   1.427347 A    
C41   C45   1.408568 A    
O8    C4    1.331696 A    
C13   C45   1.409057 A    
C9    C10   1.360237 D    
O9    C5    1.335755 A    
C36   C40   1.414292 A    
N2    C18   1.370274 A    
C19   O28   1.349444 S    
C33   C37   1.415486 A    
N7    O34   1.301284 A    
C24   H15   1.083565 S    
C28   C60   1.415175 A    
C22   C26   1.406900 A    
C14   N2    1.370624 A    
C51   H11   1.083612 S    
C3    C58   1.497706 S    
O6    V2    1.990854 S    
N6    O32   1.301210 A    
C75   C79   1.391393 A    
C55   C80   1.397402 A    
C26   C58   1.419165 A    
C17   C53   1.409723 A    
N8    O35   1.301644 A    
C54   C77   1.397180 A    
N1    C37   1.444020 S    
C4    C57   1.492392 S    
C42   C69   1.427452 A    
C52   C84   1.391732 A    
O10   C6    1.335785 A    
C41   C70   1.427424 A    
C50   H10   1.083586 S    
C23   C39   1.400977 A    
C68   C72   1.422231 A    
C49   H9    1.083579 S    
C22   C38   1.400948 A    
O16   V4    1.982506 S    
C61   C69   1.422203 A    
C3    O13   1.330976 A    
C10   H2    1.086204 S    
C81   H25   1.076368 S    
C80   H20   1.083613 S    
C48   C52   1.397356 A    
C74   H22   1.076632 S    
C47   C51   1.397144 A    
O6    C2    1.332639 A    
C21   C25   1.403189 A    
C5    C11   1.481653 S    
C31   H7    1.082930 S    
O12   V4    2.013634 S    
C13   N1    1.369716 A    
C6    C12   1.481620 S    
C23   C27   1.406218 A    
C64   C67   1.426494 A    
N4    C40   1.443769 S    
C24   C28   1.404241 A    
C33   N5    1.442133 S    
C64   C72   1.422202 A    
N5    O30   1.301162 A    
C29   H5    1.082510 S    
O20   V2    1.762818 S    
N5    O29   1.301630 A    
C35   C39   1.413875 A    
C15   C47   1.409258 A    
C15   N3    1.370514 A    
C30   C34   1.406586 A    
N12   H36   1.045597 S    
C2    C59   1.495263 S    
C29   C33   1.408369 A    
N10   H32   1.044991 S    
C29   C57   1.408160 A    
C63   C71   1.422347 A    
N3    C19   1.370439 A    
C68   C83   1.416938 A    
C21   H14   1.083685 S    
C9    H1    1.086206 S    
C17   O26   1.349380 S    
C43   C47   1.408361 A    
C76   C80   1.391685 A    
C67   C84   1.417019 A    
C20   C56   1.409168 A    
N6    O31   1.301638 A    
N12   H35   1.045768 S    
C4    O14   1.328476 A    
C65   C82   1.416800 A    
C13   O21   1.349465 S    
C67   C71   1.422202 A    
C15   O23   1.349460 S    
C45   C49   1.397051 A    
C16   O24   1.349405 S    
C62   C65   1.426613 A    
