data_mof_unit_25816.cif
_audit_creation_date              2012-10-26T19:21:56-0400
_audit_creation_method            fapswitch 2.2
_symmetry_space_group_name_H-M    P1
_symmetry_Int_Tables_number       1
_space_group_crystal_system       triclinic
_cell_length_a                    23.511154
_cell_length_b                    11.031965
_cell_length_c                    9.804618
_cell_angle_alpha                 111.155955
_cell_angle_beta                  98.153948
_cell_angle_gamma                 90.918395
_cell_volume                      2341.45892162

loop_
_atom_site_label
_atom_site_type_symbol
_atom_type_description
_atom_site_fract_x
_atom_site_fract_y
_atom_site_fract_z
_atom_type_partial_charge
Br1   Br    Br    0.220233 0.402587 0.756961 -0.301201
Br2   Br    Br    0.780899 0.598294 0.247397 -0.312168
C1    C     C_R   0.495824 0.254026 0.440582 0.575106
C2    C     C_R   0.693736 0.535470 0.393011 -0.150127
C3    C     C_R   0.247806 0.461252 0.614946 0.225594
C4    C     C_R   0.752615 0.537503 0.386975 0.222131
C5    C     C_R   0.209978 0.500915 0.517913 0.190944
C6    C     C_R   0.789946 0.495217 0.482555 0.187670
C7    C     C_2   0.493538 0.114685 0.407006 -0.087294
C8    C     C_2   0.506509 0.885323 0.593024 -0.103219
C9    C     C_2   0.501176 0.069583 0.516676 -0.122683
C10   C     C_2   0.498923 0.930439 0.483366 -0.127447
C11   C     C_2   0.504826 0.510901 0.081459 0.000436
C12   C     C_R   0.504208 0.745976 0.559425 0.567725
C13   C     C_2   0.495273 0.488877 0.918483 -0.006054
C14   C     C_R   0.391027 0.503841 0.502035 0.569414
C15   C     C_R   0.608932 0.495879 0.497893 0.583558
C16   C     C_R   0.883634 0.612532 0.561736 0.461230
C17   C     C_R   0.116390 0.383167 0.440192 0.459571
C18   C     C_R   0.874705 0.386845 0.408668 0.440196
C19   C     C_R   0.125309 0.608907 0.593056 0.440217
C20   C     C_R   0.934498 0.384603 0.416090 -0.009326
C21   C     C_R   0.065532 0.611039 0.586074 -0.009010
C22   C     C_R   0.969747 0.499644 0.497261 -0.068715
C23   C     C_R   0.231263 0.545570 0.417295 -0.055907
C24   C     C_R   0.030286 0.495974 0.505005 -0.068765
C25   C     C_R   0.944476 0.617745 0.570246 0.019297
C26   C     C_R   0.055559 0.377877 0.432007 0.019323
C27   C     C_R   0.959168 0.268414 0.345635 -0.064327
C28   C     C_R   0.040869 0.727186 0.656712 -0.064575
C29   C     C_R   0.018740 0.261908 0.353317 0.233986
C30   C     C_R   0.981300 0.733679 0.649118 0.233506
C31   C     C_R   0.768086 0.448687 0.581040 -0.050755
C32   C     C_R   0.290238 0.551062 0.410863 0.179184
C33   C     C_R   0.709044 0.444137 0.586930 0.234462
C34   C     C_R   0.328595 0.507238 0.506154 -0.047462
C35   C     C_R   0.671288 0.491101 0.493596 -0.034720
C36   C     C_R   0.306650 0.464379 0.608566 -0.138867
Cu1   Cu    Cu3+1 0.509980 0.521810 0.644910 1.032794
Cu2   Cu    Cu3+1 0.490020 0.478190 0.355090 1.046186
H1    H     H_    0.931427 0.180750 0.284727 0.236159
H2    H     H_    0.509176 0.135501 0.631984 0.168377
H3    H     H_    0.514432 0.951495 0.708142 0.117721
H4    H     H_    0.485576 0.048500 0.291893 0.118087
H5    H     H_    0.462292 0.415361 0.845048 0.148824
H6    H     H_    0.537880 0.584248 0.154847 0.142796
H7    H     H_    0.004707 0.908113 0.147378 0.393670
H8    H     H_    0.995351 0.087396 0.855617 0.393665
H9    H     H_    0.359556 0.787191 0.463724 0.334102
H10   H     H_    0.650137 0.445809 0.911886 0.364056
H11   H     H_    0.068611 0.814845 0.717627 0.235731
H12   H     H_    0.555746 0.624414 0.935069 0.226980
H13   H     H_    0.444149 0.375819 0.064996 0.228519
H14   H     H_    0.201184 0.576933 0.344483 0.186178
H15   H     H_    0.797769 0.415281 0.652683 0.186328
H16   H     H_    0.335251 0.431430 0.682812 0.164460
H17   H     H_    0.665512 0.570491 0.320058 0.156388
H18   H     H_    0.490953 0.864527 0.368056 0.178537
N1    N     N_R   0.850848 0.498995 0.481537 -0.392094
N2    N     N_R   0.149153 0.496818 0.519950 -0.392423
N3    N     N_2   0.475010 0.445410 0.137370 -0.324884
N4    N     N_2   0.524990 0.554590 0.862630 -0.339855
O1    O     O_R   0.505330 0.332340 0.577400 -0.486786
O2    O     O_2   0.143258 0.277856 0.367688 -0.357269
O3    O     O_2   0.840397 0.277308 0.330406 -0.426047
O4    O     O_2   0.159611 0.718522 0.670996 -0.429640
O5    O     O_2   0.072308 0.104273 0.138655 -0.190879
O6    O     O_2   0.084547 0.070589 0.375328 -0.178482
O7    O     O_3   0.987445 0.990270 0.199025 -0.480037
O8    O     O_2   0.915580 0.925221 0.627413 -0.175616
O9    O     O_2   0.927665 0.891054 0.863811 -0.189849
O10   O     O_3   0.012624 0.005239 0.804027 -0.481129
O11   O     O_2   0.329190 0.512174 0.155847 -0.204230
O12   O     O_R   0.494670 0.667660 0.422600 -0.474217
O13   O     O_2   0.266467 0.690499 0.235387 -0.220929
O14   O     O_3   0.371495 0.724581 0.372970 -0.493874
O15   O     O_2   0.633120 0.280051 0.626590 -0.278897
O16   O     O_2   0.731535 0.300935 0.758101 -0.221599
O17   O     O_3   0.666893 0.492008 0.855364 -0.479038
O18   O     O_R   0.488470 0.295500 0.332650 -0.496896
O19   O     O_R   0.511530 0.704500 0.667350 -0.493956
O20   O     O_R   0.426310 0.518390 0.622390 -0.517723
O21   O     O_R   0.573690 0.481610 0.377610 -0.523077
O22   O     O_R   0.409450 0.481550 0.377650 -0.411979
O23   O     O_R   0.590550 0.518450 0.622350 -0.414620
O24   O     O_2   0.856770 0.717825 0.634308 -0.354322
S1    S     S_3+6 0.042986 0.104539 0.265412 0.102976
S2    S     S_3+6 0.957067 0.891019 0.737260 0.103810
S3    S     S_3+6 0.313521 0.619507 0.287981 0.075102
S4    S     S_3+6 0.684810 0.373376 0.706743 0.067972

loop_
_geom_bond_atom_site_label_1
_geom_bond_atom_site_label_2
_ccdc_geom_bond_type
C31   H15   S    
C28   H11   S    
C20   C27   A    
C19   O4    S    
Cu2   O22   S    
C22   C25   A    
O8    S2    D    
H10   O17   S    
O16   S4    D    
C16   O24   S    
C15   O23   A    
C12   O12   A    
C33   C35   A    
C22   C24   A    
C6    N1    S    
C11   H6    S    
C30   S2    S    
C14   O22   A    
C9    H2    S    
C21   C24   A    
H7    O7    S    
O17   S4    S    
H13   N3    S    
C2    H17   S    
Cu2   O18   S    
C32   C34   A    
O7    S1    S    
C23   C32   A    
C10   H18   S    
C8    H3    S    
C3    C36   A    
Cu2   O21   S    
Br2   C4    S    
H8    O10   S    
C1    O18   A    
O10   S2    S    
O15   S4    D    
C29   S1    S    
C21   C28   A    
C18   O3    S    
C23   H14   S    
Cu1   O19   S    
C19   N2    A    
C2    C4    A    
C8    C12   S    
Cu1   Cu2   S    
C3    C5    A    
C4    C6    A    
Cu2   N3    S    
C15   O21   A    
C1    C7    S    
C17   O2    S    
C14   O20   A    
H9    O14   S    
C36   H16   S    
C15   C35   S    
C18   N1    A    
C17   C26   A    
C7    C9    D    
C8    C10   D    
C18   C20   A    
C11   C13   S    
Br1   C3    S    
Cu1   O23   S    
C5    N2    S    
Cu1   N4    S    
C7    H4    S    
C27   H1    S    
C25   C30   A    
O5    S1    D    
C26   C29   A    
C16   C25   A    
Cu1   O20   S    
C9    C10   S    
C1    O1    A    
C17   N2    A    
Cu1   O1    S    
O14   S3    S    
C24   C26   A    
C5    C23   A    
C19   C21   A    
C32   S3    S    
O11   S3    D    
C27   C29   A    
H12   N4    S    
C14   C34   S    
C28   C30   A    
C34   C36   A    
C31   C33   A    
C13   N4    D    
Cu2   O12   S    
C20   C22   A    
C6    C31   A    
O13   S3    D    
O9    S2    D    
C33   S4    S    
C16   N1    A    
C11   N3    D    
C2    C35   A    
O6    S1    D    
C13   H5    S    
C12   O19   A    
