data_mof_unit_8339.cif
_audit_creation_date              2012-12-10T16:57:05-0500
_audit_creation_method            fapswitch 2.2
_symmetry_space_group_name_H-M    P1
_symmetry_Int_Tables_number       1
_space_group_crystal_system       triclinic
_cell_length_a                    7.804977
_cell_length_b                    8.556415
_cell_length_c                    16.672596
_cell_angle_alpha                 92.276067
_cell_angle_beta                  80.462232
_cell_angle_gamma                 93.492764
_cell_volume                      1095.51222036

loop_
_atom_site_label
_atom_site_type_symbol
_atom_type_description
_atom_site_fract_x
_atom_site_fract_y
_atom_site_fract_z
_atom_type_partial_charge
C1    C     C_R   0.545852 0.794593 0.498067 0.984842
C2    C     C_R   0.454136 0.205412 0.502045 0.935715
C3    C     C_2   0.570125 0.957985 0.496964 -0.337552
C4    C     C_2   0.429846 0.042008 0.503322 -0.347981
C5    C     C_R   0.477901 0.503597 0.653747 0.941510
C6    C     C_R   0.524561 0.507779 0.345886 0.900550
C7    C     C_R   0.475718 0.529232 0.739463 -0.134354
C8    C     C_R   0.549190 0.558598 0.261901 -0.145420
C9    C     C_R   0.564787 0.663907 0.765232 0.479505
C10   C     C_R   0.427225 0.651465 0.235287 0.479665
C11   C     C_R   0.603503 0.671577 0.843840 -0.266447
C12   C     C_R   0.464497 0.710329 0.156979 -0.248747
C13   C     C_R   0.552175 0.547063 0.896351 -0.032586
C14   C     C_R   0.618700 0.676350 0.105755 -0.022199
C15   C     C_R   0.454671 0.414745 0.870962 0.527512
C16   C     C_R   0.746473 0.594594 0.134318 0.396310
C17   C     C_R   0.417581 0.407426 0.791924 -0.355529
C18   C     C_R   0.709192 0.534359 0.211818 -0.372690
C19   C     C_2   0.605899 0.554109 0.976264 0.006627
C20   C     C_2   0.617450 0.688419 0.019328 -0.096871
H1    H     H_    0.805833 0.468048 0.233126 0.220402
H2    H     H_    0.352401 0.303270 0.769481 0.199545
H3    H     H_    0.584601 0.798438 0.996996 0.183583
H4    H     H_    0.620228 0.444548 0.004478 0.211689
H5    H     H_    0.367716 0.773646 0.133806 0.194854
H6    H     H_    0.681127 0.771604 0.862318 0.181721
H7    H     H_    0.702779 0.008580 0.490868 0.189606
H8    H     H_    0.297191 0.991402 0.509437 0.194676
N1    N     N_2   0.953500 0.457650 0.478520 0.185501
N2    N     N_2   0.046500 0.542350 0.521480 0.182866
O1    O     O_R   0.388470 0.738640 0.505270 -0.632715
O2    O     O_R   0.611530 0.261360 0.494730 -0.640895
O3    O     O_R   0.679650 0.711510 0.491500 -0.570486
O4    O     O_R   0.320350 0.288490 0.508500 -0.583498
O5    O     O_R   0.337210 0.515200 0.623500 -0.631775
O6    O     O_R   0.662790 0.484800 0.376500 -0.650435
O7    O     O_R   0.628380 0.488060 0.609730 -0.557400
O8    O     O_R   0.371620 0.511940 0.390270 -0.511941
Zn1   Zn    Zn3+2 0.305580 0.518120 0.509190 1.083171
Zn2   Zn    Zn3+2 0.694420 0.481880 0.490810 1.066218
O9    O     O_3   0.619767 0.782268 0.711183 -0.744488
H9    H     H_    0.680651 0.868129 0.738972 0.350469
O10   O     O_3   0.273691 0.683398 0.286023 -0.719537
H10   H     H_    0.205212 0.751073 0.257870 0.347092
S1    S     S_3+6 0.384918 0.253562 0.934266 0.045067
O11   O     O_2   0.243840 0.155370 0.901782 -0.250751
O12   O     O_2   0.537318 0.155221 0.936015 -0.330243
O13   O     O_3   0.308749 0.317489 0.029405 -0.500844
H11   H     H_    0.277922 0.221318 0.061002 0.383926
S2    S     S_3+6 0.951516 0.562651 0.074243 0.046605
O14   O     O_2   0.004844 0.695107 0.017212 -0.238359
O15   O     O_2   0.086545 0.552040 0.128119 -0.290679
O16   O     O_3   0.939611 0.394272 0.019452 -0.476139
H12   H     H_    0.903537 0.312516 0.060227 0.358946
O17   O     O_3   0.040957 0.354431 0.427527 -0.640159
H13   H     H_    0.951489 0.299041 0.399521 0.335976
O18   O     O_3   0.959071 0.645849 0.572312 -0.626908
H14   H     H_    0.048528 0.701466 0.600237 0.343477

loop_
_geom_bond_atom_site_label_1
_geom_bond_atom_site_label_2
_ccdc_geom_bond_type
S2    O15   D    
O10   H10   S    
C6    O8    A    
C15   C17   A    
N1    N2    D    
C17   H2    S    
C5    O7    A    
C18   H1    S    
C11   C13   A    
O9    H9    S    
C9    O9    S    
C19   C20   D    
C20   H3    S    
O6    Zn2   S    
C12   H5    S    
O17   H13   S    
C2    O4    A    
C3    H7    S    
S2    O14   D    
C12   C14   A    
C1    O3    A    
C16   C18   A    
S1    O11   D    
C9    C11   A    
O18   H14   S    
C10   C12   A    
C2    C4    S    
C5    O5    A    
N1    Zn2   S    
C8    C10   A    
O13   H11   S    
C4    H8    S    
C6    O6    A    
N2    Zn1   S    
C19   H4    S    
O7    Zn2   S    
C5    C7    S    
O2    Zn2   S    
S1    O12   D    
C13   C15   A    
O8    Zn1   S    
C16   S2    S    
C14   C16   A    
S2    O16   S    
C13   C19   S    
C3    C4    D    
O3    Zn2   S    
N2    O18   S    
C14   C20   S    
C1    O1    A    
O5    Zn1   S    
C2    O2    A    
S1    O13   S    
C7    C9    A    
C15   S1    S    
C6    C8    S    
N1    O17   S    
C11   H6    S    
C1    C3    S    
C10   O10   S    
O16   H12   S    
C8    C18   A    
O4    Zn1   S    
O1    Zn1   S    
C7    C17   A    
