data_mof_unit_61799.cif
_audit_creation_date              2013-03-05T16:27:28-0500
_audit_creation_method            fapswitch 2.2
_symmetry_space_group_name_H-M    P1
_symmetry_Int_Tables_number       1
_space_group_crystal_system       triclinic
_cell_length_a                    32.523777
_cell_length_b                    33.792076
_cell_length_c                    22.731094
_cell_angle_alpha                 90.000118
_cell_angle_beta                  89.998616
_cell_angle_gamma                 89.999983
_cell_volume                      24982.5166604

loop_
_atom_site_label
_atom_site_type_symbol
_atom_site_description
_atom_site_fract_x
_atom_site_fract_y
_atom_site_fract_z
_atom_type_partial_charge
O1    O     O_R   0.041930 0.458080 0.549570 -0.599643
O2    O     O_R   0.958070 0.541920 0.450430 -0.585874
O3    O     O_R   0.958070 0.541920 0.549570 -0.599623
O4    O     O_R   0.041930 0.458080 0.450430 -0.585915
O5    O     O_R   0.958070 0.458080 0.450430 -0.599697
O6    O     O_R   0.041930 0.541920 0.549570 -0.585933
O7    O     O_R   0.041930 0.541920 0.450430 -0.599673
O8    O     O_R   0.958070 0.458080 0.549570 -0.585946
O9    O     O_R   0.541930 0.958080 0.549570 -0.599674
O10   O     O_R   0.458070 0.041920 0.450430 -0.585943
O11   O     O_R   0.458070 0.041920 0.549570 -0.599651
O12   O     O_R   0.541930 0.958080 0.450430 -0.585958
O13   O     O_R   0.458070 0.958080 0.450430 -0.599651
O14   O     O_R   0.541930 0.041920 0.549570 -0.585908
O15   O     O_R   0.541930 0.041920 0.450430 -0.599631
O16   O     O_R   0.458070 0.958080 0.549570 -0.585945
C1    C     C_R   0.967152 0.515190 0.314757 0.239242
C2    C     C_R   0.032853 0.515179 0.685245 0.239248
C3    C     C_R   0.032848 0.484813 0.314751 0.239225
C4    C     C_R   0.967147 0.484821 0.685249 0.239266
C5    C     C_R   0.467145 0.015177 0.314756 0.239221
C6    C     C_R   0.532852 0.015182 0.685243 0.239223
C7    C     C_R   0.532854 0.984823 0.314751 0.239235
C8    C     C_R   0.467148 0.984821 0.685249 0.239210
C9    C     C_R   0.055002 0.444372 0.500120 0.922933
C10   C     C_R   0.944997 0.555626 0.500120 0.922909
C11   C     C_R   0.944999 0.444370 0.499879 0.922916
C12   C     C_R   0.055002 0.555629 0.499878 0.922935
C13   C     C_R   0.554999 0.944369 0.500121 0.922952
C14   C     C_R   0.445000 0.055630 0.500122 0.922966
C15   C     C_R   0.444999 0.944371 0.499879 0.922952
C16   C     C_R   0.555002 0.055627 0.499879 0.922936
Zn1   Zn    Zn3+2 1.000000 0.500000 0.566180 1.073387
Zn2   Zn    Zn3+2 1.000000 0.500000 0.433820 1.073378
Zn3   Zn    Zn3+2 0.500000 0.000000 0.566180 1.073376
Zn4   Zn    Zn3+2 0.500000 0.000000 0.433820 1.073376
N1    N     N_R   1.000000 0.500000 0.345660 -0.218975
N2    N     N_R   1.000000 0.500000 0.654340 -0.218949
N3    N     N_R   0.500000 0.000000 0.345660 -0.218955
N4    N     N_R   0.500000 0.000000 0.654340 -0.218970
C17   C     C_R   0.163948 0.714562 0.493239 0.609407
C18   C     C_R   0.836076 0.285417 0.493288 0.609415
C19   C     C_R   0.836009 0.714518 0.506747 0.609244
C20   C     C_R   0.163957 0.285447 0.506745 0.609350
C21   C     C_R   0.663964 0.214544 0.493251 0.609313
C22   C     C_R   0.336063 0.785427 0.493251 0.609402
C23   C     C_R   0.336071 0.214580 0.506722 0.609405
C24   C     C_R   0.663899 0.785393 0.506670 0.609424
N5    N     N_R   0.176168 0.676042 0.496820 -0.353570
N6    N     N_R   0.823853 0.323937 0.496835 -0.353568
N7    N     N_R   0.823790 0.676000 0.503108 -0.353619
N8    N     N_R   0.176177 0.323967 0.503143 -0.353583
N9    N     N_R   0.676184 0.176025 0.496863 -0.353597
N10   N     N_R   0.323842 0.823948 0.496829 -0.353566
N11   N     N_R   0.323850 0.176059 0.503166 -0.353572
N12   N     N_R   0.676123 0.823914 0.503150 -0.353566
C25   C     C_R   0.216696 0.665371 0.497391 0.616500
C26   C     C_R   0.783324 0.334607 0.497381 0.616483
C27   C     C_R   0.783262 0.665331 0.502467 0.616448
C28   C     C_R   0.216705 0.334637 0.502547 0.616481
C29   C     C_R   0.716713 0.165356 0.497472 0.616468
C30   C     C_R   0.283314 0.834619 0.497395 0.616500
C31   C     C_R   0.283322 0.165389 0.502611 0.616489
C32   C     C_R   0.716652 0.834583 0.502623 0.616471
C33   C     C_R   0.247597 0.694500 0.494576 -0.122955
C34   C     C_R   0.752426 0.305476 0.494571 -0.122957
C35   C     C_R   0.752361 0.694460 0.505286 -0.122976
C36   C     C_R   0.247606 0.305509 0.505366 -0.122969
C37   C     C_R   0.747613 0.194485 0.494652 -0.122973
C38   C     C_R   0.252414 0.805490 0.494576 -0.122966
C39   C     C_R   0.252422 0.194518 0.505422 -0.122961
C40   C     C_R   0.747550 0.805451 0.505429 -0.122963
C41   C     C_R   0.235200 0.734767 0.493580 -0.049267
C42   C     C_R   0.764825 0.265209 0.493612 -0.049269
C43   C     C_R   0.764759 0.734726 0.506347 -0.049295
C44   C     C_R   0.235208 0.265242 0.506386 -0.049278
C45   C     C_R   0.735215 0.234752 0.493620 -0.049283
C46   C     C_R   0.264811 0.765223 0.493582 -0.049270
C47   C     C_R   0.264819 0.234786 0.506392 -0.049269
C48   C     C_R   0.735150 0.765184 0.506359 -0.049269
C49   C     C_R   0.193164 0.744717 0.492842 -0.064296
C50   C     C_R   0.806861 0.255260 0.492903 -0.064286
C51   C     C_R   0.806795 0.744674 0.507140 -0.064313
C52   C     C_R   0.193172 0.255292 0.507142 -0.064297
C53   C     C_R   0.693179 0.244700 0.492854 -0.064304
C54   C     C_R   0.306847 0.755273 0.492851 -0.064289
C55   C     C_R   0.306856 0.244736 0.507110 -0.064291
C56   C     C_R   0.693113 0.755235 0.507046 -0.064282
C57   C     C_R   0.290135 0.685248 0.493205 0.430404
C58   C     C_R   0.709887 0.314725 0.493171 0.430393
C59   C     C_R   0.709821 0.685210 0.506603 0.430407
C60   C     C_R   0.290144 0.314760 0.506719 0.430404
C61   C     C_R   0.790153 0.185235 0.493309 0.430405
C62   C     C_R   0.209875 0.814742 0.493200 0.430403
C63   C     C_R   0.209883 0.185268 0.506813 0.430399
C64   C     C_R   0.790088 0.814700 0.506852 0.430387
C65   C     C_R   0.819036 0.215559 0.492127 -0.142948
C66   C     C_R   0.180991 0.784418 0.492026 -0.142941
C67   C     C_R   0.181000 0.215592 0.507980 -0.142939
C68   C     C_R   0.818969 0.784374 0.508015 -0.142904
C69   C     C_R   0.319019 0.715572 0.492037 -0.142960
C70   C     C_R   0.681005 0.284400 0.492006 -0.142929
C71   C     C_R   0.680938 0.715535 0.507792 -0.142954
C72   C     C_R   0.319028 0.284437 0.507898 -0.142946
O17   O     O_2   0.123521 0.723491 0.490491 -0.502719
O18   O     O_2   0.876503 0.276489 0.490563 -0.502743
O19   O     O_2   0.876434 0.723445 0.509567 -0.502650
O20   O     O_2   0.123531 0.276519 0.509517 -0.502721
O21   O     O_2   0.623538 0.223471 0.490465 -0.502695
O22   O     O_2   0.376490 0.776499 0.490509 -0.502760
O23   O     O_2   0.376498 0.223509 0.509454 -0.502730
O24   O     O_2   0.623471 0.776465 0.509376 -0.502754
O25   O     O_2   0.226498 0.626716 0.501479 -0.424021
O26   O     O_2   0.773519 0.373262 0.501440 -0.424040
O27   O     O_2   0.773460 0.626680 0.498311 -0.424001
O28   O     O_2   0.226506 0.373291 0.498434 -0.424010
O29   O     O_2   0.726515 0.126703 0.501599 -0.424001
O30   O     O_2   0.273512 0.873274 0.501482 -0.424009
O31   O     O_2   0.273518 0.126733 0.498544 -0.424018
O32   O     O_2   0.726459 0.873239 0.498588 -0.424037
H1    H     H_    0.851361 0.207797 0.491207 0.234392
H2    H     H_    0.148667 0.792182 0.491083 0.234397
H3    H     H_    0.148675 0.207828 0.508936 0.234397
H4    H     H_    0.851294 0.792135 0.508999 0.234411
H5    H     H_    0.351344 0.707808 0.491098 0.234388
H6    H     H_    0.648680 0.292162 0.491041 0.234401
H7    H     H_    0.648612 0.707772 0.508693 0.234388
H8    H     H_    0.351353 0.292200 0.508825 0.234394
C73   C     C_R   0.859272 0.378732 0.450143 -0.108596
C74   C     C_R   0.140749 0.621244 0.450142 -0.108599
C75   C     C_R   0.140779 0.378781 0.549818 -0.108602
C76   C     C_R   0.859151 0.621152 0.549765 -0.108554
C77   C     C_R   0.359263 0.878742 0.450145 -0.108629
C78   C     C_R   0.640800 0.121199 0.450195 -0.108584
C79   C     C_R   0.640704 0.878703 0.549858 -0.108600
C80   C     C_R   0.359268 0.121265 0.549857 -0.108599
H9    H     H_    0.839727 0.375076 0.411947 0.187650
H10   H     H_    0.160299 0.624891 0.411948 0.187645
H11   H     H_    0.160348 0.375150 0.587995 0.187663
H12   H     H_    0.839545 0.624751 0.587912 0.187703
H13   H     H_    0.339716 0.875091 0.411950 0.187642
H14   H     H_    0.660382 0.124820 0.412028 0.187676
H15   H     H_    0.660244 0.875038 0.588058 0.187651
H16   H     H_    0.339720 0.124919 0.588052 0.187650
C81   C     C_R   0.888977 0.408070 0.450257 -0.131918
C82   C     C_R   0.111037 0.591913 0.450258 -0.131896
C83   C     C_R   0.111062 0.408109 0.549712 -0.131923
C84   C     C_R   0.888881 0.591837 0.549670 -0.131990
C85   C     C_R   0.388971 0.908077 0.450259 -0.131882
C86   C     C_R   0.611080 0.091875 0.450298 -0.131939
C87   C     C_R   0.611006 0.908048 0.549747 -0.131904
C88   C     C_R   0.388975 0.091929 0.549744 -0.131889
H17   H     H_    0.891696 0.427185 0.412256 0.221357
H18   H     H_    0.108319 0.572793 0.412262 0.221377
H19   H     H_    0.108360 0.427241 0.587697 0.221419
H20   H     H_    0.891557 0.572679 0.587630 0.221461
H21   H     H_    0.391691 0.927192 0.412259 0.221398
H22   H     H_    0.608387 0.072735 0.412322 0.221435
H23   H     H_    0.608287 0.927158 0.587754 0.221359
H24   H     H_    0.391692 0.072814 0.587744 0.221384
C89   C     C_R   0.914575 0.412791 0.499214 -0.115649
C90   C     C_R   0.085432 0.587202 0.499211 -0.115640
C91   C     C_R   0.085433 0.412800 0.500782 -0.115604
C92   C     C_R   0.914557 0.587189 0.500779 -0.115526
C93   C     C_R   0.414572 0.912794 0.499214 -0.115651
C94   C     C_R   0.585436 0.087197 0.499218 -0.115575
C95   C     C_R   0.585417 0.912783 0.500784 -0.115664
C96   C     C_R   0.414575 0.087209 0.500788 -0.115654
C97   C     C_R   0.911001 0.387210 0.547352 -0.193240
C98   C     C_R   0.089005 0.612789 0.547343 -0.193205
C99   C     C_R   0.088986 0.387197 0.452665 -0.193218
C100  C     C_R   0.911039 0.612822 0.452692 -0.193160
C101  C     C_R   0.410997 0.887210 0.547350 -0.193253
C102  C     C_R   0.588976 0.112810 0.547325 -0.193198
C103  C     C_R   0.588989 0.887207 0.452639 -0.193271
C104  C     C_R   0.411003 0.112792 0.452651 -0.193230
H25   H     H_    0.932144 0.389794 0.583833 0.224212
H26   H     H_    0.067857 0.610213 0.583822 0.224201
H27   H     H_    0.067823 0.389760 0.416201 0.224134
H28   H     H_    0.932229 0.610289 0.416253 0.224008
H29   H     H_    0.432142 0.889791 0.583830 0.224198
H30   H     H_    0.567806 0.110255 0.583783 0.224085
H31   H     H_    0.567851 0.889800 0.416154 0.224215
H32   H     H_    0.432148 0.110209 0.416169 0.224197
C105  C     C_R   0.880224 0.358389 0.548778 0.364276
C106  C     C_R   0.119786 0.641606 0.548765 0.364277
C107  C     C_R   0.119767 0.358382 0.451237 0.364360
C108  C     C_R   0.880253 0.641629 0.451261 0.364515
C109  C     C_R   0.380219 0.858391 0.548773 0.364289
C110  C     C_R   0.619758 0.141623 0.548752 0.364416
C111  C     C_R   0.619760 0.858381 0.451210 0.364280
C112  C     C_R   0.380227 0.141612 0.451226 0.364293
C113  C     C_R   0.854424 0.354157 0.499151 0.154555
C114  C     C_R   0.145594 0.645826 0.499142 0.154570
C115  C     C_R   0.145602 0.354183 0.500832 0.154539
C116  C     C_R   0.854366 0.645783 0.500808 0.154473
C117  C     C_R   0.354415 0.854164 0.499149 0.154571
C118  C     C_R   0.645611 0.145808 0.499172 0.154517
C119  C     C_R   0.645554 0.854135 0.500842 0.154546
C120  C     C_R   0.354422 0.145842 0.500850 0.154555
C121  C     C_R   0.999999 0.500006 0.220019 -0.007398
C122  C     C_R   1.000000 0.500004 0.779982 -0.007413
C123  C     C_R   0.500000 0.000004 0.220018 -0.007412
C124  C     C_R   0.500001 0.000006 0.779981 -0.007404
C125  C     C_R   0.964965 0.509677 0.875701 0.669996
C126  C     C_R   0.035038 0.509661 0.124299 0.669995
C127  C     C_R   0.035034 0.490337 0.875700 0.669993
C128  C     C_R   0.964958 0.490358 0.124301 0.669999
C129  C     C_R   0.464964 0.009668 0.875702 0.669987
C130  C     C_R   0.535036 0.009674 0.124298 0.669991
C131  C     C_R   0.535040 0.990350 0.875699 0.669991
C132  C     C_R   0.464965 0.990339 0.124299 0.669989
N13   N     N_R   1.000000 0.500006 0.844836 -0.316678
N14   N     N_R   0.999998 0.500009 0.155166 -0.316673
N15   N     N_R   0.500002 0.000008 0.844835 -0.316676
N16   N     N_R   0.500000 0.000006 0.155164 -0.316678
C133  C     C_R   0.037187 0.496321 0.937538 -0.156151
C134  C     C_R   0.962808 0.496342 0.062463 -0.156152
C135  C     C_R   0.962811 0.503695 0.937539 -0.156151
C136  C     C_R   0.037188 0.503677 0.062461 -0.156153
C137  C     C_R   0.537191 0.996335 0.937537 -0.156150
C138  C     C_R   0.462813 0.996325 0.062462 -0.156150
C139  C     C_R   0.462812 0.003683 0.937539 -0.156149
C140  C     C_R   0.537189 0.003691 0.062460 -0.156150
C141  C     C_R   0.999999 0.500008 0.968798 -0.058871
C142  C     C_R   0.999998 0.500009 0.031203 -0.058874
C143  C     C_R   0.500001 0.000009 0.968797 -0.058879
C144  C     C_R   0.500001 0.000008 0.031202 -0.058876
C145  C     C_R   0.074830 0.497472 0.969074 0.228951
C146  C     C_R   0.925166 0.497512 0.030927 0.228950
C147  C     C_R   0.925167 0.502546 0.969078 0.228951
C148  C     C_R   0.074831 0.502508 0.030923 0.228952
C149  C     C_R   0.574834 0.997501 0.969073 0.228947
C150  C     C_R   0.425170 0.997481 0.030926 0.228948
C151  C     C_R   0.425169 0.002518 0.969077 0.228950
C152  C     C_R   0.574833 0.002537 0.030922 0.228950
O33   O     O_2   0.932787 0.525854 0.847137 -0.441896
O34   O     O_2   0.067224 0.525824 0.152862 -0.441900
O35   O     O_2   0.067212 0.474158 0.847136 -0.441902
O36   O     O_2   0.932771 0.474197 0.152866 -0.441907
O37   O     O_2   0.432782 0.025838 0.847140 -0.441900
O38   O     O_2   0.567214 0.025850 0.152862 -0.441899
O39   O     O_2   0.567223 0.974182 0.847136 -0.441907
O40   O     O_2   0.432786 0.974161 0.152862 -0.441905
C153  C     C_R   0.968337 0.518677 0.252415 0.149740
C154  C     C_R   0.031670 0.518663 0.747588 0.149750
C155  C     C_R   0.031661 0.481332 0.252408 0.149736
C156  C     C_R   0.968331 0.481342 0.747593 0.149747
C157  C     C_R   0.468329 0.018662 0.252413 0.149747
C158  C     C_R   0.531668 0.018669 0.747585 0.149741
C159  C     C_R   0.531670 0.981343 0.252408 0.149746
C160  C     C_R   0.468333 0.981340 0.747592 0.149737
N17   N     N_R   0.930736 0.527062 0.345156 0.259295
O41   O     O_R   0.915767 0.562378 0.337536 -0.314502
O42   O     O_R   0.908608 0.500574 0.371929 -0.340118
N18   N     N_R   0.069275 0.527040 0.654847 0.259226
O43   O     O_R   0.084277 0.562338 0.662514 -0.314336
O44   O     O_R   0.091382 0.500548 0.628050 -0.340227
N19   N     N_R   0.069267 0.472943 0.345144 0.259243
O45   O     O_R   0.084253 0.437638 0.337489 -0.314387
O46   O     O_R   0.091384 0.499431 0.371935 -0.340156
N20   N     N_R   0.930728 0.472954 0.654854 0.259218
O47   O     O_R   0.915727 0.437657 0.662532 -0.314338
O48   O     O_R   0.908619 0.499442 0.628053 -0.340294
N21   N     N_R   0.430723 0.027033 0.345154 0.259226
O49   O     O_R   0.415716 0.062330 0.337489 -0.314334
O50   O     O_R   0.408619 0.000539 0.371951 -0.340180
N22   N     N_R   0.569272 0.027044 0.654843 0.259270
O51   O     O_R   0.584258 0.062352 0.662479 -0.314430
O52   O     O_R   0.591388 0.000551 0.628061 -0.340110
N23   N     N_R   0.569275 0.972962 0.345146 0.259216
O53   O     O_R   0.584281 0.937666 0.337469 -0.314329
O54   O     O_R   0.591380 0.999453 0.371948 -0.340241
N24   N     N_R   0.430726 0.972960 0.654855 0.259221
O55   O     O_R   0.415722 0.937663 0.662524 -0.314328
O56   O     O_R   0.408620 0.999452 0.628056 -0.340155
Cl1   Cl    Cl    0.310200 0.636699 0.491994 -0.368303
Cl2   Cl    Cl    0.689821 0.363274 0.491913 -0.368302
Cl3   Cl    Cl    0.689753 0.636661 0.507728 -0.368309
Cl4   Cl    Cl    0.310210 0.363310 0.507897 -0.368292
Cl5   Cl    Cl    0.810219 0.136686 0.492146 -0.368288
Cl6   Cl    Cl    0.189811 0.863291 0.491986 -0.368272
Cl7   Cl    Cl    0.189818 0.136719 0.508057 -0.368285
Cl8   Cl    Cl    0.810155 0.863247 0.508145 -0.368283
N25   N     N_R   0.875261 0.334228 0.600516 0.245040
O57   O     O_R   0.839214 0.320908 0.615511 -0.307531
O58   O     O_R   0.906017 0.328770 0.636242 -0.278012
N26   N     N_R   0.124744 0.665776 0.600495 0.245034
O59   O     O_R   0.160790 0.679099 0.615489 -0.307525
O60   O     O_R   0.093985 0.671243 0.636213 -0.278005
N27   N     N_R   0.124696 0.334186 0.399531 0.245000
O61   O     O_R   0.160747 0.320916 0.384451 -0.307427
O62   O     O_R   0.093885 0.328619 0.363931 -0.278088
N28   N     N_R   0.875375 0.665875 0.399602 0.244933
O63   O     O_R   0.839312 0.679037 0.384366 -0.307253
O64   O     O_R   0.906281 0.671643 0.364233 -0.278207
N29   N     N_R   0.375258 0.834224 0.600506 0.245046
O65   O     O_R   0.339215 0.820895 0.615498 -0.307513
O66   O     O_R   0.406012 0.828765 0.636229 -0.278046
N30   N     N_R   0.624669 0.165836 0.600442 0.244978
O67   O     O_R   0.660723 0.179070 0.615575 -0.307362
O68   O     O_R   0.593824 0.171475 0.635961 -0.278145
N31   N     N_R   0.624726 0.834229 0.399464 0.245044
O69   O     O_R   0.660772 0.820908 0.384469 -0.307530
O70   O     O_R   0.593973 0.828780 0.363729 -0.278021
N32   N     N_R   0.375268 0.165776 0.399491 0.245034
O71   O     O_R   0.339221 0.179091 0.384487 -0.307511
O72   O     O_R   0.406030 0.171247 0.363779 -0.278025
N33   N     N_R   0.113422 0.495862 0.938620 0.269664
O73   O     O_R   0.140154 0.468574 0.951556 -0.234608
O74   O     O_R   0.123642 0.524148 0.902655 -0.211242
N34   N     N_R   0.886573 0.495922 0.061381 0.269666
O75   O     O_R   0.859825 0.468649 0.048446 -0.234604
O76   O     O_R   0.876370 0.524214 0.097348 -0.211247
N35   N     N_R   0.886576 0.504157 0.938626 0.269665
O77   O     O_R   0.859846 0.531447 0.951560 -0.234616
O78   O     O_R   0.876354 0.475870 0.902664 -0.211245
N36   N     N_R   0.113424 0.504100 0.061375 0.269666
O79   O     O_R   0.140169 0.531376 0.048439 -0.234605
O80   O     O_R   0.123630 0.475809 0.097338 -0.211237
N37   N     N_R   0.613427 0.995905 0.938619 0.269665
O81   O     O_R   0.640170 0.968629 0.951556 -0.234600
O82   O     O_R   0.623634 0.024193 0.902650 -0.211240
N38   N     N_R   0.386577 0.995874 0.061380 0.269665
O83   O     O_R   0.359842 0.968590 0.048441 -0.234604
O84   O     O_R   0.376361 0.024160 0.097348 -0.211236
N39   N     N_R   0.386577 0.004117 0.938625 0.269666
O85   O     O_R   0.359835 0.031395 0.951564 -0.234601
O86   O     O_R   0.376367 0.975828 0.902659 -0.211231
N40   N     N_R   0.613425 0.004144 0.061374 0.269665
O87   O     O_R   0.640158 0.031430 0.048438 -0.234610
O88   O     O_R   0.623642 0.975857 0.097339 -0.211239
N41   N     N_R   0.937453 0.541374 0.222321 0.273228
O89   O     O_R   0.948230 0.569001 0.185548 -0.301916
O90   O     O_R   0.898639 0.533130 0.228989 -0.187629
N42   N     N_R   0.062566 0.541342 0.777687 0.273254
O91   O     O_R   0.051802 0.568978 0.814454 -0.301864
O92   O     O_R   0.101374 0.533069 0.771036 -0.187600
N43   N     N_R   0.062547 0.458640 0.222304 0.273240
O93   O     O_R   0.051769 0.431012 0.185533 -0.301904
O94   O     O_R   0.101359 0.466893 0.228957 -0.187596
N44   N     N_R   0.937435 0.458664 0.777697 0.273255
O95   O     O_R   0.948198 0.431031 0.814468 -0.301874
O96   O     O_R   0.898626 0.466937 0.771047 -0.187605
N45   N     N_R   0.437433 0.041342 0.222315 0.273254
O97   O     O_R   0.448197 0.068978 0.185549 -0.301868
O98   O     O_R   0.398625 0.033068 0.228964 -0.187589
N46   N     N_R   0.562558 0.041358 0.777680 0.273238
O99   O     O_R   0.551788 0.068990 0.814449 -0.301897
O100  O     O_R   0.601369 0.033100 0.771018 -0.187607
N47   N     N_R   0.562566 0.958665 0.222304 0.273255
O101  O     O_R   0.551802 0.931031 0.185535 -0.301876
O102  O     O_R   0.601374 0.966939 0.228952 -0.187591
N48   N     N_R   0.437443 0.958655 0.777696 0.273248
O103  O     O_R   0.448212 0.931023 0.814463 -0.301888
O104  O     O_R   0.398633 0.966922 0.771049 -0.187576

loop_
_geom_bond_atom_site_label_1
_geom_bond_atom_site_label_2
_geom_bond_distance
_ccdc_geom_bond_type
C16   C94   1.455342 S    
C74   C82   1.384282 A    
N27   O61   1.301296 A    
C44   C47   1.409506 A    
C47   C55   1.408006 A    
O15   C16   1.287939 A    
N31   O70   1.301594 A    
N41   O89   1.301211 A    
O16   C15   1.292748 A    
C33   C57   1.418738 A    
C124  N15   1.474189 S    
C64   Cl8   1.765824 S    
C17   O17   1.350439 S    
C98   H26   1.080843 S    
C37   C61   1.418737 A    
O16   Zn3   2.002241 S    
C3    N19   1.428713 S    
C21   O21   1.350446 S    
C39   C63   1.418737 A    
N23   O53   1.300452 A    
C30   C38   1.408196 A    
N24   O55   1.300455 A    
C3    N1    1.377801 A    
C4    N20   1.428717 S    
N38   O83   1.301003 A    
C152  N40   1.434425 S    
C83   H19   1.082220 S    
C73   C81   1.384285 A    
C62   Cl6   1.765822 S    
O2    Zn2   2.002226 S    
C140  C144  1.408289 A    
C41   C49   1.408007 A    
C80   C88   1.384284 A    
C94   C102  1.399355 A    
C121  C153  1.414481 A    
N40   O87   1.301003 A    
C130  O38   1.347485 S    
C25   C33   1.408199 A    
N44   O95   1.301208 A    
C150  N38   1.434427 S    
C2    N18   1.428719 S    
O7    C12   1.287932 A    
C68   H4    1.083776 S    
C154  N42   1.437077 S    
O10   C14   1.292745 A    
C143  C144  1.418538 A    
C82   H18   1.082224 S    
N32   O71   1.301256 A    
O2    C10   1.292704 A    
C18   O18   1.350438 S    
C96   C104  1.399340 A    
C31   C39   1.408194 A    
C63   Cl7   1.765820 S    
C51   C68   1.398895 A    
C22   O22   1.350443 S    
C74   H10   1.083162 S    
N30   O67   1.301300 A    
C103  H31   1.080832 S    
C109  C117  1.413220 A    
C104  H32   1.080837 S    
C138  C150  1.419271 A    
C77   C117  1.398375 A    
C57   C69   1.390405 A    
O3    C10   1.287942 A    
C75   C115  1.398387 A    
C59   C71   1.390416 A    
N42   O91   1.301205 A    
N19   O46   1.299788 A    
C137  C143  1.408293 A    
Zn1   N2    2.003973 S    
C32   O32   1.347768 S    
O6    Zn1   2.002225 S    
O11   Zn3   2.002239 S    
Zn3   N4    2.003973 S    
C2    N2    1.377817 A    
C48   C56   1.408005 A    
C79   C119  1.398391 A    
C81   C89   1.398942 A    
C23   O23   1.350440 S    
N46   O99   1.301207 A    
C36   C60   1.418737 A    
C63   C67   1.390403 A    
C112  C120  1.413215 A    
C121  N14   1.474184 S    
C80   C120  1.398381 A    
C60   C72   1.390405 A    
C40   C64   1.418732 A    
C73   H9    1.083159 S    
N25   O58   1.301590 A    
N37   O81   1.301005 A    
N5    C114  1.426233 S    
O3    Zn1   2.002239 S    
C134  C142  1.408294 A    
C108  N28   1.440592 S    
C23   C55   1.393321 A    
C121  C155  1.414481 A    
O12   C13   1.292746 A    
C19   C51   1.393307 A    
C37   C45   1.419379 A    
N47   O101  1.301208 A    
C24   N12   1.363440 A    
C43   C51   1.407997 A    
C102  H30   1.080880 S    
C39   C47   1.419380 A    
O4    C9    1.292733 A    
C8    N24   1.428719 S    
C129  N15   1.377451 A    
N27   O62   1.301728 A    
C6    C158  1.422516 A    
C145  C148  1.416152 A    
C155  N43   1.437082 S    
N17   O41   1.300467 A    
N6    C113  1.426241 S    
C139  C143  1.408291 A    
C131  C137  1.421836 A    
N5    C25   1.366613 A    
N34   O75   1.301002 A    
C58   C70   1.390399 A    
N36   O80   1.300949 A    
N8    C28   1.366618 A    
C27   C35   1.408211 A    
O5    C11   1.287932 A    
N9    C29   1.366622 A    
O6    C12   1.292746 A    
C15   C93   1.455385 S    
C42   C45   1.409504 A    
N18   O44   1.299780 A    
C69   H5    1.083771 S    
N12   C32   1.366617 A    
C75   C83   1.384289 A    
C71   H7    1.083771 S    
C87   C95   1.398942 A    
C89   C97   1.399336 A    
C20   N8    1.363436 A    
C79   H15   1.083159 S    
C45   C53   1.408003 A    
O5    Zn2   2.002230 S    
C151  N39   1.434425 S    
N29   O66   1.301497 A    
C99   H27   1.080861 S    
C97   H25   1.080834 S    
N33   O74   1.300951 A    
C84   C92   1.398963 A    
C85   C93   1.398939 A    
C129  O37   1.347487 S    
N39   O86   1.300950 A    
C25   O25   1.347770 S    
C87   H23   1.082227 S    
C60   Cl4   1.765822 S    
C31   O31   1.347770 S    
C160  N48   1.437077 S    
C1    C153  1.422510 A    
C57   Cl1   1.765818 S    
C136  C142  1.408295 A    
C59   Cl3   1.765821 S    
N21   O50   1.299780 A    
C18   N6    1.363435 A    
C123  C159  1.414475 A    
C24   O24   1.350440 S    
C28   O28   1.347772 S    
C35   C43   1.419378 A    
C156  N44   1.437077 S    
C61   C65   1.390411 A    
O15   Zn4   2.002236 S    
C95   C103  1.399341 A    
C79   C87   1.384285 A    
C92   C100  1.399355 A    
C125  C135  1.421838 A    
C137  C149  1.419271 A    
C157  N45   1.437078 S    
C106  C114  1.413226 A    
Zn4   N3    2.003973 S    
C135  C147  1.419270 A    
C70   H6    1.083774 S    
N20   O47   1.300456 A    
C36   C44   1.419378 A    
C122  C156  1.414465 A    
C20   C52   1.393317 A    
C40   C48   1.419381 A    
C83   C91   1.398950 A    
C11   C89   1.455382 S    
C126  N14   1.377450 A    
C9    C91   1.455358 S    
C64   C68   1.390396 A    
C10   C92   1.455308 S    
N24   O56   1.299785 A    
C149  C152  1.416155 A    
C75   H11   1.083168 S    
C101  H29   1.080836 S    
N38   O84   1.300950 A    
N48   O103  1.301208 A    
C26   O26   1.347768 S    
C53   C70   1.398892 A    
C133  C141  1.408295 A    
Zn2   N1    2.003973 S    
C112  N32   1.440738 S    
C44   C52   1.408005 A    
C34   C58   1.418735 A    
C82   C90   1.398946 A    
C7    N23   1.428721 S    
N10   C117  1.426229 S    
N40   O88   1.300950 A    
C67   H3    1.083773 S    
C38   C62   1.418736 A    
N28   O63   1.301329 A    
N44   O96   1.301588 A    
C49   C66   1.398890 A    
C62   C66   1.390405 A    
N23   O54   1.299776 A    
C17   N5    1.363433 A    
C134  C146  1.419274 A    
C7    C159  1.422530 A    
C123  C157  1.414476 A    
O11   C14   1.287936 A    
N32   O72   1.301591 A    
C24   C56   1.393326 A    
N45   O98   1.301584 A    
C91   C99   1.399348 A    
C127  O35   1.347486 S    
C146  N34   1.434425 S    
C100  H28   1.080901 S    
N26   O60   1.301605 A    
C125  N13   1.377450 A    
N35   O77   1.301002 A    
N8    C115  1.426242 S    
C42   C50   1.408005 A    
C88   C96   1.398941 A    
N30   O68   1.301733 A    
N41   O90   1.301586 A    
C128  C134  1.421837 A    
C122  C154  1.414469 A    
C127  C133  1.421832 A    
C3    C155  1.422521 A    
N6    C26   1.366616 A    
C131  O39   1.347486 S    
C123  N16   1.474186 S    
C8    C160  1.422526 A    
C130  C140  1.421835 A    
N42   O92   1.301588 A    
C132  C138  1.421834 A    
N10   C30   1.366613 A    
C126  C136  1.421835 A    
C29   O29   1.347772 S    
N25   O57   1.301254 A    
C78   H14   1.083168 S    
C34   C42   1.419379 A    
N43   O93   1.301209 A    
C90   C98   1.399341 A    
C138  C144  1.408292 A    
C17   C49   1.393319 A    
C22   N10   1.363431 A    
C35   C59   1.418739 A    
C19   O19   1.350449 S    
C125  O33   1.347486 S    
C102  C110  1.396911 A    
C129  C139  1.421834 A    
O7    Zn2   2.002236 S    
C150  C151  1.416153 A    
C145  N33   1.434423 S    
C110  C118  1.413183 A    
C128  N14   1.377452 A    
C86   H22   1.082219 S    
C52   C67   1.398890 A    
O13   C15   1.287934 A    
O14   C16   1.292720 A    
C74   C114  1.398378 A    
N47   O102  1.301585 A    
C76   H12   1.083169 S    
C77   H13   1.083159 S    
C58   Cl2   1.765826 S    
C13   C95   1.455386 S    
C140  C152  1.419273 A    
C14   C96   1.455379 S    
N39   O85   1.301004 A    
C80   H16   1.083158 S    
C5    C157  1.422528 A    
C19   N7    1.363446 A    
C130  N16   1.377455 A    
N34   O76   1.300952 A    
C122  N13   1.474184 S    
C146  C147  1.416152 A    
C30   O30   1.347769 S    
C107  N27   1.440704 S    
O1    Zn1   2.002226 S    
C55   C72   1.398893 A    
C147  N35   1.434425 S    
N22   O51   1.300467 A    
C28   C36   1.408202 A    
O9    Zn3   2.002226 S    
O8    C11   1.292746 A    
O10   Zn4   2.002226 S    
C84   H20   1.082216 S    
C85   H21   1.082217 S    
C86   C94   1.398959 A    
C131  N15   1.377455 A    
C88   H24   1.082221 S    
C38   C46   1.419380 A    
N29   O65   1.301217 A    
C18   C50   1.393326 A    
C128  O36   1.347487 S    
C61   Cl5   1.765822 S    
C50   C65   1.398894 A    
C12   C90   1.455377 S    
N33   O73   1.301004 A    
C149  N37   1.434425 S    
C1    N17   1.428701 S    
C158  N46   1.437082 S    
N9    C118  1.426248 S    
C111  C119  1.413220 A    
C153  N41   1.437083 S    
N7    C116  1.426260 S    
C103  C111  1.396950 A    
C104  C112  1.396953 A    
C109  N29   1.440747 S    
C93   C101  1.399341 A    
C78   C86   1.384298 A    
C127  N13   1.377448 A    
C33   C41   1.419379 A    
C105  N25   1.440749 S    
C133  C145  1.419273 A    
C26   C34   1.408194 A    
N11   C120  1.426236 S    
N37   O82   1.300952 A    
C72   H8    1.083772 S    
C65   H1    1.083770 S    
C41   C46   1.409504 A    
O12   Zn4   2.002239 S    
C43   C48   1.409505 A    
C5    N21   1.428723 S    
N12   C119  1.426241 S    
C124  C158  1.414483 A    
C46   C54   1.408008 A    
N31   O69   1.301255 A    
O1    C9    1.287935 A    
C98   C106  1.396958 A    
N46   O100  1.301589 A    
C20   O20   1.350444 S    
O4    Zn2   2.002239 S    
N35   O78   1.300953 A    
C136  C148  1.419272 A    
C76   C84   1.384309 A    
C132  N16   1.377451 A    
C77   C85   1.384277 A    
O13   Zn4   2.002230 S    
C126  O34   1.347486 S    
O14   Zn3   2.002225 S    
N17   O42   1.299792 A    
C6    N4    1.377801 A    
N20   O48   1.299776 A    
N11   C31   1.366614 A    
C21   C53   1.393314 A    
N36   O79   1.301006 A    
C4    N2    1.377819 A    
C2    C154  1.422528 A    
C5    N3    1.377813 A    
C148  N36   1.434421 S    
N18   O43   1.300457 A    
C141  C142  1.418541 A    
C1    N1    1.377802 A    
C135  C141  1.408297 A    
C139  C151  1.419270 A    
C66   H2    1.083772 S    
N43   O94   1.301586 A    
N48   O104  1.301588 A    
N7    C27   1.366620 A    
N19   O45   1.300463 A    
C56   C71   1.398897 A    
C23   N11   1.363435 A    
N21   O49   1.300459 A    
C29   C37   1.408204 A    
C81   H17   1.082230 S    
C78   C118  1.398395 A    
C107  C115  1.413202 A    
N22   O52   1.299789 A    
C105  C113  1.413221 A    
C73   C113  1.398384 A    
C111  N31   1.440747 S    
O9    C13   1.287936 A    
C110  N30   1.440666 S    
C99   C107  1.396931 A    
N26   O59   1.301254 A    
C97   C105  1.396952 A    
C132  O40   1.347485 S    
C106  N26   1.440753 S    
N28   O64   1.301821 A    
C100  C108  1.396874 A    
C7    N3    1.377814 A    
C101  C109  1.396963 A    
C8    N4    1.377807 A    
O8    Zn1   2.002241 S    
C32   C40   1.408188 A    
C21   N9    1.363441 A    
C124  C160  1.414484 A    
C6    N22   1.428713 S    
C4    C156  1.422531 A    
C108  C116  1.413145 A    
C27   O27   1.347771 S    
C76   C116  1.398396 A    
N45   O97   1.301207 A    
C54   C69   1.398893 A    
C159  N47   1.437077 S    
C22   C54   1.393320 A    
