data_mof_unit_19624.cif
_audit_creation_date              2012-10-26T20:58:17-0400
_audit_creation_method            fapswitch 2.2
_symmetry_space_group_name_H-M    P1
_symmetry_Int_Tables_number       1
_space_group_crystal_system       triclinic
_cell_length_a                    10.596985
_cell_length_b                    14.703575
_cell_length_c                    14.700744
_cell_angle_alpha                 65.210202
_cell_angle_beta                  103.473938
_cell_angle_gamma                 102.740888
_cell_volume                      2002.59483059

loop_
_atom_site_label
_atom_site_type_symbol
_atom_type_description
_atom_site_fract_x
_atom_site_fract_y
_atom_site_fract_z
_atom_type_partial_charge
C1    C     C_R   0.477995 0.119597 0.312203 0.543360
C2    C     C_R   0.520672 0.532907 0.948479 0.031706
C3    C     C_R   0.497776 0.490356 0.874599 -0.142939
C4    C     C_R   0.567632 0.509356 0.127106 -0.136936
C5    C     C_R   0.475492 0.386499 0.901349 -0.140304
C6    C     C_R   0.592486 0.613182 0.100407 -0.136216
C7    C     C_R   0.729932 0.288111 0.662396 -0.042662
C8    C     C_R   0.276837 0.715403 0.332039 -0.043454
C9    C     C_R   0.689591 0.204970 0.634552 0.040081
C10   C     C_R   0.313939 0.796853 0.362560 0.038532
C11   C     C_R   0.516968 0.284298 0.511291 0.025872
C12   C     C_R   0.522849 0.880385 0.687782 0.543442
C13   C     C_R   0.482068 0.715183 0.489531 0.024045
C14   C     C_R   0.550224 0.371319 0.535821 -0.009634
C15   C     C_R   0.449491 0.628515 0.464440 -0.010966
C16   C     C_R   0.259536 0.000473 0.500003 0.553343
C17   C     C_R   0.740462 0.999515 0.500008 0.553894
C18   C     C_R   0.658052 0.371417 0.614208 0.029781
C19   C     C_R   0.344241 0.629757 0.383916 0.030098
C20   C     C_R   0.480254 0.457331 0.485728 0.024447
C21   C     C_R   0.517807 0.541639 0.515916 0.023646
C22   C     C_R   0.621907 0.535980 0.597007 -0.152594
C23   C     C_R   0.491396 0.291588 0.178960 -0.136263
C24   C     C_R   0.373711 0.461705 0.406622 -0.148788
C25   C     C_R   0.689896 0.453267 0.644599 -0.135616
C26   C     C_R   0.307121 0.545109 0.357905 -0.132751
C27   C     C_3   0.015700 0.010189 0.407954 -0.127414
C28   C     C_3   0.984283 0.989758 0.592066 -0.125527
C29   C     C_3   0.961453 0.087244 0.429613 -0.123226
C30   C     C_3   0.038531 0.912705 0.570405 -0.124634
C31   C     C_3   0.877079 0.998889 0.499793 0.045266
C32   C     C_3   0.122907 0.001066 0.500226 0.044578
C33   C     C_3   0.928968 0.921773 0.478120 -0.114591
C34   C     C_R   0.517916 0.708228 0.820834 -0.140017
C35   C     C_3   0.071013 0.078177 0.521899 -0.112138
C36   C     C_R   0.470620 0.187120 0.204586 -0.005810
C37   C     C_R   0.540971 0.812719 0.795443 -0.005727
C38   C     C_R   0.449019 0.216176 0.027519 -0.142902
C39   C     C_R   0.599544 0.783602 0.973530 -0.146656
C40   C     C_R   0.448622 0.149480 0.128323 -0.142142
C41   C     C_R   0.582728 0.850327 0.872251 -0.142605
C42   C     C_R   0.849013 0.285969 0.739579 0.006692
C43   C     C_R   0.852591 0.210347 0.837960 -0.102683
C44   C     C_R   0.966083 0.206825 0.909942 -0.108722
C45   C     C_R   0.498625 0.360401 0.078750 0.031288
C46   C     C_R   0.076910 0.278168 0.884062 -0.101141
C47   C     C_R   0.074580 0.353030 0.786055 -0.112180
C48   C     C_R   0.961280 0.356853 0.713848 -0.101870
C49   C     C_R   0.169453 0.723773 0.244997 0.004612
C50   C     C_R   0.043240 0.733612 0.251366 -0.103191
C51   C     C_R   0.942415 0.743497 0.168654 -0.108811
C52   C     C_R   0.966991 0.744176 0.078980 -0.098767
C53   C     C_R   0.092686 0.735571 0.071667 -0.112186
C54   C     C_R   0.193880 0.725884 0.154125 -0.104057
C55   C     C_R   0.539233 0.639412 0.921936 0.029545
C56   C     C_R   0.474074 0.321043 0.002226 0.045508
C57   C     C_R   0.577292 0.678730 0.998912 0.045010
C58   C     C_R   0.528062 0.466854 0.052610 0.032090
Cu1   Cu    Cu3+1 0.465750 0.918270 0.475680 0.918759
Cu2   Cu    Cu3+1 0.534250 0.081730 0.524320 0.921537
H1    H     H_    0.926474 0.158478 0.372004 0.114705
H2    H     H_    0.967949 0.981287 0.667299 0.107985
H3    H     H_    0.868074 0.857715 0.460251 0.117909
H4    H     H_    0.131921 0.142238 0.539753 0.122213
H5    H     H_    0.458794 0.357252 0.842347 0.113728
H6    H     H_    0.622526 0.642314 0.159951 0.104671
H7    H     H_    0.480064 0.682187 0.760146 0.121808
H8    H     H_    0.499992 0.317418 0.238846 0.119077
H9    H     H_    0.601439 0.930986 0.854197 0.124348
H10   H     H_    0.431803 0.068813 0.146527 0.129155
H11   H     H_    0.430987 0.185780 0.969326 0.107364
H12   H     H_    0.073496 0.841467 0.628015 0.111176
H13   H     H_    0.630105 0.813966 0.032121 0.099345
H14   H     H_    0.500443 0.535048 0.795174 0.102434
H15   H     H_    0.584311 0.464662 0.207359 0.107210
H16   H     H_    0.767679 0.453929 0.706915 0.128537
H17   H     H_    0.224976 0.541998 0.299200 0.128457
H18   H     H_    0.767478 0.154469 0.858870 0.096459
H19   H     H_    0.968190 0.148653 0.985757 0.105831
H20   H     H_    0.164651 0.275280 0.939845 0.121328
H21   H     H_    0.160715 0.407893 0.765968 0.112321
H22   H     H_    0.961021 0.414690 0.637886 0.111312
H23   H     H_    0.561390 0.721648 0.548183 0.120915
H24   H     H_    0.022984 0.733279 0.320415 0.101890
H25   H     H_    0.845351 0.750881 0.174045 0.097650
H26   H     H_    0.888844 0.751765 0.015054 0.120620
H27   H     H_    0.111814 0.736702 0.001993 0.109712
H28   H     H_    0.291113 0.720048 0.147292 0.110760
H29   H     H_    0.436314 0.277066 0.453811 0.120377
H30   H     H_    0.263967 0.862990 0.323758 0.128154
H31   H     H_    0.742612 0.140396 0.670845 0.128322
H32   H     H_    0.653919 0.594490 0.626463 0.090364
H33   H     H_    0.338271 0.401459 0.379838 0.091546
H34   H     H_    0.032014 0.018630 0.332727 0.105343
N1    N     N_R   0.585750 0.204560 0.560800 -0.243625
N2    N     N_R   0.414250 0.795440 0.439200 -0.243765
O1    O     O_R   0.454850 0.022100 0.338110 -0.506753
O2    O     O_R   0.545150 0.977900 0.661890 -0.506206
O3    O     O_R   0.512700 0.160150 0.379180 -0.509840
O4    O     O_R   0.487300 0.839850 0.620820 -0.511499
O5    O     O_R   0.287930 0.931000 0.479440 -0.504345
O6    O     O_R   0.712070 0.069000 0.520560 -0.503353
O7    O     O_R   0.345780 0.069050 0.520520 -0.507413
O8    O     O_R   0.654220 0.930950 0.479480 -0.507240

loop_
_geom_bond_atom_site_label_1
_geom_bond_atom_site_label_2
_ccdc_geom_bond_type
C30   C32   S    
C23   C45   A    
C27   C29   S    
C34   C37   A    
C14   C18   A    
C5    C56   A    
C43   C44   A    
Cu2   O3    S    
C9    H31   S    
C50   H24   S    
C39   C41   A    
C53   C54   A    
C27   C33   S    
C43   H18   S    
C15   C19   A    
C40   H10   S    
Cu1   O8    S    
C17   O8    A    
C24   C26   A    
Cu2   O2    S    
C2    C55   A    
C11   C14   A    
C49   C54   A    
C39   C57   A    
C7    C42   S    
C12   C37   S    
C3    H14   S    
C19   C26   A    
C4    H15   S    
C38   H11   S    
C20   C24   A    
C28   C35   S    
C22   C25   A    
C31   C33   S    
C35   H4    S    
Cu2   O7    S    
C9    N1    A    
C12   O2    A    
C39   H13   S    
C34   C55   A    
C21   C22   A    
Cu1   O4    S    
C6    C57   A    
C1    O3    A    
C18   C25   A    
Cu2   O6    S    
C44   C46   A    
C44   H19   S    
C29   H1    S    
C45   C58   A    
C26   H17   S    
C13   N2    A    
C51   C52   A    
C8    C19   A    
C32   C35   S    
C14   C20   A    
C36   C40   A    
C45   C56   A    
C5    H5    S    
C1    O1    A    
Cu1   O5    S    
C23   H8    S    
C17   O6    A    
Cu1   Cu2   S    
C11   H29   S    
C16   O7    A    
C47   C48   A    
C10   N2    A    
C33   H3    S    
C7    C18   A    
C50   C51   A    
C53   H27   S    
C42   C48   A    
C4    C6    A    
C23   C36   A    
C13   C15   A    
C17   C31   S    
C42   C43   A    
C52   C53   A    
C41   H9    S    
C11   N1    A    
C7    C9    A    
C13   H23   S    
C46   C47   A    
C30   C33   S    
C27   C32   S    
C28   C31   S    
C3    C5    A    
C34   H7    S    
C30   H12   S    
C2    C58   A    
C16   C32   S    
C29   C35   S    
C25   H16   S    
C54   H28   S    
C55   C57   A    
C2    C3    A    
C28   C30   S    
C29   C31   S    
C24   H33   S    
C38   C40   A    
C15   C21   A    
Cu1   O1    S    
C52   H26   S    
C48   H22   S    
C47   H21   S    
C37   C41   A    
C12   O4    A    
Cu2   N1    S    
C16   O5    A    
C6    H6    S    
C38   C56   A    
C20   C21   A    
C10   H30   S    
C8    C10   A    
C49   C50   A    
Cu1   N2    S    
C4    C58   A    
C22   H32   S    
C27   H34   S    
C51   H25   S    
C46   H20   S    
C8    C49   S    
C1    C36   S    
C28   H2    S    
