data_mof_unit_59832.cif
_audit_creation_date              2012-12-10T18:05:53-0500
_audit_creation_method            fapswitch 2.2
_symmetry_space_group_name_H-M    P1
_symmetry_Int_Tables_number       1
_space_group_crystal_system       triclinic
_cell_length_a                    12.58534
_cell_length_b                    13.128904
_cell_length_c                    14.979879
_cell_angle_alpha                 90.561929
_cell_angle_beta                  102.950025
_cell_angle_gamma                 81.92503
_cell_volume                      2387.67881732

loop_
_atom_site_label
_atom_site_type_symbol
_atom_type_description
_atom_site_fract_x
_atom_site_fract_y
_atom_site_fract_z
_atom_type_partial_charge
C1    C     C_R   0.438154 0.691614 0.487377 0.867515
C2    C     C_R   0.406261 0.517604 0.797563 -0.321596
C3    C     C_R   0.505040 0.493102 0.769771 -0.209367
C4    C     C_R   0.501517 0.498689 0.673181 0.914383
C5    C     C_R   0.604762 0.460526 0.833196 0.505110
C6    C     C_R   0.702167 0.062133 0.438313 -0.216028
C7    C     C_R   0.598408 0.199655 0.504261 -0.053374
C8    C     C_R   0.299249 0.841093 0.506419 0.111904
C9    C     C_R   0.273235 0.946722 0.515931 -0.197653
C10   C     C_R   0.347480 0.012437 0.506475 -0.220969
C11   C     C_R   0.448093 0.974278 0.482503 0.086711
C12   C     C_R   0.602322 0.466687 0.113444 0.053034
C13   C     C_R   0.465952 0.870584 0.457893 0.040387
C14   C     C_R   0.531218 0.035974 0.481310 0.092304
C15   C     C_R   0.622156 0.998968 0.442687 0.168296
C16   C     C_R   0.561561 0.308670 0.509849 0.845346
C17   C     C_R   0.630064 0.900781 0.406747 -0.268864
C18   C     C_R   0.552563 0.837546 0.413566 -0.187746
C19   C     C_R   0.526575 0.133658 0.518215 -0.265624
C20   C     C_R   0.689017 0.163414 0.467295 -0.203652
C21   C     C_R   0.397795 0.802114 0.479605 -0.123164
C22   C     C_R   0.088756 0.344221 0.375454 -0.318505
C23   C     C_R   0.303015 0.534465 0.008205 -0.217976
C24   C     C_R   0.797320 0.634702 0.603494 -0.075279
C25   C     C_R   0.899621 0.669539 0.619811 0.503450
C26   C     C_R   0.982519 0.616890 0.581847 -0.307831
C27   C     C_R   0.961692 0.533111 0.523560 -0.061182
C28   C     C_R   0.499496 0.498756 0.327037 0.867098
C29   C     C_R   0.854835 0.504198 0.506185 0.219006
C30   C     C_R   0.041506 0.478343 0.480523 0.022287
C31   C     C_R   0.011884 0.398240 0.419344 0.203576
C32   C     C_R   0.905965 0.372526 0.402689 -0.312691
C33   C     C_R   0.829018 0.424418 0.446004 -0.192896
C34   C     C_R   0.304806 0.536073 0.916030 -0.182079
C35   C     C_R   0.150370 0.499170 0.495740 -0.049782
C36   C     C_R   0.194675 0.369089 0.393102 0.007165
C37   C     C_R   0.600155 0.470430 0.205359 -0.228470
C38   C     C_R   0.499795 0.493903 0.231341 -0.066719
C39   C     C_R   0.400629 0.513153 0.166200 -0.265407
C40   C     C_R   0.401554 0.511393 0.073903 0.134848
C41   C     C_R   0.503008 0.487865 0.047196 0.093038
C42   C     C_3   0.862673 0.843132 0.630572 -0.316809
C43   C     C_3   0.703522 0.323128 0.782055 -0.218211
C44   C     C_3   0.870532 0.330883 0.009244 -0.300694
C45   C     C_R   0.404974 0.513237 0.889129 0.147921
C46   C     C_R   0.505033 0.487444 0.954523 -0.082127
C47   C     C_R   0.606554 0.462386 0.927364 -0.125051
C48   C     C_R   0.706117 0.439052 0.994679 0.561942
C49   C     C_R   0.702571 0.443895 0.087492 -0.352038
H1    H     H_    0.676606 0.454400 0.256701 0.158703
H2    H     H_    0.067256 0.283218 0.328448 0.142465
H3    H     H_    0.323308 0.531904 0.187348 0.161260
H4    H     H_    0.181237 0.556812 0.542154 0.138569
H5    H     H_    0.732820 0.672611 0.634316 0.161702
H6    H     H_    0.060855 0.645086 0.597443 0.159811
H7    H     H_    0.749381 0.400918 0.430400 0.204583
H8    H     H_    0.224994 0.552609 0.028168 0.156334
H9    H     H_    0.227978 0.555515 0.865752 0.157569
H10   H     H_    0.329848 0.540902 0.747538 0.178034
H11   H     H_    0.778411 0.431510 0.139708 0.161098
H12   H     H_    0.696763 0.872409 0.374113 0.149730
H13   H     H_    0.745631 0.214331 0.456220 0.147529
H14   H     H_    0.149147 0.794665 0.484166 0.179848
H15   H     H_    0.219956 0.785444 0.594624 0.180398
H16   H     H_    0.772452 0.846057 0.623768 0.168716
H17   H     H_    0.881244 0.852627 0.562051 0.153732
H18   H     H_    0.888399 0.909551 0.672083 0.198001
H19   H     H_    0.701562 0.275772 0.842741 0.134093
H20   H     H_    0.781967 0.296419 0.761439 0.188292
H21   H     H_    0.635088 0.309866 0.723749 0.119838
H22   H     H_    0.820381 0.267351 0.009431 0.133232
H23   H     H_    0.771522 0.034878 0.408436 0.133821
H24   H     H_    0.916570 0.344248 0.079764 0.157488
H25   H     H_    0.932259 0.305268 0.968233 0.197073
H26   H     H_    0.463944 0.162750 0.554417 0.147236
H27   H     H_    0.322533 0.093052 0.516032 0.145997
H28   H     H_    0.197060 0.977605 0.534821 0.144278
H29   H     H_    0.560602 0.762779 0.382792 0.173928
H30   H     H_    0.255666 0.327843 0.360325 0.140316
H31   H     H_    0.882430 0.311629 0.356144 0.145620
N1    N     N_R   0.222190 0.444670 0.452360 -0.104870
N2    N     N_R   0.776970 0.554790 0.547140 -0.154499
N3    N     N_3   0.227068 0.773822 0.526927 -0.447346
O1    O     O_R   0.366740 0.627160 0.477250 -0.585498
O2    O     O_3   0.699935 0.428540 0.802747 -0.538626
O3    O     O_3   0.806610 0.423044 0.969148 -0.544824
O4    O     O_R   0.544830 0.662520 0.507680 -0.630293
O5    O     O_R   0.410940 0.482340 0.616930 -0.629676
O6    O     O_R   0.589030 0.517700 0.647360 -0.562873
O7    O     O_R   0.455170 0.337480 0.492320 -0.614575
O8    O     O_R   0.633260 0.372840 0.522750 -0.634672
O9    O     O_R   0.410970 0.482300 0.352640 -0.619063
O10   O     O_R   0.589060 0.517660 0.383070 -0.646355
O11   O     O_3   0.921584 0.751731 0.675990 -0.600499
Zn1   Zn    Zn3+2 0.381090 0.476390 0.479680 0.945391
Zn2   Zn    Zn3+2 0.618910 0.523610 0.520320 0.945442

loop_
_geom_bond_atom_site_label_1
_geom_bond_atom_site_label_2
_ccdc_geom_bond_type
C1    O4    A    
C1    C21   S    
C35   H4    S    
C8    N3    S    
C26   H6    S    
C12   C49   A    
C35   N1    A    
O7    Zn1   S    
C45   C46   A    
C1    O1    A    
C6    H23   S    
C5    C47   A    
C26   C27   A    
C37   C38   A    
C49   H11   S    
C13   C18   A    
C16   O7    A    
C30   C31   A    
N1    Zn1   S    
C11   C14   A    
C27   C29   A    
C24   H5    S    
C23   C40   A    
C29   C33   A    
C44   H22   S    
C15   C17   A    
C12   C37   A    
C24   N2    A    
C17   H12   S    
O8    Zn2   S    
C10   H27   S    
C47   C48   A    
C43   H19   S    
C42   H16   S    
C41   C46   A    
C9    C10   A    
C5    O2    S    
C33   H7    S    
C39   H3    S    
C6    C15   A    
O5    Zn1   S    
C25   O11   S    
C43   H20   S    
C27   C30   A    
C44   O3    S    
C8    C21   A    
C2    C45   A    
N2    Zn2   S    
C22   C31   A    
C43   O2    S    
C24   C25   A    
C39   C40   A    
C2    H10   S    
C8    C9    A    
C25   C26   A    
O9    Zn1   S    
H14   N3    S    
C28   O10   A    
O1    Zn1   S    
H15   N3    S    
C12   C41   A    
C32   H31   S    
C31   C32   A    
C28   C38   S    
C36   N1    A    
C18   H29   S    
C23   C34   A    
O4    Zn2   S    
C17   C18   A    
C13   C21   A    
C28   O9    A    
C34   C45   A    
C9    H28   S    
C44   H25   S    
C30   C35   A    
C7    C16   S    
C43   H21   S    
C7    C19   A    
C42   H18   S    
C48   O3    S    
C3    C4    S    
C6    C20   A    
C34   H9    S    
C4    O6    A    
C23   H8    S    
C46   C47   A    
C48   C49   A    
C42   O11   S    
C14   C19   A    
C3    C5    A    
C36   H30   S    
C4    O5    A    
O10   Zn2   S    
C22   C36   A    
C32   C33   A    
O6    Zn2   S    
C19   H26   S    
C2    C3    A    
C29   N2    A    
C37   H1    S    
C11   C13   A    
C38   C39   A    
C20   H13   S    
C44   H24   S    
C10   C11   A    
C16   O8    A    
C7    C20   A    
C42   H17   S    
C14   C15   A    
C40   C41   A    
C22   H2    S    
