data_mof_unit_5337.cif
_audit_creation_date              2012-12-10T18:47:06-0500
_audit_creation_method            fapswitch 2.2
_symmetry_space_group_name_H-M    P1
_symmetry_Int_Tables_number       1
_space_group_crystal_system       triclinic
_cell_length_a                    10.694648
_cell_length_b                    9.848076
_cell_length_c                    14.88456
_cell_angle_alpha                 89.826358
_cell_angle_beta                  88.428096
_cell_angle_gamma                 90.257641
_cell_volume                      1567.05367919

loop_
_atom_site_label
_atom_site_type_symbol
_atom_type_description
_atom_site_fract_x
_atom_site_fract_y
_atom_site_fract_z
_atom_type_partial_charge
C1    C     C_R   0.259927 0.499818 0.500209 0.856502
C2    C     C_R   0.127483 0.499851 0.500683 -0.006991
C3    C     C_R   0.580984 0.072088 0.551754 -0.070128
C4    C     C_R   0.419012 0.927912 0.448251 -0.070033
C5    C     C_R   0.419006 0.071757 0.448261 -0.071282
C6    C     C_R   0.580990 0.928241 0.551745 -0.071691
C7    C     C_R   0.503385 0.500279 0.326993 0.883154
C8    C     C_R   0.496547 0.499756 0.672979 0.883225
C9    C     C_R   0.599113 0.446401 0.810514 -0.276705
C10   C     C_R   0.399610 0.551973 0.189665 -0.272933
C11   C     C_R   0.496226 0.499171 0.768217 -0.044785
C12   C     C_R   0.740044 0.500222 0.500441 0.855318
C13   C     C_R   0.503753 0.501547 0.231694 -0.037500
C14   C     C_R   0.394762 0.552679 0.815875 -0.248755
C15   C     C_R   0.607790 0.454584 0.183767 -0.249940
C16   C     C_R   0.394577 0.551371 0.908940 0.099301
C17   C     C_R   0.608417 0.458011 0.090730 0.110048
C18   C     C_R   0.501109 0.503802 0.953125 0.021829
C19   C     C_R   0.501400 0.504840 0.046571 0.029201
C20   C     C_R   0.606864 0.454660 0.903461 0.102266
C21   C     C_R   0.394486 0.551087 0.096234 0.078628
C22   C     C_R   0.288934 0.595757 0.957587 -0.243321
C23   C     C_R   0.285458 0.593446 0.051858 0.098680
C24   C     C_R   0.714623 0.415615 0.041848 -0.268475
C25   C     C_3   0.167657 0.633319 0.106036 -0.416912
C26   C     C_3   0.047967 0.648832 0.052530 -0.374194
C27   C     C_3   0.934761 0.676819 0.114368 -0.872804
C28   C     C_3   0.836103 0.373048 0.898083 -0.416593
C29   C     C_3   0.898902 0.493247 0.847729 -0.345379
C30   C     C_3   0.026178 0.453283 0.807337 -0.900977
C31   C     C_R   0.716390 0.415075 0.947929 0.097878
C32   C     C_R   0.062387 0.384844 0.531384 -0.202168
C33   C     C_R   0.937545 0.615881 0.471207 -0.200975
C34   C     C_R   0.934180 0.385240 0.531783 -0.196903
C35   C     C_R   0.065674 0.615491 0.470819 -0.200482
C36   C     C_R   0.872430 0.500574 0.501336 -0.006748
H1    H     H_    0.672805 0.401567 0.769372 0.140994
H2    H     H_    0.116131 0.704475 0.446343 0.148088
H3    H     H_    0.645720 0.126673 0.593175 0.122342
H4    H     H_    0.354273 0.873327 0.406834 0.122723
H5    H     H_    0.354251 0.126079 0.406862 0.130556
H6    H     H_    0.645740 0.873916 0.593148 0.129817
H7    H     H_    0.919036 0.591293 0.162262 0.257303
H8    H     H_    0.949107 0.772045 0.152611 0.262137
H9    H     H_    0.850062 0.688142 0.073516 0.258546
H10   H     H_    0.058156 0.734447 0.004042 0.223169
H11   H     H_    0.030927 0.552702 0.016057 0.234720
H12   H     H_    0.323098 0.589824 0.231461 0.128764
H13   H     H_    0.147825 0.552228 0.156677 0.203403
H14   H     H_    0.186433 0.729727 0.142032 0.201383
H15   H     H_    0.089425 0.419630 0.860911 0.262192
H16   H     H_    0.015191 0.369853 0.758075 0.268577
H17   H     H_    0.069440 0.541979 0.772057 0.248330
H18   H     H_    0.840499 0.530040 0.792448 0.223593
H19   H     H_    0.910859 0.579869 0.894134 0.221257
H20   H     H_    0.903887 0.331531 0.946324 0.200277
H21   H     H_    0.816103 0.289177 0.850777 0.192771
H22   H     H_    0.315157 0.591520 0.780285 0.133843
H23   H     H_    0.688394 0.417760 0.219142 0.131885
H24   H     H_    0.209414 0.630590 0.920765 0.149391
H25   H     H_    0.796729 0.383478 0.077292 0.149549
H26   H     H_    0.110285 0.295760 0.555634 0.154175
H27   H     H_    0.889745 0.705034 0.446957 0.155230
H28   H     H_    0.883622 0.296329 0.556262 0.147025
N1    N     N_R   0.500000 0.857200 0.500000 -0.080781
N2    N     N_R   0.500000 0.142800 0.500000 -0.080812
O1    O     O_R   0.316770 0.614620 0.499990 -0.629830
O2    O     O_R   0.683230 0.385380 0.500010 -0.629203
O3    O     O_R   0.683230 0.614620 0.500010 -0.627850
O4    O     O_R   0.316770 0.385380 0.499990 -0.627187
O5    O     O_R   0.499980 0.614680 0.367850 -0.618251
O6    O     O_R   0.500020 0.385320 0.632150 -0.619017
O7    O     O_R   0.500020 0.614680 0.632150 -0.615935
O8    O     O_R   0.499980 0.385320 0.367850 -0.615032
Zn1   Zn    Zn3+2 0.500000 0.653120 0.500000 0.945879
Zn2   Zn    Zn3+2 0.500000 0.346880 0.500000 0.946625

loop_
_geom_bond_atom_site_label_1
_geom_bond_atom_site_label_2
_ccdc_geom_bond_type
C2    C35   A    
C30   H15   S    
C24   H25   S    
O6    Zn2   S    
C3    C6    A    
C28   H20   S    
C28   H21   S    
C12   O2    A    
C26   C27   S    
O8    Zn2   S    
C28   C29   S    
C19   C21   A    
C1    C2    S    
C22   H24   S    
C4    N1    A    
C33   C35   A    
C11   C14   A    
C29   H18   S    
C33   C36   A    
C2    C32   A    
C18   C19   A    
C25   H14   S    
C5    H5    S    
C17   C19   A    
C27   H8    S    
C6    N1    A    
C4    H4    S    
C7    O5    A    
C12   C36   S    
C18   C20   A    
C27   H9    S    
C3    H3    S    
O7    Zn1   S    
C9    H1    S    
C7    O8    A    
C10   C21   A    
C14   H22   S    
C30   H17   S    
C8    O6    A    
C17   C24   A    
C35   H2    S    
C5    N2    A    
C29   H19   S    
C25   C26   S    
C32   C34   A    
C29   C30   S    
C9    C20   A    
C33   H27   S    
N2    Zn2   S    
C34   H28   S    
C9    C11   A    
C26   H11   S    
C12   O3    A    
C13   C15   A    
C10   H12   S    
C14   C16   A    
C3    N2    A    
O1    Zn1   S    
O4    Zn2   S    
C15   C17   A    
C30   H16   S    
C16   C22   A    
C15   H23   S    
C28   C31   S    
C4    C5    A    
C10   C13   A    
O2    Zn2   S    
C1    O4    A    
N1    Zn1   S    
C21   C23   A    
C24   C31   A    
C32   H26   S    
O5    Zn1   S    
C8    C11   S    
C8    O7    A    
C1    O1    A    
O3    Zn1   S    
C34   C36   A    
C23   C25   S    
C25   H13   S    
C26   H10   S    
C27   H7    S    
C7    C13   S    
C16   C18   A    
C6    H6    S    
C22   C23   A    
C20   C31   A    
