data_mof_unit_59033.cif
_audit_creation_date              2012-12-11T14:56:39-0500
_audit_creation_method            fapswitch 2.2
_symmetry_space_group_name_H-M    P1
_symmetry_Int_Tables_number       1
_space_group_crystal_system       triclinic
_cell_length_a                    10.523118
_cell_length_b                    10.666004
_cell_length_c                    17.063019
_cell_angle_alpha                 80.385311
_cell_angle_beta                  89.605009
_cell_angle_gamma                 119.169844
_cell_volume                      1640.08025154

loop_
_atom_site_label
_atom_site_type_symbol
_atom_type_description
_atom_site_fract_x
_atom_site_fract_y
_atom_site_fract_z
_atom_type_partial_charge
C1    C     C_R   0.278860 0.888794 0.132674 0.558951
C2    C     C_R   0.798621 0.422538 0.262761 -0.127441
C3    C     C_R   0.788502 0.409902 0.183976 -0.130035
C4    C     C_R   0.650853 0.342429 0.156533 0.027411
C5    C     C_1   0.685030 0.831601 0.201665 -0.028932
C6    C     C_1   0.703634 0.807472 0.270344 -0.031901
C7    C     C_1   0.227723 0.854153 0.215422 -0.043245
C8    C     C_1   0.179064 0.834565 0.283083 -0.045866
C9    C     C_1   0.661930 0.358000 0.780521 -0.046330
C10   C     C_1   0.684284 0.402033 0.709950 -0.049403
C11   C     C_R   0.624985 0.712874 0.804949 -0.138186
C12   C     C_R   0.636256 0.280531 0.086080 0.538782
C13   C     C_R   0.610427 0.697734 0.726663 -0.138257
C14   C     C_R   0.669439 0.822201 0.665497 0.031308
C15   C     C_R   0.748968 0.962225 0.682890 -0.141933
C16   C     C_R   0.759766 0.977757 0.761910 -0.140313
C17   C     C_R   0.691520 0.852751 0.822993 0.021891
C18   C     C_R   0.083166 0.883547 0.790451 -0.135040
C19   C     C_R   0.066799 0.880280 0.710920 -0.124454
C20   C     C_R   0.114676 0.802254 0.671997 0.031907
C21   C     C_R   0.166536 0.716318 0.714892 -0.136707
C22   C     C_R   0.184723 0.720922 0.794871 -0.124420
C23   C     C_R   0.643390 0.855717 0.124251 0.545274
C24   C     C_R   0.150481 0.811410 0.831321 0.025693
C25   C     C_R   0.711405 0.772670 0.353452 0.561873
C26   C     C_R   0.689259 0.396037 0.394630 0.551180
C27   C     C_R   0.108400 0.812529 0.359950 0.546371
C28   C     C_R   0.677348 0.800167 0.585457 0.544831
C29   C     C_R   0.717130 0.446200 0.625988 0.562160
C30   C     C_R   0.089895 0.798617 0.589438 0.544497
C31   C     C_R   0.216396 0.858047 0.902434 0.557205
C32   C     C_R   0.640362 0.290740 0.861914 0.550379
C33   C     C_R   0.648028 0.866742 0.899674 0.545817
C34   C     C_R   0.524359 0.303252 0.205899 -0.129692
C35   C     C_R   0.534867 0.317804 0.285079 -0.135724
C36   C     C_R   0.671373 0.370875 0.314324 0.029426
Cr1   Cr    Cr6+3 0.402240 0.783890 0.019450 1.024169
Cr2   Cr    Cr6+3 0.382360 0.097900 0.991800 1.020391
Cr3   Cr    Cr6+3 0.715380 0.118170 0.988700 1.024759
Cr4   Cr    Cr6+3 0.936650 0.882420 0.465510 1.022852
Cr5   Cr    Cr6+3 0.605770 0.565620 0.493360 1.025050
Cr6   Cr    Cr6+3 0.921340 0.550490 0.496380 1.018254
H1    H     H_    0.197578 0.650713 0.686057 0.130072
H2    H     H_    0.235785 0.662882 0.826082 0.143102
H3    H     H_    0.437080 0.283945 0.323773 0.135398
H4    H     H_    0.906571 0.472646 0.283271 0.146549
H5    H     H_    0.887195 0.443362 0.146153 0.141843
H6    H     H_    0.800916 0.058474 0.635590 0.137068
H7    H     H_    0.811544 0.086995 0.774973 0.146832
H8    H     H_    0.053111 0.950970 0.818211 0.134478
O1    O     O_R   0.521780 0.757110 0.108900 -0.513710
O2    O     O_R   0.513330 0.228330 0.898660 -0.495363
O3    O     O_R   0.739230 0.266130 0.888050 -0.511130
O4    O     O_R   0.712580 0.991850 0.918770 -0.504895
O5    O     O_3   0.499990 0.999980 0.999980 -0.264554
O6    O     O_R   0.083770 0.911170 0.376030 -0.510368
O7    O     O_R   0.808770 0.880340 0.383890 -0.484465
O8    O     O_R   0.584340 0.689460 0.394160 -0.499298
O9    O     O_R   0.614320 0.443940 0.423590 -0.510639
O10   O     O_R   0.805020 0.410040 0.421340 -0.514767
O11   O     O_R   0.049240 0.685450 0.403290 -0.499761
O12   O     O_R   0.275160 0.783810 0.101120 -0.492866
O13   O     O_R   0.077520 0.903010 0.551800 -0.518753
O14   O     O_R   0.802980 0.872780 0.546830 -0.504733
O15   O     O_R   0.578090 0.681300 0.569920 -0.522002
O16   O     O_R   0.608530 0.436370 0.586530 -0.491433
O17   O     O_R   0.798770 0.401880 0.597100 -0.503369
O18   O     O_R   0.043450 0.677890 0.566230 -0.515655
O19   O     O_3   0.821250 0.666180 0.485090 -0.299037
O20   O     O_R   0.237900 0.972600 0.090980 -0.510146
O21   O     O_R   0.511190 0.220540 0.061620 -0.524780
O22   O     O_R   0.736920 0.257720 0.063840 -0.514719
O23   O     O_R   0.710450 0.984050 0.081720 -0.493756
O24   O     O_R   0.524090 0.765520 0.933110 -0.519931
O25   O     O_R   0.277300 0.791600 0.938160 -0.502292
O26   O     O_R   0.240210 0.981010 0.915190 -0.512302
H9    H     H_    0.416658 0.251573 0.185272 0.142696
H10   H     H_    0.018022 0.940624 0.679679 0.148640
H11   H     H_    0.573379 0.615437 0.851571 0.130805
H12   H     H_    0.555212 0.588213 0.714017 0.134691

loop_
_geom_bond_atom_site_label_1
_geom_bond_atom_site_label_2
_ccdc_geom_bond_type
Cr1   O24   S    
Cr2   O20   S    
C19   C20   A    
C1    O12   A    
Cr1   O12   S    
C7    C8    T    
C20   C30   S    
C2    H4    S    
Cr4   O13   S    
C25   O7    A    
C18   C24   A    
C21   C22   A    
Cr3   O4    S    
Cr5   O8    S    
C18   C19   A    
C34   H9    S    
C5    C6    T    
Cr1   O1    S    
C6    C25   S    
Cr2   O2    S    
C15   C16   A    
C34   C35   A    
C32   O2    A    
C27   O11   A    
C9    C32   S    
C29   O17   A    
C23   O1    A    
C22   H2    S    
Cr2   O5    S    
C35   C36   A    
C16   C17   A    
Cr4   O6    S    
Cr3   O22   S    
C4    C12   S    
C26   O9    A    
Cr3   O5    S    
C12   O22   A    
C13   H12   S    
C21   H1    S    
C13   C14   A    
Cr2   O26   S    
Cr6   O18   S    
C17   C33   S    
C15   H6    S    
C23   O23   A    
C4    C34   A    
Cr4   O19   S    
C16   H7    S    
Cr5   O9    S    
Cr6   O10   S    
C27   O6    A    
Cr5   O15   S    
Cr6   O19   S    
C19   H10   S    
C31   O25   A    
C5    C23   S    
Cr6   O11   S    
C11   H11   S    
C28   O14   A    
C26   C36   S    
C12   O21   A    
Cr6   O17   S    
C22   C24   A    
C25   O8    A    
C3    C4    A    
C35   H3    S    
C32   O3    A    
C18   H8    S    
Cr5   O19   S    
C9    C10   T    
C2    C36   A    
C33   O4    A    
Cr2   O21   S    
C11   C17   A    
Cr4   O7    S    
C1    C7    S    
Cr5   O16   S    
C1    O20   A    
Cr4   O14   S    
C28   O15   A    
C24   C31   S    
C11   C13   A    
C10   C29   S    
C31   O26   A    
Cr3   O3    S    
C3    H5    S    
C2    C3    A    
Cr3   O23   S    
Cr1   O25   S    
C29   O16   A    
Cr1   O5    S    
C33   O24   A    
C20   C21   A    
C8    C27   S    
C14   C15   A    
C14   C28   S    
C30   O13   A    
C26   O10   A    
C30   O18   A    
