data_mof_unit_52255.cif
_audit_creation_date              2012-12-10T17:42:12-0500
_audit_creation_method            fapswitch 2.2
_symmetry_space_group_name_H-M    P1
_symmetry_Int_Tables_number       1
_space_group_crystal_system       triclinic
_cell_length_a                    15.013524
_cell_length_b                    13.847523
_cell_length_c                    10.835307
_cell_angle_alpha                 90.356655
_cell_angle_beta                  87.79018
_cell_angle_gamma                 89.705388
_cell_volume                      2250.91009923

loop_
_atom_site_label
_atom_site_type_symbol
_atom_type_description
_atom_site_fract_x
_atom_site_fract_y
_atom_site_fract_z
_atom_type_partial_charge
C1    C     C_R   0.329251 0.500092 0.499565 0.846737
C2    C     C_3   0.581975 0.476749 0.921159 -0.514293
C3    C     C_R   0.817981 0.483521 0.384661 0.356972
C4    C     C_R   0.768573 0.496915 0.496659 -0.238064
C5    C     C_R   0.811806 0.500764 0.609033 0.359929
C6    C     C_R   0.904749 0.511265 0.607129 0.039091
C7    C     C_R   0.954658 0.490286 0.497024 -0.101197
C8    C     C_R   0.911087 0.467138 0.387652 -0.155542
C9    C     C_R   0.948431 0.539745 0.713656 -0.165195
C10   C     C_R   0.040822 0.546674 0.711684 -0.147285
C11   C     C_R   0.090997 0.522389 0.604453 0.130106
C12   C     C_R   0.497699 0.499864 0.259987 0.805559
C13   C     C_R   0.048139 0.491707 0.497072 0.066191
C14   C     C_R   0.098837 0.462997 0.390198 -0.015907
C15   C     C_R   0.055228 0.430597 0.284865 0.189829
C16   C     C_R   0.961787 0.430335 0.284478 0.370305
C17   C     C_R   0.183524 0.527810 0.603105 -0.127628
C18   C     C_R   0.233282 0.499564 0.497869 -0.055160
C19   C     C_R   0.191978 0.466214 0.392741 -0.161960
C20   C     C_R   0.423901 0.797903 0.529855 0.419682
C21   C     C_R   0.426506 0.204369 0.539336 0.411265
C22   C     C_R   0.577010 0.792672 0.467602 0.054243
C23   C     C_R   0.576157 0.206894 0.462492 0.025756
C24   C     C_R   0.581052 0.896060 0.466183 -0.106135
C25   C     C_R   0.580857 0.103779 0.464027 -0.107269
C26   C     C_R   0.671293 0.499445 0.497605 0.919091
C27   C     C_R   0.501877 0.949096 0.488301 0.024721
C28   C     C_R   0.502037 0.052153 0.488891 0.031381
C29   C     C_R   0.422330 0.899420 0.515781 -0.009931
C30   C     C_R   0.423407 0.103644 0.521173 -0.007978
C31   C     C_R   0.661691 0.948094 0.446411 0.252163
C32   C     C_R   0.661457 0.051060 0.444497 0.234002
C33   C     C_R   0.343554 0.053041 0.538331 -0.127589
C34   C     C_R   0.342718 0.953163 0.533480 -0.120428
C35   C     C_R   0.491992 0.500431 0.739875 0.873595
C36   C     C_3   0.463090 0.601907 0.075065 0.050169
C37   C     C_3   0.424878 0.423174 0.076114 0.043885
C38   C     C_3   0.460862 0.602697 0.933162 0.113984
C39   C     C_3   0.423350 0.422258 0.932968 0.120108
C40   C     C_3   0.586113 0.476842 0.062897 -0.372298
C41   C     C_3   0.493621 0.500026 0.122031 -0.079294
C42   C     C_3   0.486914 0.501297 0.878356 -0.105527
Cu1   Cu    Cu3+1 0.499990 0.597420 0.500010 1.029987
Cu2   Cu    Cu3+1 0.499990 0.402580 0.500010 1.018920
H1    H     H_    0.073141 0.569743 0.794536 0.188432
H2    H     H_    0.217080 0.552061 0.684408 0.209533
H3    H     H_    0.233513 0.443963 0.313667 0.177846
H4    H     H_    0.636245 0.751277 0.444696 0.176625
H5    H     H_    0.634186 0.248008 0.434570 0.182937
H6    H     H_    0.280503 0.090069 0.554436 0.192818
H7    H     H_    0.278241 0.919503 0.544996 0.196063
H8    H     H_    0.395255 0.615661 0.116678 0.176848
H9    H     H_    0.357928 0.443532 0.115830 0.165420
H10   H     H_    0.510508 0.655105 0.895143 0.195901
H11   H     H_    0.448612 0.351408 0.897130 0.200891
H12   H     H_    0.634207 0.532110 0.091416 0.208381
H13   H     H_    0.610876 0.405761 0.094936 0.222056
H14   H     H_    0.630768 0.529784 0.882408 0.231682
H15   H     H_    0.601761 0.403875 0.886602 0.204382
H16   H     H_    0.911072 0.557849 0.798267 0.178643
N1    N     N_R   0.499930 0.743810 0.499950 -0.211436
N2    N     N_R   0.499930 0.256190 0.499950 -0.214782
O1    O     O_R   0.370250 0.582280 0.500040 -0.544986
O2    O     O_R   0.370250 0.417720 0.500040 -0.539209
O3    O     O_R   0.499970 0.582270 0.317700 -0.559264
O4    O     O_R   0.499970 0.417730 0.317700 -0.538723
O5    O     O_R   0.629730 0.582260 0.499980 -0.601030
O6    O     O_R   0.629730 0.417740 0.499980 -0.613345
O7    O     O_R   0.500000 0.582270 0.682320 -0.551680
O8    O     O_R   0.500000 0.417730 0.682320 -0.582592
Br1   Br    Br    0.533257 0.714530 0.123631 -0.524611
Br2   Br    Br    0.445281 0.289523 0.129188 -0.445072
Br3   Br    Br    0.120320 0.386594 0.138002 -0.411010
O9    O     O_3   0.921044 0.397329 0.179970 -0.580057
C43   C     C_3   0.894067 0.300865 0.199130 0.159955
H17   H     H_    0.840775 0.297267 0.273321 0.182598
H18   H     H_    0.951525 0.254755 0.224900 0.167305
C44   C     C_3   0.857363 0.261407 0.079405 -0.364531
H19   H     H_    0.800770 0.307487 0.051731 0.218369
H20   H     H_    0.910425 0.263818 0.005001 0.245204
C45   C     C_3   0.825146 0.157589 0.094450 -0.802726
H21   H     H_    0.878346 0.111302 0.131711 0.285728
H22   H     H_    0.807114 0.127775 0.003580 0.254740
H23   H     H_    0.765118 0.155602 0.157474 0.285944
Br4   Br    Br    0.320012 0.745799 0.614771 -0.437098
Br5   Br    Br    0.336125 0.259899 0.648822 -0.415652
Br6   Br    Br    0.774214 0.880339 0.432735 -0.485937
Br7   Br    Br    0.773181 0.118957 0.427561 -0.554044
Br8   Br    Br    0.346324 0.655587 0.888898 -0.396250
Br9   Br    Br    0.300595 0.426213 0.879970 -0.383249
O10   O     O_3   0.773600 0.483107 0.274706 -0.607743
C46   C     C_3   0.800090 0.563665 0.201840 0.084601
H24   H     H_    0.784768 0.546990 0.104626 0.169645
H25   H     H_    0.872952 0.578059 0.200665 0.173509
C47   C     C_3   0.750133 0.655073 0.244382 -0.422586
H26   H     H_    0.678070 0.639364 0.255844 0.263934
H27   H     H_    0.774304 0.678057 0.335457 0.243777
C48   C     C_3   0.764820 0.736728 0.151900 -0.732052
H28   H     H_    0.836457 0.756430 0.145076 0.260069
H29   H     H_    0.725476 0.801158 0.182632 0.297618
H30   H     H_    0.742781 0.714529 0.059266 0.258095
O11   O     O_3   0.762523 0.492924 0.719356 -0.627765
C49   C     C_3   0.780668 0.402285 0.774569 -0.008657
H31   H     H_    0.757734 0.406729 0.872924 0.167137
H32   H     H_    0.853118 0.385165 0.776361 0.163631
C50   C     C_3   0.732096 0.319248 0.711119 -0.361249
H33   H     H_    0.660481 0.337237 0.704735 0.251652
H34   H     H_    0.761009 0.308136 0.616133 0.241147
C51   C     C_3   0.740128 0.225090 0.781857 -0.840507
H35   H     H_    0.811374 0.205049 0.790051 0.270302
H36   H     H_    0.706220 0.166475 0.731684 0.283618
H37   H     H_    0.707792 0.232751 0.875357 0.251819

loop_
_geom_bond_atom_site_label_1
_geom_bond_atom_site_label_2
_ccdc_geom_bond_type
C22   H4    S    
C27   C29   A    
Cu2   O4    S    
C47   H26   S    
C24   C27   A    
C43   H17   S    
C6    C9    A    
C45   H21   S    
C47   C48   S    
Cu1   O1    S    
C7    C8    A    
Cu2   O2    S    
C25   C28   A    
C38   Br8   S    
C34   H7    S    
C16   O9    S    
C26   O5    A    
C38   C42   S    
C51   H36   S    
C5    C6    A    
C19   H3    S    
C23   H5    S    
C50   H33   S    
C15   C16   A    
C32   Br7   S    
C3    O10   S    
C18   C19   A    
C8    C16   A    
C20   N1    A    
C35   C42   S    
C5    O11   S    
C23   N2    A    
C39   H11   S    
C35   O8    A    
C40   H12   S    
Cu2   O8    S    
C2    H14   S    
C9    C10   A    
C39   Br9   S    
C36   H8    S    
C36   Br1   S    
C37   H9    S    
C25   C32   A    
Cu1   O7    S    
C13   C14   A    
C36   C41   S    
C1    O1    A    
C45   H22   S    
C33   C34   A    
C39   C42   S    
C20   C29   A    
C31   Br6   S    
O9    C43   S    
C17   H2    S    
C3    C8    A    
C51   H37   S    
O10   C46   S    
C2    H15   S    
Cu2   N2    S    
C33   H6    S    
C12   O4    A    
C29   C34   A    
C46   C47   S    
Cu1   Cu2   S    
C12   C41   S    
C31   C32   A    
C38   H10   S    
Cu1   O3    S    
C20   Br4   S    
C10   H1    S    
C46   H25   S    
C17   C18   A    
C1    C18   S    
C49   H32   S    
C43   H18   S    
C21   N2    A    
C40   C41   S    
C15   Br3   S    
C48   H29   S    
C22   C24   A    
Cu2   O6    S    
C3    C4    A    
C1    O2    A    
C49   H31   S    
C45   H23   S    
Cu1   N1    S    
C21   C30   A    
C21   Br5   S    
C11   C17   A    
C40   H13   S    
C30   C33   A    
C44   H19   S    
C14   C19   A    
C4    C5    A    
C4    C26   S    
C47   H27   S    
C6    C7    A    
C48   H30   S    
C12   O3    A    
C9    H16   S    
C26   O6    A    
C36   C38   S    
C24   C31   A    
C37   C39   S    
C51   H35   S    
C22   N1    A    
C11   C13   A    
C44   C45   S    
C50   H34   S    
C2    C42   S    
C28   C30   A    
C46   H24   S    
C49   C50   S    
C44   H20   S    
C23   C25   A    
C37   C41   S    
O11   C49   S    
C43   C44   S    
C10   C11   A    
C2    C40   S    
C7    C13   A    
C35   O7    A    
Cu1   O5    S    
C48   H28   S    
C37   Br2   S    
C27   C28   A    
C14   C15   A    
C50   C51   S    
