data_mof_unit_64866.cif
_audit_creation_date              2013-03-05T16:30:06-0500
_audit_creation_method            fapswitch 2.2
_symmetry_space_group_name_H-M    P1
_symmetry_Int_Tables_number       1
_space_group_crystal_system       triclinic
_cell_length_a                    19.436772
_cell_length_b                    18.13659
_cell_length_c                    17.765925
_cell_angle_alpha                 90.000029
_cell_angle_beta                  89.799787
_cell_angle_gamma                 89.999941
_cell_volume                      6262.74816632

loop_
_atom_site_label
_atom_site_type_symbol
_atom_site_description
_atom_site_fract_x
_atom_site_fract_y
_atom_site_fract_z
_atom_type_partial_charge
O1    O     O_R   0.400190 0.561980 0.499990 -0.556124
O2    O     O_R   0.599810 0.438020 0.500010 -0.541253
O3    O     O_R   0.599810 0.561980 0.500010 -0.556124
O4    O     O_R   0.400190 0.438020 0.499990 -0.541253
C1    C     C_R   0.367628 0.500013 0.500925 0.916524
C2    C     C_R   0.632372 0.500013 0.499075 0.916531
O5    O     O_R   0.500000 0.561980 0.391260 -0.558322
O6    O     O_R   0.500000 0.438020 0.608740 -0.579757
O7    O     O_R   0.500000 0.561980 0.608740 -0.558324
O8    O     O_R   0.500000 0.438020 0.391260 -0.579757
C3    C     C_R   0.499856 0.499956 0.355578 0.928258
C4    C     C_R   0.500144 0.499956 0.644422 0.928265
Cu1   Cu    Cu3+1 0.500000 0.573360 0.500000 1.100628
Cu2   Cu    Cu3+1 0.500000 0.426640 0.500000 1.105169
C5    C     C_R   0.539354 0.553295 0.845697 -0.110587
C6    C     C_R   0.538383 0.447494 0.153510 -0.112214
C7    C     C_R   0.460652 0.553298 0.154302 -0.110587
C8    C     C_R   0.461616 0.447496 0.846490 -0.112213
C9    C     C_R   0.540015 0.552736 0.766605 0.258236
C10   C     C_R   0.538619 0.446919 0.232588 0.264222
C11   C     C_R   0.459990 0.552739 0.233395 0.258240
C12   C     C_R   0.461379 0.446921 0.767412 0.264219
C13   C     C_R   0.500461 0.499867 0.727274 -0.242892
C14   C     C_R   0.499540 0.499867 0.272726 -0.242890
C15   C     C_R   0.500243 0.500777 0.885328 -0.058771
C16   C     C_R   0.499759 0.500777 0.114672 -0.058771
C17   C     C_1   0.500079 0.501188 0.966281 0.015235
C18   C     C_1   0.499924 0.501188 0.033719 0.015236
C19   C     C_R   0.745856 0.453572 0.544268 0.324364
C20   C     C_R   0.256880 0.551701 0.550305 0.324436
C21   C     C_R   0.254144 0.453571 0.455733 0.324360
C22   C     C_R   0.743120 0.551700 0.449693 0.324433
C23   C     C_R   0.817448 0.458564 0.546064 -0.169025
C24   C     C_R   0.185077 0.555431 0.547489 -0.179868
C25   C     C_R   0.182552 0.458563 0.453937 -0.169024
C26   C     C_R   0.814923 0.555430 0.452509 -0.179868
H1    H     H_    0.846048 0.421847 0.582525 0.184237
H2    H     H_    0.158087 0.594340 0.583231 0.191706
H3    H     H_    0.153952 0.421845 0.417477 0.184237
H4    H     H_    0.841913 0.594338 0.416766 0.191706
C27   C     C_R   0.852252 0.508930 0.500066 -0.032426
C28   C     C_R   0.147748 0.508930 0.499933 -0.032427
C29   C     C_R   0.707921 0.500580 0.496392 -0.235958
C30   C     C_R   0.292079 0.500581 0.503608 -0.235958
C31   C     C_R   0.964352 0.511930 0.431788 -0.134685
C32   C     C_R   0.035648 0.511932 0.568212 -0.134685
C33   C     C_R   0.035999 0.511702 0.431683 -0.131814
C34   C     C_R   0.964001 0.511704 0.568317 -0.131814
H5    H     H_    0.937400 0.511043 0.378536 0.161442
H6    H     H_    0.062600 0.511047 0.621463 0.161442
H7    H     H_    0.063250 0.511799 0.378396 0.163746
H8    H     H_    0.936750 0.511803 0.621603 0.163746
C35   C     C_R   0.072116 0.511437 0.499891 0.128364
C36   C     C_R   0.927884 0.511437 0.500108 0.128364
C37   C     C_R   0.464065 0.721035 0.553883 0.152747
C38   C     C_R   0.527918 0.278817 0.559033 0.180144
C39   C     C_R   0.535935 0.721034 0.446117 0.152754
C40   C     C_R   0.472081 0.278817 0.440967 0.180148
H9    H     H_    0.435605 0.690885 0.596266 0.178790
H10   H     H_    0.550251 0.308689 0.605569 0.170486
H11   H     H_    0.564395 0.690884 0.403734 0.178790
H12   H     H_    0.449748 0.308689 0.394431 0.170486
C41   C     C_R   0.463672 0.798434 0.555107 -0.142183
C42   C     C_R   0.528122 0.201419 0.560299 -0.138943
C43   C     C_R   0.536328 0.798434 0.444893 -0.142181
C44   C     C_R   0.471877 0.201419 0.439701 -0.138940
H13   H     H_    0.435286 0.827015 0.598796 0.178570
H14   H     H_    0.550042 0.172838 0.608056 0.177682
H15   H     H_    0.564714 0.827015 0.401204 0.178570
H16   H     H_    0.449958 0.172839 0.391944 0.177682
C45   C     C_R   0.500000 0.838298 0.500000 0.188611
C46   C     C_R   0.500000 0.161551 0.500000 0.180021
N1    N     N_R   0.500000 0.683620 0.500000 -0.207425
N2    N     N_R   0.500000 0.316380 0.500000 -0.207452
C47   C     C_R   0.562585 0.960826 0.505373 0.220541
C48   C     C_R   0.437377 0.039023 0.495146 0.219656
C49   C     C_R   0.437415 0.960826 0.494627 0.220541
C50   C     C_R   0.562623 0.039023 0.504854 0.219656
C51   C     C_R   0.500000 0.078661 0.500000 -0.211004
C52   C     C_R   0.500000 0.921188 0.500000 -0.212856
C53   C     C_1   0.580959 0.606361 0.886183 0.395763
N3    N     N_1   0.614158 0.648681 0.918582 -0.185195
C54   C     C_1   0.579775 0.394570 0.112241 0.394885
N4    N     N_1   0.612801 0.352365 0.079223 -0.185796
C55   C     C_1   0.419050 0.606368 0.113817 0.395759
N5    N     N_1   0.385854 0.648691 0.081418 -0.185195
C56   C     C_1   0.420221 0.394575 0.887760 0.394885
N6    N     N_1   0.387194 0.352373 0.920778 -0.185797
N7    N     N_R   0.583327 0.603670 0.726410 0.136812
O9    O     O_R   0.630796 0.579316 0.680950 -0.330583
O10   O     O_R   0.576938 0.674325 0.737021 -0.302843
N8    N     N_R   0.580181 0.393899 0.271859 0.135284
O11   O     O_R   0.571456 0.323687 0.260282 -0.317331
O12   O     O_R   0.628579 0.415752 0.317072 -0.302162
N9    N     N_R   0.416680 0.603676 0.273588 0.136811
O13   O     O_R   0.369205 0.579326 0.319043 -0.330576
O14   O     O_R   0.423080 0.674332 0.262983 -0.302847
N10   N     N_R   0.419815 0.393904 0.728141 0.135283
O15   O     O_R   0.428537 0.323691 0.739719 -0.317328
O16   O     O_R   0.371419 0.415759 0.682928 -0.302165
N11   N     N_R   0.712426 0.401904 0.593074 0.124679
O17   O     O_R   0.689762 0.340047 0.565649 -0.304115
O18   O     O_R   0.718823 0.408786 0.665585 -0.310159
N12   N     N_R   0.292785 0.598699 0.602249 0.131889
O19   O     O_R   0.341898 0.572299 0.643873 -0.350176
O20   O     O_R   0.270024 0.664846 0.615962 -0.307591
N13   N     N_R   0.287574 0.401901 0.406929 0.124678
O21   O     O_R   0.310237 0.340045 0.434355 -0.304111
O22   O     O_R   0.281179 0.408783 0.334418 -0.310163
N14   N     N_R   0.707214 0.598695 0.397748 0.131888
O23   O     O_R   0.658101 0.572294 0.356125 -0.350179
O24   O     O_R   0.729975 0.664843 0.384033 -0.307591
N15   N     N_R   0.626662 0.921743 0.511072 0.164312
O25   O     O_R   0.676771 0.935999 0.464546 -0.243596
O26   O     O_R   0.635246 0.871984 0.562964 -0.277282
N16   N     N_R   0.373231 0.078104 0.490366 0.165587
O27   O     O_R   0.330307 0.063829 0.436250 -0.242867
O28   O     O_R   0.357385 0.127890 0.540237 -0.271934
N17   N     N_R   0.373337 0.921743 0.488928 0.164312
O29   O     O_R   0.323229 0.936000 0.535454 -0.243596
O30   O     O_R   0.364754 0.871984 0.437036 -0.277279
N18   N     N_R   0.626769 0.078103 0.509633 0.165587
O31   O     O_R   0.669693 0.063829 0.563750 -0.242868
O32   O     O_R   0.642615 0.127890 0.459763 -0.271934

loop_
_geom_bond_atom_site_label_1
_geom_bond_atom_site_label_2
_geom_bond_distance
_ccdc_geom_bond_type
C40   H12   1.080744 S    
C56   N6    1.157326 T    
N11   O17   1.300588 A    
C12   N10   1.438039 S    
C37   H9    1.081243 S    
C9    C13   1.415093 A    
N9    O13   1.301331 A    
C24   C28   1.398498 A    
C48   C51   1.416527 A    
O3    C2    1.289891 A    
N12   O20   1.301375 A    
C53   N3    1.157329 T    
C5    C53   1.449706 S    
C55   N5    1.157331 T    
C34   C36   1.402567 A    
C10   N8    1.438039 S    
C4    C13   1.471974 S    
C22   N14   1.438642 S    
O1    C1    1.289892 A    
C7    C16   1.406096 A    
Cu2   N2    1.999740 S    
C46   C51   1.503335 S    
C42   H14   1.082865 S    
C28   C35   1.470751 S    
C5    C15   1.406095 A    
C19   C23   1.394940 A    
C3    C14   1.471977 S    
N16   O27   1.301163 A    
C39   N1    1.363819 A    
C25   C28   1.398563 A    
O7    Cu1   1.942861 S    
N14   O23   1.300875 A    
N12   O19   1.300875 A    
C5    C9    1.405207 A    
C40   C44   1.403918 A    
C44   C46   1.404747 A    
C10   C14   1.415555 A    
C37   C41   1.403945 A    
N13   O21   1.300587 A    
C38   C42   1.403920 A    
C47   N15   1.436931 S    
N7    O10   1.301115 A    
C47   C52   1.416501 A    
O3    Cu1   1.950931 S    
C6    C10   1.404956 A    
C33   C35   1.402565 A    
C31   C33   1.392581 A    
N11   O18   1.300651 A    
C8    C12   1.404956 A    
Cu1   Cu2   2.660999 S    
C19   C29   1.413644 A    
N13   O22   1.300650 A    
C20   C30   1.418445 A    
C26   C27   1.398499 A    
O2    C2    1.290318 A    
C8    C15   1.406122 A    
O2    Cu2   1.950931 S    
C45   C52   1.503338 S    
O7    C4    1.291235 A    
O5    C3    1.291234 A    
C32   C34   1.392581 A    
N17   O30   1.301253 A    
C6    C16   1.406123 A    
C41   H13   1.082854 S    
C38   N2    1.364729 A    
C21   C30   1.413644 A    
C20   C24   1.398327 A    
C26   H4    1.083546 S    
C48   C49   1.418248 A    
O8    Cu2   1.942863 S    
C39   C43   1.403945 A    
C50   C51   1.416527 A    
C33   H7    1.083177 S    
C11   N9    1.437981 S    
C43   C45   1.405340 A    
C6    C54   1.449847 S    
C23   H1    1.083780 S    
C38   H10   1.080742 S    
C25   H3    1.083779 S    
C9    N7    1.437983 S    
C54   N4    1.157327 T    
C31   H5    1.083138 S    
O6    C4    1.289849 A    
N8    O12   1.300950 A    
C19   N11   1.431158 S    
C1    C30   1.469070 S    
Cu1   N1    1.999740 S    
C31   C36   1.403484 A    
N10   O16   1.300948 A    
C2    C29   1.469072 S    
C7    C55   1.449706 S    
O1    Cu1   1.950933 S    
N18   O32   1.301257 A    
C22   C26   1.398329 A    
C40   N2    1.364731 A    
N15   O25   1.301163 A    
C49   C52   1.416501 A    
O6    Cu2   1.942861 S    
C24   H2    1.083546 S    
C21   N13   1.431160 S    
C41   C45   1.405338 A    
O4    C1    1.290319 A    
C49   N17   1.436932 S    
N17   O29   1.301163 A    
N9    O14   1.301119 A    
C39   H11   1.081243 S    
C15   C17   1.438226 S    
C32   H6    1.083138 S    
C16   C18   1.438224 S    
C8    C56   1.449846 S    
C23   C27   1.398563 A    
N18   O31   1.301162 A    
C44   H16   1.082866 S    
C43   H15   1.082852 S    
C32   C35   1.403484 A    
N8    O11   1.301114 A    
C48   N16   1.436958 S    
C22   C29   1.418443 A    
N16   O28   1.301258 A    
C21   C25   1.394938 A    
C42   C46   1.404747 A    
O4    Cu2   1.950933 S    
C50   N18   1.436959 S    
C47   C50   1.418248 A    
N14   O24   1.301376 A    
C27   C36   1.470751 S    
O8    C3    1.289849 A    
C37   N1    1.363819 A    
O5    Cu1   1.942862 S    
N10   O15   1.301114 A    
C11   C14   1.415092 A    
C20   N12   1.438642 S    
C17   C18   1.198083 T    
C12   C13   1.415554 A    
N7    O9    1.301326 A    
C34   H8    1.083176 S    
N15   O26   1.301255 A    
C7    C11   1.405205 A    
