data_mof_unit_32737.cif
_audit_creation_date              2012-12-11T14:56:40-0500
_audit_creation_method            fapswitch 2.2
_symmetry_space_group_name_H-M    P1
_symmetry_Int_Tables_number       1
_space_group_crystal_system       triclinic
_cell_length_a                    10.524466
_cell_length_b                    10.668201
_cell_length_c                    17.064135
_cell_angle_alpha                 80.432694
_cell_angle_beta                  89.874954
_cell_angle_gamma                 119.18928
_cell_volume                      1641.62377434

loop_
_atom_site_label
_atom_site_type_symbol
_atom_type_description
_atom_site_fract_x
_atom_site_fract_y
_atom_site_fract_z
_atom_type_partial_charge
C1    C     C_R   0.223721 0.855175 0.128929 0.540894
C2    C     C_1   0.684145 0.401476 0.709993 -0.048657
C3    C     C_R   0.623957 0.712485 0.804884 -0.138921
C4    C     C_R   0.638511 0.282735 0.085547 0.536731
C5    C     C_R   0.610213 0.697623 0.726498 -0.137547
C6    C     C_R   0.670381 0.822155 0.665619 0.033800
C7    C     C_R   0.750530 0.961883 0.683437 -0.141440
C8    C     C_R   0.760707 0.977162 0.762531 -0.141410
C9    C     C_R   0.691107 0.852195 0.823260 0.020799
C10   C     C_R   0.082727 0.883497 0.790363 -0.134425
C11   C     C_R   0.066955 0.880666 0.710737 -0.123981
C12   C     C_R   0.827254 0.444048 0.255270 0.074350
C13   C     C_R   0.114571 0.802330 0.672043 0.032619
C14   C     C_R   0.165396 0.715589 0.715186 -0.136830
C15   C     C_R   0.183033 0.719788 0.795255 -0.124198
C16   C     C_R   0.601453 0.881780 0.131022 0.563349
C17   C     C_R   0.149422 0.810814 0.831493 0.026575
C18   C     C_R   0.683217 0.813002 0.358597 0.546663
C19   C     C_R   0.728120 0.460283 0.383116 0.589993
C20   C     C_R   0.105376 0.810973 0.359653 0.557626
C21   C     C_R   0.677710 0.800123 0.585540 0.537999
C22   C     C_R   0.717148 0.445948 0.626113 0.560922
C23   C     C_R   0.806026 0.411370 0.179743 -0.118560
C24   C     C_R   0.090001 0.798712 0.589444 0.544660
C25   C     C_R   0.216009 0.857837 0.902536 0.553080
C26   C     C_R   0.640086 0.290482 0.861883 0.550461
C27   C     C_R   0.647786 0.866590 0.899751 0.556284
C28   C     C_R   0.558598 0.370421 0.191991 -0.135423
C29   C     C_R   0.581470 0.411507 0.266219 -0.150453
C30   C     C_R   0.712365 0.439787 0.300412 0.052118
C31   C     C_R   0.668871 0.363444 0.150440 0.006931
C32   C     C_1   0.635174 0.871519 0.211283 -0.035373
C33   C     C_1   0.661489 0.855384 0.279061 -0.037745
C34   C     C_1   0.183916 0.828589 0.211603 -0.048380
C35   C     C_1   0.154631 0.822043 0.280354 -0.025399
C36   C     C_1   0.661384 0.357444 0.780502 -0.045939
Cr1   Cr    Cr6+3 0.402240 0.783890 0.019450 1.013847
Cr2   Cr    Cr6+3 0.382360 0.097900 0.991800 1.023459
Cr3   Cr    Cr6+3 0.715380 0.118170 0.988700 1.023189
Cr4   Cr    Cr6+3 0.936650 0.882420 0.465510 1.021538
Cr5   Cr    Cr6+3 0.605770 0.565620 0.493360 1.024362
Cr6   Cr    Cr6+3 0.921340 0.550490 0.496380 1.033799
H1    H     H_    0.196052 0.649630 0.686501 0.129767
H2    H     H_    0.018877 0.941595 0.679260 0.148780
H3    H     H_    0.960480 0.368324 0.297665 0.236883
H4    H     H_    0.048313 0.539899 0.245586 0.220448
H5    H     H_    0.894324 0.410587 0.147394 0.140441
H6    H     H_    0.233427 0.661165 0.826708 0.142819
H7    H     H_    0.493084 0.411447 0.298859 0.148858
H8    H     H_    0.571407 0.615066 0.851223 0.131394
H9    H     H_    0.554495 0.588215 0.713585 0.135473
H10   H     H_    0.803319 0.058110 0.636419 0.137572
H11   H     H_    0.813134 0.086301 0.775854 0.146620
H12   H     H_    0.053038 0.951243 0.817989 0.134960
H13   H     H_    0.452618 0.335874 0.169635 0.141901
N1    N     N_3   0.960805 0.467883 0.288214 -0.587699
O1    O     O_R   0.521780 0.757110 0.108900 -0.506427
O2    O     O_R   0.805020 0.410040 0.421340 -0.468996
O3    O     O_R   0.049240 0.685450 0.403290 -0.491303
O4    O     O_R   0.275160 0.783810 0.101120 -0.519532
O5    O     O_R   0.077520 0.903010 0.551800 -0.515906
O6    O     O_R   0.802980 0.872780 0.546830 -0.508215
O7    O     O_R   0.578090 0.681300 0.569920 -0.525514
O8    O     O_R   0.608530 0.436370 0.586530 -0.486235
O9    O     O_R   0.798770 0.401880 0.597100 -0.502926
O10   O     O_R   0.043450 0.677890 0.566230 -0.519922
O11   O     O_3   0.821250 0.666180 0.485090 -0.303711
O12   O     O_R   0.513330 0.228330 0.898660 -0.494607
O13   O     O_R   0.237900 0.972600 0.090980 -0.504709
O14   O     O_R   0.511190 0.220540 0.061620 -0.506305
O15   O     O_R   0.736920 0.257720 0.063840 -0.531346
O16   O     O_R   0.710450 0.984050 0.081720 -0.490226
O17   O     O_R   0.524090 0.765520 0.933110 -0.516612
O18   O     O_R   0.277300 0.791600 0.938160 -0.505213
O19   O     O_R   0.240210 0.981010 0.915190 -0.513236
O20   O     O_R   0.739230 0.266130 0.888050 -0.511779
O21   O     O_R   0.712580 0.991850 0.918770 -0.501050
O22   O     O_3   0.499990 0.999980 0.999980 -0.267386
O23   O     O_R   0.083770 0.911170 0.376030 -0.502929
O24   O     O_R   0.808770 0.880340 0.383890 -0.491784
O25   O     O_R   0.584340 0.689460 0.394160 -0.518055
O26   O     O_R   0.614320 0.443940 0.423590 -0.505668

loop_
_geom_bond_atom_site_label_1
_geom_bond_atom_site_label_2
_ccdc_geom_bond_type
Cr1   O18   S    
Cr2   O14   S    
C24   O5    A    
C16   O16   A    
Cr6   O2    S    
C4    O14   A    
C7    C8    A    
Cr5   O11   S    
C29   H7    S    
C12   C23   A    
Cr3   O21   S    
C28   C29   A    
C7    H10   S    
C34   C35   T    
C5    C6    A    
C10   C17   A    
C18   O25   A    
Cr4   O6    S    
C25   O18   A    
C20   C35   S    
C28   H13   S    
H3    N1    S    
C8    C9    A    
Cr4   O11   S    
C2    C22   S    
Cr6   O9    S    
C26   O20   A    
Cr3   O16   S    
Cr4   O24   S    
C19   O26   A    
C24   O10   A    
Cr2   O13   S    
C13   C14   A    
C15   H6    S    
C3    H8    S    
C1    C34   S    
Cr2   O19   S    
C19   O2    A    
C23   H5    S    
Cr1   O4    S    
Cr3   O22   S    
C1    O4    A    
Cr2   O22   S    
C3    C5    A    
C6    C21   S    
C1    O13   A    
Cr4   O5    S    
C13   C24   S    
C25   O19   A    
C23   C31   A    
Cr6   O3    S    
C22   O9    A    
C29   C30   A    
C3    C9    A    
Cr5   O25   S    
Cr4   O23   S    
C11   H2    S    
Cr3   O20   S    
C20   O3    A    
C21   O6    A    
C12   N1    S    
C26   C36   S    
Cr2   O12   S    
Cr6   O11   S    
Cr5   O7    S    
C9    C27   S    
C2    C36   T    
C15   C17   A    
Cr1   O17   S    
C20   O23   A    
C12   C30   A    
C28   C31   A    
C27   O21   A    
C8    H11   S    
C6    C7    A    
C16   C32   S    
Cr1   O22   S    
C26   O12   A    
C32   C33   T    
C17   C25   S    
C11   C13   A    
Cr5   O26   S    
C16   O1    A    
C10   H12   S    
C18   C33   S    
C21   O7    A    
C4    C31   S    
C10   C11   A    
C22   O8    A    
C18   O24   A    
H4    N1    S    
Cr6   O10   S    
Cr3   O15   S    
C14   C15   A    
C5    H9    S    
Cr5   O8    S    
C27   O17   A    
C19   C30   S    
C4    O15   A    
Cr1   O1    S    
C14   H1    S    
