data_mof_unit_26308.cif
_audit_creation_date              2012-12-11T14:01:21-0500
_audit_creation_method            fapswitch 2.2
_symmetry_space_group_name_H-M    P1
_symmetry_Int_Tables_number       1
_space_group_crystal_system       triclinic
_cell_length_a                    19.021017
_cell_length_b                    10.914029
_cell_length_c                    18.739022
_cell_angle_alpha                 89.999571
_cell_angle_beta                  90.443946
_cell_angle_gamma                 90.000342
_cell_volume                      3890.02794604

loop_
_atom_site_label
_atom_site_type_symbol
_atom_type_description
_atom_site_fract_x
_atom_site_fract_y
_atom_site_fract_z
_atom_type_partial_charge
C1    C     C_R   0.293532 0.988966 0.858840 0.571975
C2    C     C_R   0.010579 0.666760 0.964524 -0.046656
C3    C     C_R   0.489432 0.166763 0.035472 -0.046659
C4    C     C_R   0.510618 0.166734 0.964593 -0.047185
C5    C     C_2   0.249056 0.594570 0.923925 0.420182
C6    C     C_2   0.750950 0.594562 0.076076 0.419976
C7    C     C_2   0.749051 0.094563 0.923925 0.419978
C8    C     C_2   0.250945 0.094569 0.076076 0.420182
C9    C     C_2   0.210667 0.488573 0.063474 0.418834
C10   C     C_2   0.789337 0.488556 0.936527 0.419810
C11   C     C_2   0.710662 0.988557 0.063474 0.419805
C12   C     C_R   0.706467 0.988964 0.141160 0.571291
C13   C     C_2   0.289333 0.988572 0.936526 0.418836
C14   C     C_2   0.271211 0.466784 0.028687 -0.031494
C15   C     C_2   0.728790 0.466781 0.971313 -0.031637
C16   C     C_2   0.771208 0.966779 0.028687 -0.031644
C17   C     C_2   0.228787 0.966787 0.971313 -0.031487
C18   C     C_2   0.279274 0.494583 0.952089 -0.079118
C19   C     C_2   0.720725 0.494582 0.047910 -0.079146
C20   C     C_2   0.779273 0.994580 0.952090 -0.079147
C21   C     C_2   0.220724 0.994584 0.047911 -0.079118
C22   C     C_2   0.450698 0.829848 0.564880 -0.117090
C23   C     C_R   0.793533 0.488964 0.858840 0.571289
C24   C     C_2   0.481750 0.836751 0.412191 -0.111261
C25   C     C_2   0.018244 0.336773 0.587814 -0.111218
C26   C     C_2   0.049250 0.329832 0.435115 -0.117019
C27   C     C_2   0.454919 0.737730 0.445003 0.381124
C28   C     C_2   0.433080 0.739124 0.519850 0.353806
C29   C     C_2   0.066916 0.239158 0.480159 0.353814
C30   C     C_2   0.045105 0.237771 0.555013 0.381164
C31   C     C_2   0.252151 0.607473 0.570811 0.421055
C32   C     C_2   0.746569 0.609022 0.429713 0.371772
C33   C     C_2   0.753430 0.109021 0.570287 0.371763
C34   C     C_R   0.206468 0.488967 0.141160 0.571975
C35   C     C_2   0.247857 0.107462 0.429185 0.421085
C36   C     C_2   0.257342 0.605657 0.413471 -0.047101
C37   C     C_2   0.742329 0.606813 0.587026 -0.057258
C38   C     C_2   0.757670 0.106811 0.412974 -0.057273
C39   C     C_2   0.242663 0.105652 0.586525 -0.047024
C40   C     C_R   0.472336 0.822267 0.852967 0.593493
C41   C     C_R   0.527629 0.822273 0.147062 0.584288
C42   C     C_R   0.972370 0.322273 0.852938 0.584305
C43   C     C_R   0.027663 0.322268 0.147034 0.593484
C44   C     C_2   0.216876 0.679216 0.451708 -0.099749
C45   C     C_R   0.481502 0.056433 0.072113 0.462976
C46   C     C_2   0.782861 0.680151 0.548669 -0.085229
C47   C     C_2   0.717139 0.180149 0.451330 -0.085223
C48   C     C_2   0.283133 0.179205 0.548288 -0.099754
C49   C     C_2   0.231368 0.698321 0.526546 -0.093097
C50   C     C_2   0.768397 0.699377 0.473787 -0.101849
C51   C     C_2   0.731602 0.199375 0.526212 -0.101850
C52   C     C_2   0.268645 0.198307 0.473450 -0.093018
C53   C     C_R   0.260845 0.636670 0.851603 0.558530
C54   C     C_R   0.739154 0.636673 0.148395 0.560214
C55   C     C_R   0.760846 0.136673 0.851605 0.560216
C56   C     C_R   0.518481 0.056380 0.927959 0.462833
C57   C     C_R   0.239155 0.136670 0.148397 0.558523
C58   C     C_R   0.270821 0.048807 0.649878 0.543047
C59   C     C_R   0.729258 0.049070 0.349974 0.553591
C60   C     C_R   0.770742 0.549071 0.650026 0.553591
C61   C     C_R   0.229179 0.548807 0.350122 0.543054
C62   C     C_R   0.436035 0.819551 0.640378 0.595068
C63   C     C_R   0.526677 0.824121 0.350089 0.585228
C64   C     C_R   0.973330 0.324126 0.649919 0.585245
C65   C     C_R   0.063952 0.319551 0.359626 0.595089
C66   C     C_R   0.260799 0.639434 0.644841 0.589936
C67   C     C_R   0.981524 0.556385 0.072039 0.462839
C68   C     C_R   0.738875 0.640186 0.355475 0.589594
C69   C     C_R   0.761125 0.140186 0.644525 0.589593
C70   C     C_R   0.239203 0.139429 0.355157 0.589958
C71   C     C_R   0.498335 0.830314 0.074713 0.043397
C72   C     C_R   0.501493 0.830276 0.925378 0.041508
C73   C     C_R   0.998501 0.330278 0.074625 0.041511
C74   C     C_R   0.001659 0.330311 0.925290 0.043396
C75   C     C_R   0.494700 0.943451 0.037472 0.052838
C76   C     C_R   0.505203 0.943428 0.962604 0.051896
C77   C     C_R   0.994797 0.443429 0.037396 0.051902
C78   C     C_R   0.018504 0.556428 0.927885 0.462970
C79   C     C_R   0.005300 0.443449 0.962528 0.052831
C80   C     C_R   0.501561 0.720191 0.963635 -0.159408
C81   C     C_R   0.498082 0.720214 0.036484 -0.158021
C82   C     C_R   0.001903 0.220213 0.963521 -0.158024
C83   C     C_R   0.998424 0.220193 0.036370 -0.159404
C84   C     C_R   0.989393 0.666737 0.035403 -0.047189
Cr1   Cr    Cr6+3 0.230530 0.836340 0.748870 1.078125
Cr2   Cr    Cr6+3 0.614360 0.677860 0.250770 1.082363
Cr3   Cr    Cr6+3 0.885640 0.177860 0.749230 1.082344
Cr4   Cr    Cr6+3 0.114360 0.177860 0.250770 1.077262
Cr5   Cr    Cr6+3 0.769470 0.836340 0.251130 1.069224
Cr6   Cr    Cr6+3 0.730530 0.336340 0.748870 1.069239
Cr7   Cr    Cr6+3 0.269470 0.336340 0.251130 1.078110
Cr8   Cr    Cr6+3 0.387420 0.989430 0.750820 1.104892
Cr9   Cr    Cr6+3 0.612580 0.989430 0.249180 1.107309
Cr10  Cr    Cr6+3 0.887420 0.489430 0.750820 1.107303
Cr11  Cr    Cr6+3 0.112580 0.489430 0.249180 1.104892
Cr12  Cr    Cr6+3 0.385640 0.677860 0.749230 1.077279
F1    F     F_    0.266245 0.491595 0.548336 -0.646042
F2    F     F_    0.850120 0.508705 0.973236 -0.622199
F3    F     F_    0.649879 0.008709 0.026765 -0.622204
F4    F     F_    0.350112 0.008747 0.973236 -0.622631
F5    F     F_    0.211929 0.673400 0.965625 -0.602104
F6    F     F_    0.788095 0.673374 0.034378 -0.602211
F7    F     F_    0.711910 0.173377 0.965622 -0.602216
F8    F     F_    0.288075 0.173397 0.034376 -0.602098
F9    F     F_    0.453767 0.626751 0.411800 -0.565611
F10   F     F_    0.402512 0.635497 0.545267 -0.570054
F11   F     F_    0.097536 0.135587 0.454757 -0.570171
F12   F     F_    0.730607 0.494062 0.452474 -0.666895
F13   F     F_    0.046342 0.126827 0.588251 -0.565697
F14   F     F_    0.769392 0.994062 0.547528 -0.666902
F15   F     F_    0.233757 0.991585 0.451661 -0.646085
F16   F     F_    0.456016 0.060600 0.139550 -0.605043
F17   F     F_    0.543989 0.060495 0.860532 -0.601839
F18   F     F_    0.956017 0.560505 0.139466 -0.601840
F19   F     F_    0.043990 0.560590 0.860448 -0.605043
F20   F     F_    0.149888 0.508751 0.026765 -0.622634
H1    H     H_    0.315287 0.439821 0.920651 0.100107
H2    H     H_    0.499265 0.631928 0.062953 0.148511
H3    H     H_    0.000714 0.131926 0.937054 0.148512
H4    H     H_    0.999710 0.131891 0.062817 0.147467
H5    H     H_    0.168767 0.718536 0.430023 0.187435
H6    H     H_    0.831267 0.718671 0.570165 0.182332
H7    H     H_    0.668733 0.218669 0.429833 0.182346
H8    H     H_    0.331242 0.218525 0.569974 0.187430
H9    H     H_    0.218967 0.788988 0.546992 0.159609
H10   H     H_    0.782190 0.789234 0.453061 0.159356
H11   H     H_    0.717809 0.289232 0.546937 0.159363
H12   H     H_    0.684701 0.439836 0.079345 0.100223
H13   H     H_    0.281048 0.288975 0.453004 0.159617
H14   H     H_    0.307309 0.572626 0.434435 0.232492
H15   H     H_    0.692000 0.574757 0.566404 0.174963
H16   H     H_    0.807999 0.074755 0.433597 0.174940
H17   H     H_    0.192696 0.072619 0.565560 0.232584
H18   H     H_    0.979921 0.752790 0.062406 0.135170
H19   H     H_    0.020000 0.752833 0.937522 0.135949
H20   H     H_    0.480016 0.252838 0.062472 0.135945
H21   H     H_    0.520095 0.252785 0.937589 0.135175
H22   H     H_    0.317848 0.436487 0.057441 0.121716
H23   H     H_    0.815295 0.939831 0.920654 0.100226
H24   H     H_    0.682151 0.436503 0.942558 0.121224
H25   H     H_    0.817847 0.936497 0.057442 0.121231
H26   H     H_    0.182150 0.936493 0.942559 0.121711
H27   H     H_    0.184709 0.939826 0.079349 0.100102
H28   H     H_    0.477029 0.927867 0.434547 0.045637
H29   H     H_    0.476577 0.912782 0.547308 0.053304
H30   H     H_    0.023298 0.412699 0.452666 0.053296
H31   H     H_    0.022926 0.427884 0.565442 0.045626
H32   H     H_    0.500269 0.631888 0.937190 0.147468
O1    O     O_R   0.215090 0.709860 0.828130 -0.448714
O2    O     O_R   0.543740 0.718170 0.330000 -0.425126
O3    O     O_R   0.956260 0.218170 0.670000 -0.425165
O4    O     O_R   0.043740 0.218170 0.330000 -0.437957
O5    O     O_R   0.320940 0.626760 0.674370 -0.450049
O6    O     O_R   0.679060 0.626760 0.325630 -0.470672
O7    O     O_R   0.820940 0.126760 0.674370 -0.470695
O8    O     O_R   0.179060 0.126760 0.325630 -0.450030
O9    O     O_3   0.334530 0.834540 0.749640 -0.341848
O10   O     O_3   0.665470 0.834540 0.250360 -0.317678
O11   O     O_3   0.834530 0.334540 0.749640 -0.317676
O12   O     O_R   0.784910 0.709860 0.171870 -0.449112
O13   O     O_3   0.165470 0.334540 0.250360 -0.341817
O14   O     O_R   0.236990 0.958390 0.823710 -0.534360
O15   O     O_R   0.763010 0.958390 0.176290 -0.539579
O16   O     O_R   0.736990 0.458390 0.823710 -0.539577
O17   O     O_R   0.263010 0.458390 0.176290 -0.534372
O18   O     O_R   0.332380 0.074750 0.830850 -0.462434
O19   O     O_R   0.667620 0.074750 0.169150 -0.463236
O20   O     O_R   0.832380 0.574750 0.830850 -0.463240
O21   O     O_R   0.167620 0.574750 0.169150 -0.462437
O22   O     O_R   0.445800 0.917770 0.825070 -0.446390
O23   O     O_R   0.715090 0.209860 0.828130 -0.449110
O24   O     O_R   0.554200 0.917770 0.174930 -0.452427
O25   O     O_R   0.945800 0.417770 0.825070 -0.452429
O26   O     O_R   0.054200 0.417770 0.174930 -0.446390
O27   O     O_R   0.456410 0.716580 0.829970 -0.535270
O28   O     O_R   0.543590 0.716580 0.170030 -0.534294
O29   O     O_R   0.956410 0.216580 0.829970 -0.534285
O30   O     O_R   0.043590 0.216580 0.170030 -0.535273
O31   O     O_R   0.321080 0.625290 0.822650 -0.549970
O32   O     O_R   0.678920 0.625290 0.177350 -0.547756
O33   O     O_R   0.821080 0.125290 0.822650 -0.547756
O34   O     O_R   0.284910 0.209860 0.171870 -0.448717
O35   O     O_R   0.178920 0.125290 0.177350 -0.549974
O36   O     O_R   0.214930 0.711450 0.668160 -0.548825
O37   O     O_R   0.785070 0.711450 0.331840 -0.539234
O38   O     O_R   0.714930 0.211450 0.668160 -0.539221
O39   O     O_R   0.285070 0.211450 0.331840 -0.548844
O40   O     O_R   0.236850 0.959870 0.675420 -0.487777
O41   O     O_R   0.763150 0.959870 0.324580 -0.498992
O42   O     O_R   0.736850 0.459870 0.675420 -0.498984
O43   O     O_R   0.263150 0.459870 0.324580 -0.487787
O44   O     O_R   0.332230 0.076350 0.670880 -0.517861
O45   O     O_R   0.445660 0.919250 0.676780 -0.490348
O46   O     O_R   0.667770 0.076350 0.329120 -0.505483
O47   O     O_R   0.832230 0.576350 0.670880 -0.505489
O48   O     O_R   0.167770 0.576350 0.329120 -0.517850
O49   O     O_R   0.554340 0.919250 0.323220 -0.497713
O50   O     O_R   0.945660 0.419250 0.676780 -0.497723
O51   O     O_R   0.054340 0.419250 0.323220 -0.490355
O52   O     O_R   0.456260 0.718170 0.670000 -0.437900

loop_
_geom_bond_atom_site_label_1
_geom_bond_atom_site_label_2
_ccdc_geom_bond_type
C44   C49   S    
C43   C73   S    
C31   C66   S    
Cr9   O24   S    
Cr10  O11   S    
C56   C76   A    
Cr12  O27   S    
C64   O50   A    
C19   H12   S    
C2    C84   A    
Cr9   O46   S    
C67   C77   A    
C24   C27   D    
C7    C55   S    
C75   C76   A    
C12   O19   A    
C40   O22   A    
C45   F16   S    
Cr5   O10   S    
C43   O30   A    
C32   C68   S    
C15   C19   S    
C6    C19   D    
C84   H18   S    
C69   O7    A    
C70   O8    A    
C52   H13   S    
Cr4   O8    S    
C20   H23   S    
C5    C53   S    
C67   F18   S    
C31   C49   D    
C15   H24   S    
C9    F20   S    
C68   O6    A    
C10   C15   D    
Cr2   O2    S    
C39   H17   S    
C43   O26   A    
C22   C62   S    
C27   F9    S    
C42   O29   A    
Cr6   O38   S    
Cr4   O13   S    
C17   H26   S    
C44   H5    S    
C11   F3    S    
C3    H20   S    
Cr6   O11   S    
C10   F2    S    
C14   C18   S    
C66   O36   A    
C4    H21   S    
C65   O51   A    
C14   H22   S    
C35   C70   S    
C28   F10   S    
Cr6   O23   S    
C56   F17   S    
C50   H10   S    
C34   O17   A    
C40   C72   S    
C33   C69   S    
C41   C71   S    
Cr1   O40   S    
C31   F1    S    
Cr12  O9    S    
C67   C84   A    
Cr3   O3    S    
C4    C56   A    
C53   O1    A    
Cr1   O14   S    
Cr4   O4    S    
C54   O32   A    
Cr1   O9    S    
C82   H3    S    
C6    C54   S    
Cr8   O18   S    
C53   O31   A    
C55   O23   A    
C57   O34   A    
C22   C28   D    
C77   C79   A    
C59   O46   A    
C41   O24   A    
C5    F5    S    
C42   C74   S    
C64   O3    A    
C58   O40   A    
Cr10  O47   S    
C21   H27   S    
C78   F19   S    
Cr8   O45   S    
Cr8   O22   S    
C78   C79   A    
Cr4   O35   S    
C47   C51   S    
C5    C18   D    
C30   F13   S    
C26   H30   S    
C39   C58   S    
Cr7   O43   S    
C81   H2    S    
C3    C45   A    
C17   C21   S    
C33   C51   D    
C63   O49   A    
Cr6   O16   S    
Cr8   O9    S    
Cr10  O50   S    
C25   C64   S    
C38   H16   S    
C83   H4    S    
Cr9   O49   S    
C9    C14   D    
C63   O2    A    
Cr3   O33   S    
C29   C30   S    
C2    C78   A    
C36   H14   S    
C8    C57   S    
Cr3   O29   S    
C23   O20   A    
C8    F8    S    
C11   C16   D    
C47   H7    S    
Cr12  O5    S    
C61   O48   A    
C22   H29   S    
C48   C52   S    
C16   C20   S    
Cr2   O32   S    
C8    C21   D    
C55   O33   A    
C46   H6    S    
C72   C76   A    
C25   H31   S    
Cr11  O21   S    
C18   H1    S    
C32   C50   D    
C38   C47   D    
C34   O21   A    
C70   O39   A    
Cr11  O51   S    
C41   O28   A    
C68   O37   A    
C7    C20   D    
C24   C63   S    
C74   C79   A    
C58   O44   A    
C9    C34   S    
Cr3   O7    S    
C36   C44   D    
C1    C13   S    
Cr10  O20   S    
C3    C4    A    
C57   O35   A    
C35   F15   S    
Cr5   O12   S    
C23   O16   A    
Cr6   O42   S    
C25   C30   D    
Cr12  O52   S    
Cr7   O39   S    
Cr5   O41   S    
Cr11  O48   S    
C26   C65   S    
Cr5   O37   S    
Cr7   O17   S    
C29   F11   S    
C80   C81   A    
C42   O25   A    
C48   H8    S    
C40   O27   A    
C11   C12   S    
Cr2   O10   S    
C65   O4    A    
Cr4   O30   S    
C36   C61   S    
C10   C23   S    
Cr1   O36   S    
C66   O5    A    
C49   H9    S    
C46   C50   S    
C2    H19   S    
C13   C17   D    
C45   C75   A    
C51   H11   S    
C13   F4    S    
Cr11  O13   S    
C16   H25   S    
Cr2   O6    S    
C62   O52   A    
C72   C80   A    
C12   O15   A    
C71   C75   A    
C1    O18   A    
C24   H28   S    
Cr11  O26   S    
Cr3   O11   S    
Cr5   O15   S    
Cr2   O28   S    
C6    F6    S    
Cr12  O31   S    
Cr9   O10   S    
Cr1   O1    S    
C37   C60   S    
C59   O41   A    
C1    O14   A    
Cr10  O25   S    
C54   O12   A    
C38   C59   S    
C37   H15   S    
C80   H32   S    
Cr9   O19   S    
C26   C29   D    
C60   O42   A    
C82   C83   A    
C32   F12   S    
Cr7   O34   S    
C35   C52   D    
C61   O43   A    
C73   C77   A    
Cr7   O13   S    
C7    F7    S    
C33   F14   S    
C62   O45   A    
C71   C81   A    
C37   C46   D    
C69   O38   A    
C73   C83   A    
C74   C82   A    
Cr8   O44   S    
C60   O47   A    
C39   C48   D    
C27   C28   S    
