data_mof_unit_64723.cif
_audit_creation_date              2013-03-05T16:43:23-0500
_audit_creation_method            fapswitch 2.2
_symmetry_space_group_name_H-M    P1
_symmetry_Int_Tables_number       1
_space_group_crystal_system       triclinic
_cell_length_a                    25.908359
_cell_length_b                    39.764681
_cell_length_c                    23.756747
_cell_angle_alpha                 89.990292
_cell_angle_beta                  123.224541
_cell_angle_gamma                 90.009278
_cell_volume                      20474.1433936

loop_
_atom_site_label
_atom_site_type_symbol
_atom_site_description
_atom_site_fract_x
_atom_site_fract_y
_atom_site_fract_z
_atom_type_partial_charge
Zn1   Zn    Zn3+2 0.515340 0.221940 0.943940 0.996077
Zn2   Zn    Zn3+2 0.484660 0.778060 0.056060 0.997861
Zn3   Zn    Zn3+2 0.484660 0.221940 0.056060 0.995939
Zn4   Zn    Zn3+2 0.515340 0.778060 0.943940 0.997766
Zn5   Zn    Zn3+2 0.015340 0.721940 0.943940 0.997953
Zn6   Zn    Zn3+2 0.984660 0.278060 0.056060 0.995906
Zn7   Zn    Zn3+2 0.984660 0.721940 0.056060 0.997561
Zn8   Zn    Zn3+2 0.015340 0.278060 0.943940 0.995866
Zn9   Zn    Zn3+2 0.428600 0.278000 0.943940 1.016095
Zn10  Zn    Zn3+2 0.571400 0.722000 0.056060 1.033130
Zn11  Zn    Zn3+2 0.571400 0.278000 0.056060 1.015343
Zn12  Zn    Zn3+2 0.428600 0.722000 0.943940 1.033476
Zn13  Zn    Zn3+2 0.928600 0.778000 0.943940 1.033238
Zn14  Zn    Zn3+2 0.071400 0.222000 0.056060 1.015994
Zn15  Zn    Zn3+2 0.071400 0.778000 0.056060 1.033259
Zn16  Zn    Zn3+2 0.928600 0.222000 0.943940 1.015524
C1    C     C_R   0.500011 0.622022 0.999954 -0.069391
C2    C     C_R   0.500008 0.377839 0.999978 -0.105167
C3    C     C_R   0.999993 0.122161 0.000011 -0.105165
C4    C     C_R   0.999997 0.877978 0.000022 -0.069364
O1    O     O_3   0.500000 0.249970 0.000000 -0.491745
O2    O     O_3   0.500000 0.750030 0.000000 -0.496684
O3    O     O_3   0.000000 0.749970 0.000000 -0.496669
O4    O     O_3   0.000000 0.250030 0.000000 -0.491712
O5    O     O_R   0.403840 0.230350 0.039240 -0.640378
O6    O     O_R   0.596160 0.769650 0.960760 -0.637766
O7    O     O_R   0.596160 0.230350 0.960760 -0.641018
O8    O     O_R   0.403840 0.769650 0.039240 -0.638402
O9    O     O_R   0.903840 0.730350 0.039240 -0.637775
O10   O     O_R   0.096160 0.269650 0.960760 -0.640227
O11   O     O_R   0.096160 0.730350 0.960760 -0.638386
O12   O     O_R   0.903840 0.269650 0.039240 -0.641128
O13   O     O_R   0.394820 0.269600 0.850350 -0.635178
O14   O     O_R   0.605180 0.730400 0.149650 -0.628113
O15   O     O_R   0.605180 0.269600 0.149650 -0.635203
O16   O     O_R   0.394820 0.730400 0.850350 -0.627701
O17   O     O_R   0.894820 0.769600 0.850350 -0.627904
O18   O     O_R   0.105180 0.230400 0.149650 -0.635210
O19   O     O_R   0.105180 0.769600 0.149650 -0.627932
O20   O     O_R   0.894820 0.230400 0.850350 -0.635153
C5    C     C_R   0.500030 0.551307 0.999897 -0.111036
C6    C     C_R   0.500030 0.448557 0.999920 -0.110912
C7    C     C_R   0.999982 0.051443 0.000036 -0.111029
C8    C     C_R   0.999991 0.948693 0.000050 -0.110986
O21   O     O_R   0.450030 0.324790 0.960750 -0.640125
O22   O     O_R   0.549970 0.675210 0.039250 -0.630989
O23   O     O_R   0.549970 0.324790 0.039250 -0.639550
O24   O     O_R   0.450030 0.675210 0.960750 -0.631092
O25   O     O_R   0.950030 0.824790 0.960750 -0.630733
O26   O     O_R   0.049970 0.175210 0.039250 -0.640058
O27   O     O_R   0.049970 0.824790 0.039250 -0.631365
O28   O     O_R   0.950030 0.175210 0.960750 -0.639788
O29   O     O_R   0.489260 0.175140 0.039240 -0.642450
O30   O     O_R   0.510740 0.824860 0.960760 -0.643607
O31   O     O_R   0.510740 0.175140 0.960760 -0.641971
O32   O     O_R   0.489260 0.824860 0.039240 -0.643204
O33   O     O_R   0.989260 0.675140 0.039240 -0.643595
O34   O     O_R   0.010740 0.324860 0.960760 -0.642540
O35   O     O_R   0.010740 0.675140 0.960760 -0.643235
O36   O     O_R   0.989260 0.324860 0.039240 -0.642003
O37   O     O_R   0.455530 0.230360 0.850350 -0.640107
O38   O     O_R   0.544470 0.769640 0.149650 -0.641280
O39   O     O_R   0.544470 0.230360 0.149650 -0.641034
O40   O     O_R   0.455530 0.769640 0.850350 -0.641960
O41   O     O_R   0.955530 0.730360 0.850350 -0.641321
O42   O     O_R   0.044470 0.269640 0.149650 -0.640124
O43   O     O_R   0.044470 0.730360 0.149650 -0.641932
O44   O     O_R   0.955530 0.269640 0.850350 -0.640939
O45   O     O_R   0.364600 0.269590 0.960770 -0.632148
O46   O     O_R   0.635400 0.730410 0.039230 -0.631068
O47   O     O_R   0.635400 0.269590 0.039230 -0.632704
O48   O     O_R   0.364600 0.730410 0.960770 -0.630571
O49   O     O_R   0.864600 0.769590 0.960770 -0.631186
O50   O     O_R   0.135400 0.230410 0.039230 -0.632317
O51   O     O_R   0.135400 0.769590 0.039230 -0.630466
O52   O     O_R   0.864600 0.230410 0.960770 -0.632327
C9    C     C_R   0.360238 0.250421 0.000778 0.801901
C10   C     C_R   0.639934 0.749793 0.999581 0.791731
C11   C     C_R   0.639764 0.250422 0.999227 0.800886
C12   C     C_R   0.360073 0.749782 0.000431 0.791494
C13   C     C_R   0.860065 0.750206 0.000417 0.791647
C14   C     C_R   0.139761 0.249579 0.999221 0.801791
C15   C     C_R   0.139926 0.750220 0.999567 0.791542
C16   C     C_R   0.860236 0.249577 0.000774 0.800917
C17   C     C_R   0.408976 0.250076 0.817979 0.838308
C18   C     C_R   0.591071 0.749955 0.182019 0.855344
C19   C     C_R   0.591088 0.250034 0.182024 0.837967
C20   C     C_R   0.409006 0.749907 0.817977 0.855482
C21   C     C_R   0.908929 0.750045 0.817981 0.855683
C22   C     C_R   0.091025 0.249924 0.182021 0.838287
C23   C     C_R   0.090994 0.750093 0.182023 0.855005
C24   C     C_R   0.908963 0.249933 0.817977 0.837632
C25   C     C_R   0.500001 0.340900 0.999999 0.878696
C26   C     C_R   0.500001 0.659050 0.999992 0.883610
C27   C     C_R   1.000000 0.840950 0.000005 0.883507
C28   C     C_R   0.999998 0.159099 0.000001 0.878741
C29   C     C_R   0.500211 0.158971 0.000177 0.845082
C30   C     C_R   0.499788 0.841029 0.999822 0.840935
C31   C     C_R   0.000211 0.658971 0.000178 0.840896
C32   C     C_R   0.999789 0.341029 0.999823 0.844815
C33   C     C_R   0.478395 0.931068 0.035288 0.290515
C34   C     C_R   0.521520 0.068933 0.964630 0.291328
C35   C     C_R   0.506358 0.931080 0.952095 0.289980
C36   C     C_R   0.493693 0.068916 0.047936 0.290949
C37   C     C_R   0.978476 0.431067 0.035366 0.291231
C38   C     C_R   0.021613 0.568932 0.964720 0.290490
C39   C     C_R   0.006319 0.431084 0.952073 0.290892
C40   C     C_R   0.993635 0.568920 0.047902 0.289951
C41   C     C_R   0.482063 0.895889 0.037679 -0.235854
C42   C     C_R   0.517858 0.104111 0.962250 -0.233992
C43   C     C_R   0.509601 0.895904 0.955440 -0.234891
C44   C     C_R   0.490459 0.104094 0.044603 -0.233480
C45   C     C_R   0.982136 0.395889 0.037745 -0.234211
C46   C     C_R   0.017944 0.604111 0.962327 -0.235950
C47   C     C_R   0.009552 0.395906 0.955406 -0.234030
C48   C     C_R   0.990393 0.604097 0.044555 -0.234981
C49   C     C_R   0.497777 0.878126 0.998173 -0.120376
C50   C     C_R   0.502217 0.121873 0.001820 -0.121530
C51   C     C_R   0.997785 0.378127 0.998182 -0.121495
C52   C     C_R   0.002223 0.621874 0.001827 -0.120385
C53   C     C_R   0.492143 0.948819 0.993494 -0.135235
C54   C     C_R   0.507837 0.051180 0.006474 -0.135513
C55   C     C_R   0.992167 0.448820 0.993529 -0.135559
C56   C     C_R   0.007859 0.551181 0.006509 -0.135283
C57   C     C_1   0.497462 0.984933 0.997896 0.179435
C58   C     C_1   0.502514 0.015066 0.002066 0.179706
C59   C     C_1   0.997489 0.484934 0.997937 0.179651
C60   C     C_1   0.002541 0.515067 0.002107 0.179313
C61   C     C_R   0.444264 0.604259 0.965249 -0.210952
C62   C     C_R   0.546041 0.395507 0.056160 -0.185464
C63   C     C_R   0.555768 0.604271 0.034607 -0.211154
C64   C     C_R   0.453988 0.395498 0.943766 -0.186058
C65   C     C_R   0.953959 0.104496 0.943824 -0.185744
C66   C     C_R   0.055748 0.895738 0.034695 -0.211103
C67   C     C_R   0.046017 0.104499 0.056214 -0.186041
C68   C     C_R   0.944243 0.895731 0.965369 -0.210923
C69   C     C_R   0.630145 0.359085 0.968185 0.341272
C70   C     C_R   0.396830 0.648230 0.073393 0.327503
C71   C     C_R   0.369969 0.359069 0.031882 0.341388
C72   C     C_R   0.602473 0.648466 0.925961 0.328035
C73   C     C_R   0.103107 0.851766 0.926653 0.327433
C74   C     C_R   0.869891 0.140924 0.031838 0.341418
C75   C     C_R   0.897429 0.851554 0.074077 0.328015
C76   C     C_R   0.129928 0.140956 0.967978 0.341231
C77   C     C_R   0.650518 0.327046 0.963442 -0.208697
C78   C     C_R   0.369222 0.679980 0.063903 -0.211431
C79   C     C_R   0.349565 0.327031 0.036606 -0.208550
C80   C     C_R   0.630295 0.680169 0.935651 -0.211326
C81   C     C_R   0.130711 0.820014 0.936156 -0.211064
C82   C     C_R   0.849509 0.172962 0.036569 -0.208537
C83   C     C_R   0.869621 0.819847 0.064395 -0.211622
C84   C     C_R   0.150361 0.172996 0.963313 -0.208007
H1    H     H_    0.622899 0.312205 0.918188 0.161273
H2    H     H_    0.395693 0.700449 0.097605 0.159696
H3    H     H_    0.377178 0.312174 0.081844 0.161297
H4    H     H_    0.603888 0.700734 0.902214 0.159491
H5    H     H_    0.104198 0.799530 0.902531 0.159543
H6    H     H_    0.877137 0.187813 0.081808 0.161309
H7    H     H_    0.895994 0.799300 0.097913 0.159660
H8    H     H_    0.122744 0.187880 0.918115 0.161572
C85   C     C_R   0.707221 0.314246 0.016443 0.072559
C86   C     C_R   0.307237 0.685382 0.011677 0.065953
C87   C     C_R   0.292840 0.314250 0.983607 0.071804
C88   C     C_R   0.692392 0.685405 0.987737 0.065185
C89   C     C_R   0.192742 0.814633 0.988279 0.065921
C90   C     C_R   0.792789 0.185751 0.983577 0.072162
C91   C     C_R   0.807575 0.814582 0.012200 0.065230
C92   C     C_R   0.207119 0.185744 0.016315 0.071804
C93   C     C_R   0.743647 0.333709 0.074546 -0.125904
C94   C     C_R   0.272704 0.658470 0.969303 -0.132083
C95   C     C_R   0.256422 0.333733 0.925526 -0.123387
C96   C     C_R   0.726825 0.658358 0.029718 -0.131286
C97   C     C_R   0.227321 0.841574 0.030522 -0.132288
C98   C     C_R   0.756353 0.166274 0.925497 -0.124920
C99   C     C_R   0.773176 0.841594 0.970078 -0.131101
C100  C     C_R   0.243541 0.166223 0.074338 -0.123698
H9    H     H_    0.787539 0.324265 0.115790 0.159368
H10   H     H_    0.224922 0.662010 0.928779 0.163090
H11   H     H_    0.212514 0.324305 0.884283 0.160232
H12   H     H_    0.774687 0.661762 0.070134 0.163436
H13   H     H_    0.275137 0.838055 0.070971 0.163098
H14   H     H_    0.712448 0.175708 0.884259 0.159939
H15   H     H_    0.725351 0.838163 0.929582 0.163455
H16   H     H_    0.287475 0.175624 0.115583 0.160008
C101  C     C_R   0.723404 0.365373 0.079898 -0.136838
C102  C     C_R   0.299523 0.626783 0.979021 -0.128934
C103  C     C_R   0.276695 0.365397 0.920194 -0.135235
C104  C     C_R   0.699801 0.626709 0.019757 -0.127519
C105  C     C_R   0.200510 0.873267 0.020766 -0.128666
C106  C     C_R   0.776602 0.134610 0.920158 -0.136896
C107  C     C_R   0.800192 0.873243 0.980000 -0.127596
C108  C     C_R   0.223243 0.134555 0.079611 -0.135105
C109  C     C_R   0.667112 0.378074 0.027073 -0.166553
C110  C     C_R   0.361015 0.621586 0.030940 -0.187648
C111  C     C_R   0.333009 0.378078 0.973017 -0.166875
C112  C     C_R   0.638191 0.621687 0.968005 -0.188592
C113  C     C_R   0.138974 0.878440 0.968953 -0.187551
C114  C     C_R   0.832912 0.121921 0.972974 -0.166820
C115  C     C_R   0.861751 0.878299 0.031869 -0.188509
C116  C     C_R   0.166894 0.121908 0.026785 -0.166839
C117  C     C_R   0.277502 0.780046 0.999294 -0.223622
C118  C     C_R   0.715820 0.220598 0.987356 -0.225624
C119  C     C_R   0.722634 0.780042 0.000922 -0.223809
C120  C     C_R   0.284152 0.220593 0.012621 -0.224564
C121  C     C_R   0.784183 0.279400 0.012650 -0.225856
C122  C     C_R   0.222481 0.719962 0.000670 -0.223629
C123  C     C_R   0.215840 0.279405 0.987365 -0.224609
C124  C     C_R   0.777347 0.719950 0.999038 -0.223861
H17   H     H_    0.298237 0.803207 0.996683 0.157961
H18   H     H_    0.690096 0.197623 0.979486 0.169939
H19   H     H_    0.702015 0.803202 0.003717 0.158898
H20   H     H_    0.309853 0.197616 0.020470 0.170963
H21   H     H_    0.809907 0.302376 0.020521 0.169925
H22   H     H_    0.201747 0.696799 0.003272 0.158033
H23   H     H_    0.190137 0.302382 0.979511 0.170924
H24   H     H_    0.797966 0.696792 0.996232 0.158780
C125  C     C_R   0.304687 0.749204 0.001816 -0.045185
C126  C     C_R   0.695323 0.251003 0.998156 -0.054059
C127  C     C_R   0.695299 0.749209 0.998156 -0.045729
C128  C     C_R   0.304683 0.251001 0.001857 -0.054480
C129  C     C_R   0.804679 0.248996 0.001849 -0.053930
C130  C     C_R   0.195301 0.750804 0.998162 -0.045255
C131  C     C_R   0.195312 0.248997 0.998134 -0.054445
C132  C     C_R   0.804688 0.750783 0.001820 -0.045636
C133  C     C_R   0.277596 0.718675 0.003304 0.036947
C134  C     C_R   0.729314 0.280898 0.010201 0.027851
C135  C     C_R   0.722221 0.718675 0.996390 0.036750
C136  C     C_R   0.270716 0.280900 0.989827 0.027895
C137  C     C_R   0.770690 0.219100 0.989807 0.028078
C138  C     C_R   0.222385 0.781336 0.996661 0.037064
C139  C     C_R   0.229270 0.219096 0.010148 0.027935
C140  C     C_R   0.777756 0.781314 0.003567 0.036636
C141  C     C_R   0.786481 0.225781 0.638137 0.322831
C142  C     C_R   0.213447 0.774208 0.361907 0.320662
C143  C     C_R   0.213874 0.226034 0.361917 0.323151
C144  C     C_R   0.782890 0.771872 0.638077 0.319511
C145  C     C_R   0.286568 0.725783 0.638093 0.320630
C146  C     C_R   0.717631 0.271556 0.361892 0.321945
C147  C     C_R   0.717116 0.728133 0.361924 0.319559
C148  C     C_R   0.286242 0.274034 0.638086 0.323200
C149  C     C_R   0.821560 0.227272 0.708733 -0.218426
C150  C     C_R   0.177977 0.772997 0.291285 -0.204430
C151  C     C_R   0.178376 0.227241 0.291294 -0.218506
C152  C     C_R   0.820044 0.771734 0.708703 -0.207305
C153  C     C_R   0.322036 0.726995 0.708715 -0.204367
C154  C     C_R   0.680059 0.271677 0.291285 -0.220106
C155  C     C_R   0.679962 0.728270 0.291297 -0.207360
C156  C     C_R   0.321723 0.272820 0.708708 -0.218285
H25   H     H_    0.809916 0.210773 0.736459 0.207970
H26   H     H_    0.189006 0.789893 0.263563 0.211141
H27   H     H_    0.189613 0.210481 0.263575 0.208083
H28   H     H_    0.808457 0.788274 0.736411 0.209667
H29   H     H_    0.311014 0.710094 0.736437 0.211149
H30   H     H_    0.691289 0.288448 0.263564 0.207094
H31   H     H_    0.691554 0.711733 0.263589 0.209658
H32   H     H_    0.310550 0.289621 0.736427 0.208088
C157  C     C_R   0.872000 0.249302 0.743753 -0.073814
C158  C     C_R   0.128021 0.750668 0.256251 -0.071558
C159  C     C_R   0.128126 0.249386 0.256252 -0.074287
C160  C     C_R   0.871152 0.750142 0.743750 -0.071039
C161  C     C_R   0.371981 0.749331 0.743750 -0.071673
C162  C     C_R   0.629059 0.250008 0.256254 -0.073002
C163  C     C_R   0.628849 0.749859 0.256250 -0.070962
C164  C     C_R   0.371882 0.250619 0.743748 -0.074281
C165  C     C_R   0.887084 0.270312 0.707415 -0.165379
C166  C     C_R   0.113640 0.729192 0.292589 -0.162395
C167  C     C_R   0.113518 0.270706 0.292586 -0.164021
C168  C     C_R   0.885429 0.728607 0.707417 -0.161807
C169  C     C_R   0.386352 0.770813 0.707411 -0.162523
C170  C     C_R   0.615221 0.228190 0.292593 -0.165378
C171  C     C_R   0.614565 0.771390 0.292582 -0.161631
C172  C     C_R   0.386412 0.229247 0.707414 -0.163987
C173  C     C_R   0.852363 0.269350 0.637339 -0.152546
C174  C     C_R   0.148778 0.729867 0.362683 -0.150094
C175  C     C_R   0.148665 0.270030 0.362679 -0.152266
C176  C     C_R   0.849339 0.728676 0.637321 -0.150490
C177  C     C_R   0.351216 0.770137 0.637317 -0.150082
C178  C     C_R   0.651738 0.227991 0.362677 -0.153954
C179  C     C_R   0.650655 0.771321 0.362679 -0.150387
C180  C     C_R   0.351272 0.229928 0.637321 -0.152566
C181  C     C_R   0.802267 0.247328 0.602447 -0.008989
C182  C     C_R   0.198557 0.752084 0.397596 -0.009948
C183  C     C_R   0.198698 0.247974 0.397597 -0.009264
C184  C     C_R   0.798328 0.750101 0.602400 -0.009564
C185  C     C_R   0.301449 0.747912 0.602404 -0.009973
C186  C     C_R   0.702727 0.249437 0.397579 -0.007753
C187  C     C_R   0.701673 0.749900 0.397601 -0.009595
C188  C     C_R   0.301331 0.252041 0.602404 -0.009256
C189  C     C_1   0.766975 0.248157 0.530241 0.104854
C190  C     C_1   0.234829 0.750650 0.469783 0.106075
C191  C     C_1   0.234882 0.249373 0.469783 0.104850
C192  C     C_1   0.764214 0.750041 0.530217 0.109248
C193  C     C_1   0.265176 0.749346 0.530217 0.106084
C194  C     C_1   0.737666 0.248828 0.469784 0.106494
C195  C     C_1   0.735786 0.749960 0.469783 0.109267
C196  C     C_1   0.265144 0.250646 0.530218 0.104886
C197  C     C_1   0.500037 0.515071 0.999899 0.203670
C198  C     C_1   0.500037 0.484793 0.999906 0.200007
C199  C     C_1   0.999984 0.015206 0.000046 0.200100
C200  C     C_1   0.999987 0.984929 0.000051 0.203771
C201  C     C_R   0.443551 0.569079 0.967011 0.297527
C202  C     C_R   0.546608 0.430726 0.057240 0.307833
C203  C     C_R   0.556501 0.569093 0.032790 0.297096
C204  C     C_R   0.453441 0.430716 0.942626 0.308139
C205  C     C_R   0.953397 0.069277 0.942725 0.307984
C206  C     C_R   0.056468 0.930918 0.032918 0.297539
C207  C     C_R   0.046567 0.069281 0.057336 0.307997
C208  C     C_R   0.943518 0.930909 0.967173 0.297157
H33   H     H_    0.400934 0.617818 0.938887 0.198095
H34   H     H_    0.581695 0.381778 0.099680 0.205033
H35   H     H_    0.599092 0.617842 0.060964 0.198413
H36   H     H_    0.418329 0.381759 0.900267 0.204496
H37   H     H_    0.918303 0.118229 0.900311 0.204626
H38   H     H_    0.099075 0.882175 0.061044 0.198132
H39   H     H_    0.081677 0.118233 0.099719 0.204541
H40   H     H_    0.900917 0.882163 0.939019 0.198353
N1    N     N_R   0.735545 0.202518 0.604249 0.217747
O53   O     O_R   0.719216 0.189411 0.546572 -0.360812
O54   O     O_R   0.708716 0.191911 0.633910 -0.340040
N2    N     N_R   0.263956 0.797728 0.395845 0.219413
O55   O     O_R   0.280504 0.810390 0.453926 -0.359836
O56   O     O_R   0.290111 0.809006 0.365906 -0.330236
N3    N     N_R   0.264690 0.202703 0.395857 0.218187
O57   O     O_R   0.281469 0.190002 0.453987 -0.361950
O58   O     O_R   0.290945 0.191636 0.365889 -0.339278
N4    N     N_R   0.730497 0.794185 0.604131 0.216332
O59   O     O_R   0.681650 0.786270 0.545986 -0.370105
O60   O     O_R   0.729111 0.821238 0.634114 -0.318547
N5    N     N_R   0.236073 0.702255 0.604155 0.219397
O61   O     O_R   0.219546 0.689589 0.546084 -0.359924
O62   O     O_R   0.209915 0.690973 0.634087 -0.330298
N6    N     N_R   0.769950 0.293928 0.395789 0.215149
O63   O     O_R   0.819111 0.285898 0.453586 -0.370469
O64   O     O_R   0.770913 0.321190 0.366042 -0.328230
N7    N     N_R   0.769517 0.705824 0.395869 0.216299
O65   O     O_R   0.818360 0.713742 0.454015 -0.370122
O66   O     O_R   0.770911 0.678774 0.365886 -0.318745
N8    N     N_R   0.235538 0.297432 0.604146 0.218410
O67   O     O_R   0.218867 0.310137 0.546053 -0.361921
O68   O     O_R   0.209307 0.308565 0.634097 -0.338053
H41   H     H_    0.925684 0.287538 0.733096 0.184317
H42   H     H_    0.075406 0.711739 0.266896 0.185206
H43   H     H_    0.075068 0.288023 0.266890 0.184837
H44   H     H_    0.924575 0.711738 0.733119 0.185908
H45   H     H_    0.424577 0.788272 0.733104 0.185215
H46   H     H_    0.576176 0.211252 0.266904 0.184409
H47   H     H_    0.575415 0.788256 0.266881 0.185945
H48   H     H_    0.424790 0.211886 0.733109 0.184907
H49   H     H_    0.864526 0.285972 0.610181 0.199904
H50   H     H_    0.137311 0.712797 0.389838 0.200061
H51   H     H_    0.136989 0.286964 0.389828 0.199571
H52   H     H_    0.861476 0.712037 0.610173 0.200740
H53   H     H_    0.362675 0.787212 0.610162 0.200092
H54   H     H_    0.640036 0.211068 0.389832 0.199564
H55   H     H_    0.638513 0.787957 0.389827 0.200792
H56   H     H_    0.362884 0.212953 0.610171 0.199565
N9    N     N_R   0.385314 0.551945 0.936507 0.225469
O69   O     O_R   0.336638 0.564300 0.882899 -0.317885
O70   O     O_R   0.378450 0.527445 0.968172 -0.327109
N10   N     N_R   0.594241 0.447637 0.117214 0.220027
O71   O     O_R   0.618954 0.433089 0.175580 -0.299819
O72   O     O_R   0.617747 0.475809 0.113604 -0.301336
N11   N     N_R   0.614746 0.551978 0.063242 0.225566
O73   O     O_R   0.663444 0.564344 0.116809 -0.317126
O74   O     O_R   0.621584 0.527482 0.031562 -0.327256
N12   N     N_R   0.405826 0.447615 0.882614 0.220182
O75   O     O_R   0.381061 0.433026 0.824285 -0.300715
O76   O     O_R   0.382401 0.475827 0.886153 -0.301253
N13   N     N_R   0.905765 0.052370 0.882741 0.220186
O77   O     O_R   0.881011 0.066939 0.824390 -0.300330
O78   O     O_R   0.882308 0.024175 0.886329 -0.301195
N14   N     N_R   0.114707 0.948048 0.063382 0.225484
O79   O     O_R   0.163412 0.935674 0.116932 -0.317891
O80   O     O_R   0.121535 0.972564 0.031720 -0.327022
N15   N     N_R   0.094186 0.052377 0.117335 0.220185
O81   O     O_R   0.118905 0.066941 0.175680 -0.300428
O82   O     O_R   0.117668 0.024192 0.113769 -0.301213
N16   N     N_R   0.885277 0.948029 0.936721 0.225572
O83   O     O_R   0.836579 0.935668 0.883145 -0.317026
O84   O     O_R   0.878440 0.972523 0.968403 -0.327166
N17   N     N_R   0.460067 0.948275 0.074930 0.236894
O85   O     O_R   0.473043 0.935517 0.131728 -0.318700
O86   O     O_R   0.423189 0.974049 0.050288 -0.309572
N18   N     N_R   0.539780 0.051728 0.924926 0.237404
O87   O     O_R   0.526710 0.064478 0.868087 -0.319562
O88   O     O_R   0.576698 0.025969 0.949549 -0.309038
N19   N     N_R   0.516995 0.948302 0.906060 0.238771
O89   O     O_R   0.554348 0.935590 0.891141 -0.323138
O90   O     O_R   0.483245 0.974052 0.871953 -0.304472
N20   N     N_R   0.483118 0.051693 0.094017 0.238804
O91   O     O_R   0.445856 0.064420 0.109054 -0.323373
O92   O     O_R   0.516832 0.025917 0.128040 -0.305114
N21   N     N_R   0.960207 0.448272 0.075063 0.237372
O93   O     O_R   0.973269 0.435522 0.131899 -0.319754
O94   O     O_R   0.923290 0.474031 0.050436 -0.309253
N22   N     N_R   0.039949 0.551725 0.925084 0.236860
O95   O     O_R   0.026979 0.564482 0.868289 -0.319026
O96   O     O_R   0.076827 0.525951 0.949732 -0.309603
N23   N     N_R   0.016903 0.448307 0.905999 0.238641
O97   O     O_R   0.054172 0.435581 0.890973 -0.323732
O98   O     O_R   0.983190 0.474083 0.871972 -0.305829
N24   N     N_R   0.982992 0.551699 0.093930 0.238749
O99   O     O_R   0.945632 0.564410 0.108842 -0.323286
O100  O     O_R   0.016739 0.525949 0.128041 -0.304576
H57   H     H_    0.471479 0.882338 0.069713 0.207728
H58   H     H_    0.528390 0.117663 0.930173 0.207498
H59   H     H_    0.520521 0.882371 0.923675 0.208352
H60   H     H_    0.479597 0.117627 0.076417 0.207982
H61   H     H_    0.971598 0.382337 0.069817 0.207480
H62   H     H_    0.028533 0.617662 0.930297 0.207726
H63   H     H_    0.020421 0.382374 0.923598 0.207928
H64   H     H_    0.979467 0.617629 0.076315 0.208352
H65   H     H_    0.652457 0.402725 0.032276 0.194721
H66   H     H_    0.380660 0.596757 0.037600 0.206118
H67   H     H_    0.347688 0.402730 0.967830 0.194738
H68   H     H_    0.618374 0.596890 0.961177 0.205907
H69   H     H_    0.119330 0.903271 0.962272 0.206166
H70   H     H_    0.847573 0.097270 0.967781 0.194735
H71   H     H_    0.881554 0.903098 0.038680 0.205954
H72   H     H_    0.152194 0.097254 0.031926 0.194734
N25   N     N_R   0.572713 0.372411 0.913269 0.201798
O101  O     O_R   0.559183 0.404026 0.912132 -0.360180
O102  O     O_R   0.533975 0.353233 0.863251 -0.382176
N26   N     N_R   0.460714 0.643085 0.125811 0.204577
O103  O     O_R   0.494620 0.668019 0.163504 -0.390478
O104  O     O_R   0.485983 0.613577 0.135370 -0.352514
N27   N     N_R   0.427426 0.372373 0.086795 0.201876
O105  O     O_R   0.440982 0.403989 0.087969 -0.359996
O106  O     O_R   0.466164 0.353173 0.136772 -0.381829
N28   N     N_R   0.538455 0.643512 0.873773 0.204322
O107  O     O_R   0.504531 0.668627 0.836854 -0.393228
O108  O     O_R   0.513079 0.614001 0.863738 -0.352670
N29   N     N_R   0.039166 0.856879 0.874384 0.204513
O109  O     O_R   0.013989 0.886433 0.864550 -0.352085
O110  O     O_R   0.005109 0.831870 0.837166 -0.391078
N30   N     N_R   0.927346 0.127614 0.086742 0.201896
O111  O     O_R   0.966113 0.146812 0.136700 -0.381907
O112  O     O_R   0.940873 0.095995 0.087923 -0.359864
N31   N     N_R   0.961380 0.856553 0.126434 0.204498
O113  O     O_R   0.986853 0.886013 0.136124 -0.352811
O114  O     O_R   0.995142 0.831532 0.163926 -0.392283
N32   N     N_R   0.072433 0.127689 0.913064 0.201992
O115  O     O_R   0.033675 0.146929 0.863179 -0.381261
O116  O     O_R   0.058856 0.096070 0.911799 -0.359586
H73   H     H_    0.751551 0.380190 0.125022 0.195069
H74   H     H_    0.272532 0.606146 0.946264 0.211327
H75   H     H_    0.248554 0.380230 0.875086 0.195359
H76   H     H_    0.726716 0.605969 0.052210 0.211993
H77   H     H_    0.227540 0.893926 0.053416 0.211345
H78   H     H_    0.748447 0.119782 0.875051 0.195137
H79   H     H_    0.773306 0.893958 0.947435 0.212064
H80   H     H_    0.251388 0.119693 0.124674 0.195354

loop_
_geom_bond_atom_site_label_1
_geom_bond_atom_site_label_2
_geom_bond_distance
_ccdc_geom_bond_type
C179  H55   1.083979 S    
N27   O105  1.301461 A    
N9    O69   1.301403 A    
Zn7   O9    1.933719 S    
C1    C63   1.399896 A    
C190  C193  1.202143 T    
C74   C114  1.405844 A    
C2    C64   1.397546 A    
C174  C182  1.399787 A    
C119  H19   1.084890 S    
C42   C50   1.401619 A    
C5    C203  1.413653 A    
O41   C21   1.282354 A    
C167  C175  1.393226 A    
O24   C26   1.278905 A    
C94   H10   1.083129 S    
N22   O96   1.301231 A    
C65   C205  1.400629 A    
C16   C129  1.453733 S    
C124  C135  1.395680 A    
C147  N7    1.442498 S    
N14   O79   1.301400 A    
C37   C55   1.413529 A    
N23   O98   1.301226 A    
C93   H9    1.083159 S    
Zn4   O30   1.920847 S    
Zn2   O2    1.937701 S    
C101  H73   1.082372 S    
N4    O59   1.301187 A    
C201  N9    1.437890 S    
Zn15  O27   1.920060 S    
C79   H3    1.083151 S    
C66   H38   1.082977 S    
Zn15  O3    1.933410 S    
C122  H22   1.084900 S    
C171  C179  1.393235 A    
C112  H68   1.082042 S    
C150  C158  1.405604 A    
C7    C207  1.418626 A    
C73   C113  1.405397 A    
C119  C127  1.399220 A    
C40   C56   1.413418 A    
O49   C13   1.271254 A    
C71   C111  1.405846 A    
C69   C109  1.405853 A    
C90   C98   1.402700 A    
C37   N21   1.439076 S    
N3    O57   1.301190 A    
C93   C101  1.396395 A    
C141  N1    1.442565 S    
C157  C165  1.401903 A    
N7    O66   1.301607 A    
N20   O92   1.301225 A    
C153  H29   1.082953 S    
C143  C183  1.414157 A    
O10   C14   1.271577 A    
Zn6   O36   1.920680 S    
C10   C127  1.453417 S    
Zn14  O18   1.920617 S    
C33   N17   1.439098 S    
C78   H2    1.082687 S    
C120  H20   1.084931 S    
C69   N25   1.438614 S    
O23   C25   1.277925 A    
C145  C153  1.404317 A    
C121  C134  1.391826 A    
C188  C196  1.435648 S    
C19   C162  1.475304 S    
C143  C151  1.404332 A    
O37   C17   1.282381 A    
Zn16  O20   1.920537 S    
C108  H80   1.082370 S    
C67   H39   1.083373 S    
Zn13  O49   1.935819 S    
C172  H48   1.082974 S    
C90   C137  1.483734 S    
C203  N11   1.437914 S    
N17   O85   1.301454 A    
C2    C62   1.397533 A    
N19   O89   1.301467 A    
C35   C53   1.413416 A    
N30   O111  1.301509 A    
C99   H15   1.083119 S    
C105  C113  1.395974 A    
C100  H16   1.083158 S    
C147  C187  1.414090 A    
C148  C188  1.414141 A    
C169  H45   1.082975 S    
O36   C32   1.282320 A    
N18   O88   1.301230 A    
N15   O81   1.301617 A    
C44   H60   1.083156 S    
N21   O93   1.301454 A    
O18   C22   1.279849 A    
O26   C28   1.277916 A    
Zn11  O15   1.920535 S    
Zn8   O10   1.933722 S    
C23   C158  1.475339 S    
C8    C208  1.413650 A    
Zn14  O26   1.920020 S    
C77   C85   1.405587 A    
C83   C91   1.407535 A    
O44   C24   1.282283 A    
C187  C195  1.435583 S    
C108  C116  1.396927 A    
N28   O108  1.301643 A    
N7    O65   1.301187 A    
C123  C136  1.391828 A    
C184  C192  1.435584 S    
C38   C56   1.413545 A    
C7    C205  1.418642 A    
C4    C66   1.399878 A    
N16   O83   1.301401 A    
C3    C67   1.397542 A    
C126  C134  1.412166 A    
C155  C163  1.405602 A    
C179  C187  1.399782 A    
C156  C164  1.405634 A    
C75   N31   1.439949 S    
C41   H57   1.083160 S    
C123  C131  1.399688 A    
N25   O101  1.301461 A    
O45   C9    1.270676 A    
C38   N22   1.439099 S    
C152  C160  1.405599 A    
C142  N2    1.442519 S    
C40   C48   1.400963 A    
O21   C25   1.277911 A    
C98   H14   1.083159 S    
O47   C11   1.270777 A    
C24   C157  1.475307 S    
O16   C20   1.279735 A    
O38   C18   1.282352 A    
O6    C10   1.270473 A    
C115  H71   1.082027 S    
Zn14  O50   1.935822 S    
C63   C203  1.399967 A    
N31   O114  1.301766 A    
C119  C140  1.395602 A    
C36   C54   1.413439 A    
N23   O97   1.301465 A    
O33   C31   1.282127 A    
Zn12  O2    1.933409 S    
C177  H53   1.083978 S    
Zn13  O3    1.933496 S    
C146  N6    1.442557 S    
Zn14  O4    1.933493 S    
O13   C17   1.279853 A    
C170  H46   1.082981 S    
O15   C19   1.279674 A    
C182  C190  1.435706 S    
C113  H69   1.082013 S    
O22   C26   1.278891 A    
C8    C200  1.440913 S    
C160  C168  1.401932 A    
C175  C183  1.399775 A    
C161  C169  1.401945 A    
Zn8   O34   1.920847 S    
C163  C171  1.401930 A    
C172  C180  1.393226 A    
N5    O62   1.301608 A    
C95   H11   1.083159 S    
C208  N16   1.437908 S    
C202  N10   1.441678 S    
C178  C186  1.399804 A    
C117  H17   1.084895 S    
N10   O71   1.301621 A    
C64   H36   1.083369 S    
C151  H27   1.082971 S    
O43   C23   1.282227 A    
C106  H78   1.082372 S    
C80   C88   1.407563 A    
C81   C89   1.407545 A    
N6    O63   1.301173 A    
C72   N28   1.439934 S    
C45   H61   1.083157 S    
C12   C125  1.453427 S    
C36   C44   1.400992 A    
C61   H33   1.082978 S    
C176  C184  1.399782 A    
C142  C182  1.414106 A    
C177  C185  1.399788 A    
Zn11  O1    1.933410 S    
O25   C27   1.278893 A    
C48   C52   1.401657 A    
N3    O58   1.301607 A    
N2    O56   1.301599 A    
C53   C57   1.440978 S    
Zn4   O2    1.937366 S    
C68   C208  1.399958 A    
C55   C59   1.440981 S    
Zn5   O3    1.937700 S    
Zn6   O4    1.937701 S    
C168  C176  1.393235 A    
C169  C177  1.393266 A    
C32   C51   1.475873 S    
C76   N32   1.438604 S    
C4    C68   1.399885 A    
C142  C150  1.404319 A    
C118  C137  1.391837 A    
C165  C173  1.393218 A    
N26   O103  1.301768 A    
C153  C161  1.405602 A    
C47   C51   1.401667 A    
C174  H50   1.083980 S    
C73   N29   1.439929 S    
C88   C96   1.404353 A    
C158  C166  1.401940 A    
C91   C99   1.404310 A    
C85   C134  1.483718 S    
C62   H34   1.083371 S    
C92   C100  1.402709 A    
C13   C132  1.453417 S    
Zn16  O52   1.935934 S    
C102  C110  1.396008 A    
C149  H25   1.082974 S    
N19   O90   1.301223 A    
C71   N27   1.438611 S    
C59   C60   1.203531 T    
C35   C43   1.400962 A    
C124  C132  1.399220 A    
C103  H75   1.082368 S    
C43   C49   1.401658 A    
C118  C126  1.399716 A    
Zn1   O31   1.920679 S    
C76   C84   1.407048 A    
Zn2   O32   1.920680 S    
C66   C206  1.399970 A    
Zn3   O29   1.920848 S    
C122  C130  1.399211 A    
Zn7   O3    1.937367 S    
C75   C83   1.407070 A    
Zn8   O4    1.937366 S    
N14   O80   1.301159 A    
C88   C135  1.488446 S    
C206  N14   1.437918 S    
Zn12  O48   1.935934 S    
Zn7   O43   1.918677 S    
C130  C138  1.412383 A    
N9    O70   1.301160 A    
Zn6   O12   1.933625 S    
O27   C27   1.278903 A    
C2    C25   1.468844 S    
N4    O60   1.301607 A    
N32   O115  1.301517 A    
C39   N23   1.439070 S    
C125  C133  1.412295 A    
N13   O78   1.300054 A    
C204  N12   1.441722 S    
Zn9   O21   1.920017 S    
C178  H54   1.083982 S    
Zn11  O23   1.920060 S    
C144  C184  1.414087 A    
C39   C55   1.413438 A    
Zn12  O24   1.920064 S    
C145  C185  1.414102 A    
O52   C16   1.270781 A    
C41   C49   1.401623 A    
C91   C140  1.488305 S    
O42   C22   1.282385 A    
Zn10  O2    1.933493 S    
C78   C86   1.407508 A    
C61   C201  1.399950 A    
C120  C128  1.399700 A    
C114  H70   1.082538 S    
C69   C77   1.407064 A    
Zn9   O45   1.935819 S    
N24   O99   1.301464 A    
Zn11  O47   1.935939 S    
N25   O102  1.301520 A    
C33   C41   1.401153 A    
C128  C136  1.412185 A    
C147  C155  1.404247 A    
C197  C198  1.203971 T    
C8    C206  1.413659 A    
N1    O54   1.301608 A    
N12   O75   1.301616 A    
C47   H63   1.083153 S    
C45   C51   1.401618 A    
C5    C197  1.440913 S    
C131  C139  1.412188 A    
N29   O110  1.301699 A    
N11   O73   1.301400 A    
C87   C95   1.402700 A    
C154  C162  1.405626 A    
C65   H37   1.083368 S    
C56   C60   1.440976 S    
C103  C111  1.396921 A    
C96   H12   1.083109 S    
C176  H52   1.083977 S    
C97   H13   1.083122 S    
C164  C172  1.401945 A    
C62   C202  1.400611 A    
Zn9   O13   1.920619 S    
N8    O67   1.301185 A    
C21   C160  1.475269 S    
O50   C14   1.270683 A    
C22   C159  1.475375 S    
C84   C92   1.405604 A    
N30   O112  1.301461 A    
C70   C110  1.405433 A    
C144  N4    1.442498 S    
O12   C16   1.271639 A    
N17   O86   1.301231 A    
C168  H44   1.082976 S    
C67   C207  1.400612 A    
C150  H26   1.082953 S    
C110  H66   1.082009 S    
N22   O95   1.301453 A    
C14   C131  1.453718 S    
C6    C198  1.440941 S    
C183  C191  1.435648 S    
C205  N13   1.441707 S    
C33   C53   1.413546 A    
C148  N8    1.442535 S    
N31   O113  1.301628 A    
C180  C188  1.399775 A    
O9    C13   1.270480 A    
C162  C170  1.401904 A    
N27   O106  1.301515 A    
C86   C94   1.404311 A    
Zn3   O5    1.933719 S    
C71   C79   1.407061 A    
C94   C102  1.395774 A    
C122  C133  1.395554 A    
C123  H23   1.084935 S    
O34   C32   1.282135 A    
C151  C159  1.405638 A    
C98   C106  1.396395 A    
Zn10  O46   1.935822 S    
C34   N18   1.439080 S    
C89   C138  1.488378 S    
C34   C42   1.401132 A    
C17   C164  1.475368 S    
N16   O84   1.301164 A    
C87   C136  1.483735 S    
C18   C163  1.475269 S    
C106  C114  1.396925 A    
C70   N26   1.439946 S    
C37   C45   1.401131 A    
C111  H67   1.082539 S    
C82   H6    1.083156 S    
C180  H56   1.083983 S    
Zn16  O28   1.920064 S    
C107  C115  1.396009 A    
Zn1   O37   1.918635 S    
Zn4   O6    1.933722 S    
N20   O91   1.301465 A    
Zn3   O39   1.918677 S    
C3    C65   1.397540 A    
C154  H30   1.082978 S    
Zn4   O40   1.918679 S    
C189  C194  1.202082 T    
O17   C21   1.279824 A    
C173  C181  1.399798 A    
C170  C178  1.393225 A    
C120  C139  1.391850 A    
C191  C196  1.202109 T    
C92   C139  1.483764 S    
O51   C15   1.271324 A    
C63   H35   1.082989 S    
C166  C174  1.393267 A    
C83   H7    1.082674 S    
C40   N24   1.439040 S    
Zn7   O33   1.920848 S    
C42   H58   1.083160 S    
C117  C125  1.399200 A    
O48   C12   1.271325 A    
C64   C204  1.400626 A    
C129  C137  1.412176 A    
C148  C156  1.404321 A    
C79   C87   1.405591 A    
C80   H4    1.082669 S    
C127  C135  1.412382 A    
C34   C54   1.413528 A    
C81   H5    1.082676 S    
O40   C20   1.282228 A    
C46   C52   1.401624 A    
C82   C90   1.405595 A    
C102  H74   1.082471 S    
C84   H8    1.083153 S    
Zn1   O1    1.937700 S    
O46   C10   1.271260 A    
O35   C31   1.282320 A    
N5    O61   1.301190 A    
O32   C30   1.282317 A    
C74   C82   1.407054 A    
C199  C200  1.203971 T    
N18   O87   1.301451 A    
C72   C80   1.407058 A    
N10   O72   1.300050 A    
C73   C81   1.407082 A    
C6    C204  1.418650 A    
C68   H40   1.082986 S    
N21   O94   1.301228 A    
C186  C194  1.435576 S    
C149  C157  1.405634 A    
C38   C46   1.401154 A    
O5    C9    1.271591 A    
N8    O68   1.301617 A    
C109  H65   1.082535 S    
N6    O64   1.301616 A    
O7    C11   1.271637 A    
C132  C140  1.412297 A    
C99   C107  1.395799 A    
C100  C108  1.396400 A    
C89   C97   1.404357 A    
O11   C15   1.270568 A    
O14   C18   1.279826 A    
C97   C105  1.395775 A    
C29   C50   1.475870 S    
N28   O107  1.301654 A    
C165  H41   1.082978 S    
C31   C52   1.475854 S    
C15   C130  1.453427 S    
C167  H43   1.082980 S    
C76   C116  1.405837 A    
Zn10  O22   1.920020 S    
C207  N15   1.441687 S    
C121  H21   1.084933 S    
Zn12  O16   1.920537 S    
Zn13  O17   1.920619 S    
C146  C186  1.414192 A    
C104  H76   1.082437 S    
C77   H1    1.083154 S    
N26   O104  1.301628 A    
C116  H72   1.082537 S    
Zn16  O4    1.933409 S    
N11   O74   1.301164 A    
O31   C29   1.282322 A    
C118  H18   1.084933 S    
C143  N3    1.442567 S    
C20   C161  1.475336 S    
N24   O100  1.301221 A    
N15   O82   1.300055 A    
C107  H79   1.082453 S    
C48   H64   1.083156 S    
Zn5   O35   1.920679 S    
C1    C61   1.399875 A    
C105  H77   1.082462 S    
Zn5   O41   1.918635 S    
C5    C201  1.413640 A    
C11   C126  1.453733 S    
O29   C29   1.282133 A    
C35   N19   1.439038 S    
C46   H62   1.083156 S    
C43   H59   1.083157 S    
C54   C58   1.440982 S    
C146  C154  1.404249 A    
C155  H31   1.082956 S    
Zn15  O19   1.920535 S    
Zn10  O14   1.920617 S    
O20   C24   1.279677 A    
C72   C112  1.405371 A    
C39   C47   1.400991 A    
C36   N20   1.439071 S    
Zn13  O25   1.920017 S    
C141  C149  1.404262 A    
C117  C138  1.395628 A    
C4    C27   1.472415 S    
Zn8   O44   1.918679 S    
Zn3   O1    1.937367 S    
C173  H49   1.083981 S    
N32   O116  1.301458 A    
Zn9   O1    1.933496 S    
C86   C133  1.488238 S    
C175  H51   1.083981 S    
C30   C49   1.475858 S    
N13   O77   1.301618 A    
C6    C202  1.418624 A    
C7    C199  1.440937 S    
C166  H42   1.082977 S    
C152  H28   1.082956 S    
O39   C19   1.282290 A    
Zn15  O51   1.935939 S    
O19   C23   1.279740 A    
C192  C195  1.202074 T    
C74   N30   1.438606 S    
C101  C109  1.396924 A    
C156  H32   1.082974 S    
C9    C128  1.453728 S    
C75   C115  1.405413 A    
C95   C103  1.396395 A    
C70   C78   1.407084 A    
N2    O55   1.301194 A    
C144  C152  1.404247 A    
C145  N5    1.442508 S    
C85   C93   1.402691 A    
C44   C50   1.401666 A    
C57   C58   1.203533 T    
C96   C104  1.395811 A    
C159  C167  1.401938 A    
C121  C129  1.399714 A    
O28   C28   1.277920 A    
N1    O53   1.301174 A    
O8    C12   1.270574 A    
N12   O76   1.300054 A    
Zn6   O42   1.918633 S    
C104  C112  1.395977 A    
C171  H47   1.082975 S    
C124  H24   1.084885 S    
N29   O109  1.301636 A    
C185  C193  1.435707 S    
Zn1   O7    1.933629 S    
O30   C30   1.282130 A    
Zn2   O8    1.933625 S    
C1    C26   1.472415 S    
C141  C181  1.414180 A    
C3    C28   1.468848 S    
Zn2   O38   1.918633 S    
C181  C189  1.435579 S    
Zn5   O11   1.933629 S    
