data_mof_unit_40902.cif
_audit_creation_date              2012-12-10T17:56:43-0500
_audit_creation_method            fapswitch 2.2
_symmetry_space_group_name_H-M    P1
_symmetry_Int_Tables_number       1
_space_group_crystal_system       triclinic
_cell_length_a                    10.848473
_cell_length_b                    9.514396
_cell_length_c                    10.77974
_cell_angle_alpha                 89.983728
_cell_angle_beta                  90.379863
_cell_angle_gamma                 90.517289
_cell_volume                      1112.57901907

loop_
_atom_site_label
_atom_site_type_symbol
_atom_type_description
_atom_site_fract_x
_atom_site_fract_y
_atom_site_fract_z
_atom_type_partial_charge
C1    C     C_R   0.262385 0.499545 0.504548 0.826464
C2    C     C_R   0.738110 0.501197 0.500873 0.800199
C3    C     C_R   0.938327 0.625444 0.545807 0.194622
C4    C     C_R   0.067060 0.618963 0.557810 0.206632
C5    C     C_R   0.429017 0.073734 0.417257 -0.022867
C6    C     C_R   0.570443 0.075100 0.583188 -0.033835
C7    C     C_R   0.429126 0.924871 0.417171 -0.009197
C8    C     C_R   0.570009 0.926255 0.583526 -0.014025
C9    C     C_R   0.503818 0.500103 0.262514 0.783284
C10   C     C_R   0.504216 0.500108 0.737526 0.779221
C11   C     C_R   0.701345 0.647805 0.131009 -0.181131
C12   C     C_R   0.701592 0.648022 0.872144 -0.194534
C13   C     C_R   0.793504 0.719738 0.066866 -0.135969
C14   C     C_R   0.793596 0.719911 0.937852 -0.142040
C15   C     C_R   0.605915 0.576265 0.935201 0.098114
C16   C     C_R   0.605786 0.576205 0.066395 0.097974
C17   C     C_R   0.512267 0.500157 0.128923 -0.094993
C18   C     C_R   0.512502 0.500203 0.871238 -0.097901
C19   C     C_R   0.424692 0.421100 0.063399 -0.205898
C20   C     C_R   0.424766 0.421193 0.935451 -0.210093
C21   C     C_R   0.062709 0.382427 0.470232 -0.252296
C22   C     C_R   0.935509 0.383948 0.468420 -0.242812
C23   C     C_R   0.872413 0.504789 0.504224 -0.093272
C24   C     C_R   0.128845 0.499761 0.512604 -0.093130
Cu1   Cu    Cu3+1 0.500000 0.640660 0.500000 0.952541
Cu2   Cu    Cu3+1 0.500000 0.359340 0.500000 0.937104
H1    H     H_    0.354164 0.361497 0.111721 0.142306
H2    H     H_    0.354236 0.361749 0.886075 0.148146
H3    H     H_    0.707479 0.646906 0.231090 0.142146
H4    H     H_    0.707870 0.647242 0.772163 0.151268
H5    H     H_    0.866039 0.774088 0.117544 0.129053
H6    H     H_    0.866179 0.774556 0.888571 0.120442
H7    H     H_    0.109428 0.289792 0.436800 0.165163
H8    H     H_    0.886453 0.291293 0.435656 0.171248
H9    H     H_    0.372037 0.129291 0.351085 0.114903
H10   H     H_    0.627258 0.131709 0.649542 0.126793
H11   H     H_    0.372257 0.868194 0.350909 0.121721
H12   H     H_    0.626348 0.870738 0.650242 0.136810
N1    N     N_R   0.500000 0.852070 0.500000 -0.155456
N2    N     N_R   0.500000 0.147940 0.500000 -0.156931
O1    O     O_R   0.319640 0.618740 0.499990 -0.544878
O2    O     O_R   0.680360 0.618740 0.500010 -0.560875
O3    O     O_R   0.319620 0.381170 0.499990 -0.596094
O4    O     O_R   0.680380 0.381170 0.500010 -0.592022
O5    O     O_R   0.500000 0.618810 0.319650 -0.592720
O6    O     O_R   0.500000 0.618810 0.680350 -0.582503
O7    O     O_R   0.499970 0.381240 0.319640 -0.580040
O8    O     O_R   0.500030 0.381240 0.680360 -0.580223
N3    N     N_2   0.875636 0.751502 0.577055 -0.430665
H13   H     H_    0.902545 0.795586 0.660348 0.236922
C25   C     C_3   0.869658 0.853067 0.476952 -0.675605
H14   H     H_    0.963488 0.886181 0.447815 0.200466
H15   H     H_    0.819495 0.947627 0.508189 0.216332
H16   H     H_    0.820221 0.807710 0.395584 0.243985
N4    N     N_2   0.134743 0.730171 0.616665 -0.415553
H17   H     H_    0.102751 0.830371 0.602095 0.251906
C26   C     C_3   0.166608 0.703379 0.744999 -0.665314
H18   H     H_    0.081854 0.696705 0.802084 0.201476
H19   H     H_    0.225879 0.790294 0.780728 0.230191
H20   H     H_    0.218643 0.603781 0.753836 0.225439

loop_
_geom_bond_atom_site_label_1
_geom_bond_atom_site_label_2
_ccdc_geom_bond_type
Cu1   O2    S    
C10   O6    A    
C15   C18   A    
C25   H15   S    
N4    H17   S    
C6    H10   S    
C9    O5    A    
C8    N1    A    
C13   C14   A    
C19   H1    S    
C11   C16   A    
C3    C23   A    
C19   C20   A    
C12   C15   A    
Cu2   O8    S    
C25   H16   S    
N3    C25   S    
C3    N3    S    
Cu2   O4    S    
C21   C22   A    
Cu1   N1    S    
C11   C13   A    
Cu2   N2    S    
C26   H18   S    
C1    O3    A    
C8    H12   S    
Cu2   O7    S    
C2    O2    A    
C4    C24   A    
C5    H9    S    
C9    C17   S    
C17   C19   A    
C10   C18   S    
Cu2   O3    S    
C9    O7    A    
C18   C20   A    
N4    C26   S    
C4    N4    S    
C10   O8    A    
C22   H8    S    
C6    N2    A    
C26   H19   S    
C21   H7    S    
C15   C16   A    
Cu1   O1    S    
C25   H14   S    
Cu1   O5    S    
C12   C14   A    
C11   H3    S    
C1    C24   S    
N3    H13   S    
C21   C24   A    
C14   H6    S    
C2    C23   S    
C5    C7    A    
C7    N1    A    
C22   C23   A    
C26   H20   S    
C6    C8    A    
C20   H2    S    
C12   H4    S    
Cu1   Cu2   S    
C5    N2    A    
Cu1   O6    S    
C13   H5    S    
C3    C4    A    
C1    O1    A    
C2    O4    A    
C16   C17   A    
C7    H11   S    
