data_mof_unit_51455.cif
_audit_creation_date              2012-12-10T17:53:13-0500
_audit_creation_method            fapswitch 2.2
_symmetry_space_group_name_H-M    P1
_symmetry_Int_Tables_number       1
_space_group_crystal_system       triclinic
_cell_length_a                    14.770812
_cell_length_b                    14.705593
_cell_length_c                    27.800122
_cell_angle_alpha                 76.285043
_cell_angle_beta                  103.265964
_cell_angle_gamma                 114.815704
_cell_volume                      5266.54735379

loop_
_atom_site_label
_atom_site_type_symbol
_atom_type_description
_atom_site_fract_x
_atom_site_fract_y
_atom_site_fract_z
_atom_type_partial_charge
C1    C     C_R   0.880417 0.312179 0.508263 0.802955
C2    C     C_R   0.119517 0.687762 0.492104 0.801820
C3    C     C_R   0.005609 0.489630 0.900230 -0.085120
C4    C     C_R   0.999025 0.513081 0.099993 -0.088378
C5    C     C_R   0.930590 0.409466 0.876055 -0.081928
C6    C     C_R   0.073521 0.593070 0.124413 -0.066656
C7    C     C_R   0.865389 0.324217 0.905475 0.169611
C8    C     C_R   0.139369 0.678561 0.095330 0.128564
C9    C     C_R   0.081766 0.566091 0.873919 0.001898
C10   C     C_R   0.921549 0.437187 0.125754 0.005176
C11   C     C_R   0.999880 0.498343 0.645709 -0.042203
C12   C     C_R   0.000475 0.502109 0.354279 -0.042476
C13   C     C_R   0.926254 0.426076 0.026482 0.072460
C14   C     C_R   0.080319 0.576307 0.973952 0.090210
C15   C     C_R   0.074426 0.587263 0.022690 -0.005754
C16   C     C_R   0.932931 0.414462 0.978161 -0.046868
C17   C     C_R   0.000785 0.508498 0.049751 0.028917
C18   C     C_R   0.005424 0.493854 0.950755 0.028360
C19   C     C_R   0.842246 0.362353 0.050808 -0.225643
C20   C     C_R   0.163110 0.640976 0.948768 -0.163365
C21   C     C_R   0.841547 0.365167 0.100118 -0.148454
C22   C     C_R   0.162062 0.638515 0.899172 -0.164098
C23   C     C_R   0.999853 0.499674 0.592531 0.799011
C24   C     C_R   0.000197 0.500399 0.407467 0.798774
C25   C     C_R   0.874217 0.323548 0.957268 0.141474
C26   C     C_R   0.133681 0.677683 0.043715 0.134708
C27   C     C_R   0.812620 0.204365 0.512535 -0.053505
C28   C     C_R   0.187185 0.795045 0.491380 -0.053554
C29   C     C_R   0.781607 0.027574 0.517721 -0.185163
C30   C     C_R   0.219346 0.967638 0.497223 -0.185460
C31   C     C_R   0.848528 0.128413 0.516260 -0.189977
C32   C     C_R   0.151636 0.868680 0.492797 -0.190263
C33   C     C_R   0.709321 0.178132 0.510993 -0.241258
C34   C     C_R   0.290622 0.821837 0.493448 -0.236883
C35   C     C_R   0.639980 0.076824 0.512588 0.090571
C36   C     C_R   0.361087 0.919787 0.500476 0.091382
C37   C     C_R   0.677896 0.001428 0.515263 0.161515
C38   C     C_R   0.323487 0.993493 0.501495 0.160454
C39   C     C_R   0.534193 0.048841 0.510071 0.066459
C40   C     C_R   0.467309 0.946349 0.506559 0.066211
C41   C     C_R   0.508956 0.873480 0.510351 -0.212996
C42   C     C_R   0.493123 0.119508 0.511461 -0.211993
C43   C     C_R   0.612104 0.900722 0.514898 -0.222722
C44   C     C_R   0.389967 0.091985 0.507388 -0.222617
C45   C     C_R   0.929038 0.415548 0.823992 0.548074
C46   C     C_R   0.074283 0.586269 0.176487 0.549720
C47   C     C_R   0.705238 0.658318 0.410682 0.089963
C48   C     C_R   0.294802 0.341567 0.589245 0.088437
C49   C     C_R   0.793407 0.638751 0.428603 0.341365
C50   C     C_R   0.206847 0.361601 0.571584 0.341928
C51   C     C_R   0.714360 0.508426 0.492379 -0.055970
C52   C     C_R   0.285372 0.491066 0.507384 -0.057256
C53   C     C_R   0.626427 0.532444 0.479608 -0.063130
C54   C     C_R   0.373126 0.466718 0.520011 -0.062972
C55   C     C_R   0.622219 0.606727 0.437063 0.093342
C56   C     C_R   0.377412 0.392509 0.562580 0.094278
C57   C     C_R   0.542906 0.485753 0.507467 0.106931
C58   C     C_R   0.456463 0.513092 0.492023 0.104475
C59   C     C_R   0.455490 0.584817 0.448649 -0.241732
C60   C     C_R   0.543708 0.413706 0.550716 -0.243871
C61   C     C_R   0.536033 0.630363 0.422101 -0.183820
C62   C     C_R   0.463278 0.368315 0.577318 -0.189027
C63   C     C_R   0.078404 0.566448 0.823233 0.533209
C64   C     C_R   0.923501 0.436858 0.176277 0.527540
C65   C     C_R   0.926628 0.516774 0.710876 -0.102968
C66   C     C_R   0.073798 0.483431 0.289218 -0.102960
C67   C     C_R   0.926017 0.518516 0.660367 -0.220851
C68   C     C_R   0.073904 0.481102 0.339729 -0.221020
C69   C     C_R   0.074043 0.476241 0.682474 -0.216839
C70   C     C_R   0.927222 0.525598 0.317400 -0.217523
C71   C     C_R   0.074432 0.474511 0.732829 -0.103683
C72   C     C_R   0.927370 0.527967 0.267027 -0.104386
C73   C     C_R   0.000936 0.494897 0.747245 0.359371
C74   C     C_R   0.000483 0.506811 0.252722 0.359163
Cu1   Cu    Cu3+1 0.081740 0.475690 0.513040 0.933627
Cu2   Cu    Cu3+1 0.918260 0.524310 0.486960 0.933047
H1    H     H_    0.131840 0.460170 0.672426 0.161776
H2    H     H_    0.869803 0.542366 0.327371 0.161790
H3    H     H_    0.313921 0.764206 0.489466 0.143090
H4    H     H_    0.684664 0.238986 0.507043 0.147926
H5    H     H_    0.072062 0.849433 0.491717 0.145331
H6    H     H_    0.927684 0.146945 0.516671 0.143982
H7    H     H_    0.810776 0.970050 0.519863 0.134460
H8    H     H_    0.190424 0.023595 0.498401 0.134651
H9    H     H_    0.464337 0.793680 0.511004 0.146433
H10   H     H_    0.538507 0.196730 0.516937 0.142816
H11   H     H_    0.529554 0.685933 0.389613 0.161370
H12   H     H_    0.469660 0.312522 0.609711 0.161652
H13   H     H_    0.278765 0.550112 0.477210 0.140577
H14   H     H_    0.720943 0.449284 0.522495 0.140308
H15   H     H_    0.393116 0.608040 0.433842 0.133767
H16   H     H_    0.605839 0.390068 0.565389 0.132420
H17   H     H_    0.131807 0.457120 0.760774 0.140651
H18   H     H_    0.870744 0.546489 0.238989 0.140760
H19   H     H_    0.131357 0.462956 0.367281 0.158258
H20   H     H_    0.867856 0.535568 0.632901 0.157830
H21   H     H_    0.130511 0.466915 0.278391 0.141035
H22   H     H_    0.869581 0.532633 0.721795 0.140730
H23   H     H_    0.777181 0.311163 0.117874 0.184687
H24   H     H_    0.225586 0.692946 0.880920 0.186190
H25   H     H_    0.774664 0.311260 0.031825 0.149090
H26   H     H_    0.231774 0.692076 0.967173 0.166494
H27   H     H_    0.640492 0.842358 0.517503 0.149242
H28   H     H_    0.362034 0.148545 0.508905 0.150126
N1    N     N_R   0.001983 0.493055 0.799237 -0.465754
N2    N     N_R   0.000091 0.509357 0.200722 -0.466709
N3    N     N_R   0.795430 0.560780 0.467350 -0.204352
N4    N     N_R   0.204570 0.439220 0.532650 -0.203898
O1    O     O_R   0.977900 0.338120 0.517190 -0.596151
O2    O     O_R   0.022100 0.661880 0.482810 -0.597359
O3    O     O_R   0.839850 0.379180 0.495160 -0.581623
O4    O     O_R   0.160150 0.620820 0.504840 -0.580518
O5    O     O_R   0.069030 0.479490 0.580750 -0.593916
O6    O     O_R   0.930970 0.520510 0.419250 -0.593562
O7    O     O_R   0.930970 0.520550 0.558720 -0.581460
O8    O     O_R   0.069030 0.479450 0.441280 -0.581325
O9    O     O_2   0.856374 0.345160 0.797923 -0.553775
O10   O     O_2   0.147864 0.654952 0.203157 -0.552783
O11   O     O_2   0.850153 0.363606 0.201149 -0.543315
O12   O     O_2   0.150397 0.640417 0.797802 -0.541990
N5    N     N_3   0.118011 0.292002 0.592530 -0.606621
H29   H     H_    0.083633 0.327439 0.606055 0.256590
H30   H     H_    0.069588 0.244946 0.566869 0.230870
N6    N     N_3   0.882591 0.708944 0.408099 -0.606626
H31   H     H_    0.917622 0.673752 0.394839 0.256604
H32   H     H_    0.930446 0.755782 0.434007 0.231718
C75   C     C_3   0.701840 0.737453 0.364551 -0.857233
H33   H     H_    0.769813 0.769017 0.345844 0.261445
H34   H     H_    0.637113 0.702683 0.336163 0.229062
H35   H     H_    0.693857 0.801785 0.375011 0.232070
C76   C     C_3   0.298384 0.262581 0.635435 -0.857514
H36   H     H_    0.230842 0.231588 0.654430 0.261957
H37   H     H_    0.305575 0.197842 0.624945 0.230732
H38   H     H_    0.363638 0.297282 0.663609 0.229718
C77   C     C_3   0.790524 0.230516 0.883406 -0.708859
H39   H     H_    0.746700 0.169040 0.910812 0.217696
H40   H     H_    0.733590 0.250452 0.854252 0.246468
H41   H     H_    0.830773 0.198112 0.867540 0.250776
C78   C     C_3   0.210436 0.773153 0.117852 -0.756039
H42   H     H_    0.251857 0.837972 0.091114 0.196861
H43   H     H_    0.167143 0.801056 0.134381 0.253988
H44   H     H_    0.269236 0.755683 0.146635 0.262413
N7    N     N_3   0.840981 0.226020 0.988829 -0.598767
H45   H     H_    0.764368 0.200670 0.991081 0.209223
H46   H     H_    0.884310 0.227446 0.024319 0.239464
N8    N     N_3   0.176460 0.771567 0.011067 -0.605479
H47   H     H_    0.147176 0.822904 0.014507 0.237605
H48   H     H_    0.254910 0.801334 0.020595 0.213272

loop_
_geom_bond_atom_site_label_1
_geom_bond_atom_site_label_2
_ccdc_geom_bond_type
C77   H41   S    
C66   C68   A    
C24   O6    A    
C70   H2    S    
C8    C26   A    
C14   C18   A    
C69   H1    S    
C48   C56   A    
C76   H38   S    
C44   H28   S    
C77   H39   S    
C49   N3    A    
C27   C33   A    
C38   C44   A    
C32   H5    S    
C12   C68   A    
C2    O4    A    
Cu1   O4    S    
C64   O11   S    
C8    C78   S    
C66   H21   S    
N6    H32   S    
C35   C37   A    
C65   H22   S    
C29   H7    S    
C51   H14   S    
C21   H23   S    
C78   H44   S    
C9    C22   A    
C20   H26   S    
N7    H45   S    
C66   C74   A    
N7    H46   S    
Cu2   O7    S    
C65   C73   A    
C46   O10   S    
C3    C18   A    
C60   C62   A    
C11   C23   S    
C69   C71   A    
C61   H11   S    
C1    O1    A    
C45   N1    A    
C65   C67   A    
Cu2   O6    S    
C48   C76   S    
Cu1   O5    S    
C63   N1    A    
C72   H18   S    
C52   C54   A    
C53   C55   A    
C28   C34   A    
Cu1   N4    S    
C50   N4    A    
C41   C43   A    
C52   H13   S    
C25   N7    S    
C50   N5    S    
C42   C44   A    
C11   C67   A    
C39   C42   A    
N8    H48   S    
C60   H16   S    
C10   C21   A    
C54   C56   A    
C59   C61   A    
C68   H19   S    
C22   H24   S    
C13   C19   A    
C27   C31   A    
C14   C20   A    
C28   C32   A    
C72   C74   A    
C39   C40   A    
C5    C7    A    
C53   C57   A    
C15   C26   A    
C6    C8    A    
C26   N8    S    
C58   C59   A    
C49   N6    S    
C5    C45   A    
C51   C53   A    
C37   C43   A    
C35   C39   A    
Cu1   Cu2   S    
C75   H34   S    
C7    C77   S    
C3    C9    A    
C34   H3    S    
C23   O5    A    
C73   N1    S    
C36   C40   A    
C16   C18   A    
C59   H15   S    
C78   H43   S    
C64   N2    A    
C31   H6    S    
N5    H29   S    
C42   H10   S    
C4    C17   A    
C4    C6    A    
C40   C41   A    
C20   C22   A    
C24   O8    A    
Cu2   N3    S    
C67   H20   S    
C29   C37   A    
C56   C62   A    
C4    C10   A    
C76   H36   S    
C3    C5    A    
C47   C55   A    
N8    H47   S    
C54   C58   A    
C45   O9    S    
C16   C25   A    
C77   H40   S    
C12   C70   A    
C2    O2    A    
C6    C46   A    
C19   C21   A    
C9    C63   A    
C10   C64   A    
C76   H37   S    
C70   C72   A    
C78   H42   S    
C11   C69   A    
C33   H4    S    
C47   C75   S    
C71   H17   S    
C47   C49   A    
C41   H9    S    
C12   C24   S    
C7    C25   A    
Cu2   O2    S    
C13   C17   A    
C36   C38   A    
C75   H35   S    
C29   C31   A    
C1    O3    A    
C30   C32   A    
C63   O12   S    
C19   H25   S    
C57   C58   A    
C62   H12   S    
Cu2   O3    S    
C55   C61   A    
C48   C50   A    
C33   C35   A    
Cu1   O1    S    
C34   C36   A    
C74   N2    S    
C30   H8    S    
C43   H27   S    
N5    H30   S    
C46   N2    A    
C23   O7    A    
C57   C60   A    
C52   N4    A    
C51   N3    A    
C13   C16   A    
C71   C73   A    
C1    C27   S    
C14   C15   A    
C2    C28   S    
Cu1   O8    S    
C30   C38   A    
C15   C17   A    
C75   H33   S    
N6    H31   S    
