data_mof_unit_63208.cif
_audit_creation_date              2012-12-10T17:44:03-0500
_audit_creation_method            fapswitch 2.2
_symmetry_space_group_name_H-M    P1
_symmetry_Int_Tables_number       1
_space_group_crystal_system       monoclinic
_cell_length_a                    36.915419
_cell_length_b                    30.410435
_cell_length_c                    21.399535
_cell_angle_alpha                 90.0
_cell_angle_beta                  55.26275
_cell_angle_gamma                 90.0
_cell_volume                      19741.8132854

loop_
_atom_site_label
_atom_site_type_symbol
_atom_type_description
_atom_site_fract_x
_atom_site_fract_y
_atom_site_fract_z
_atom_type_partial_charge
C1    C     C_R   0.914835 0.500079 0.083143 0.859660
C2    C     C_R   0.085165 0.500079 0.916857 0.859660
C3    C     C_R   0.414859 0.000056 0.082962 0.859030
C4    C     C_R   0.585141 0.000056 0.917037 0.859030
C5    C     C_3   0.037424 0.482766 0.192720 -0.141944
C6    C     C_3   0.962576 0.482766 0.807280 -0.141944
C7    C     C_3   0.537442 0.982811 0.192700 -0.142277
C8    C     C_3   0.462558 0.982811 0.807300 -0.142275
C9    C     C_3   0.033435 0.524488 0.237859 -0.168714
C10   C     C_3   0.966565 0.524488 0.762141 -0.168715
C11   C     C_3   0.533407 0.024530 0.237884 -0.167703
C12   C     C_3   0.466593 0.024529 0.762116 -0.167704
C13   C     C_3   0.995594 0.541971 0.233224 -0.237667
C14   C     C_3   0.004406 0.541971 0.766776 -0.237667
C15   C     C_3   0.495547 0.041970 0.233268 -0.236849
C16   C     C_3   0.504453 0.041970 0.766732 -0.236850
C17   C     C_3   0.999594 0.500212 0.189096 -0.126857
C18   C     C_3   0.000406 0.500212 0.810904 -0.126856
C19   C     C_3   0.499593 0.000214 0.189097 -0.126738
C20   C     C_3   0.500407 0.000214 0.810903 -0.126738
C21   C     C_R   0.795250 0.531850 0.172447 -0.131740
C22   C     C_R   0.204750 0.531850 0.827553 -0.131739
C23   C     C_R   0.295287 0.031230 0.171195 -0.141254
C24   C     C_R   0.704713 0.031230 0.828804 -0.141252
C25   C     C_R   0.841271 0.532421 0.122415 0.409304
C26   C     C_R   0.158729 0.532421 0.877585 0.409304
C27   C     C_R   0.341321 0.032224 0.121799 0.411833
C28   C     C_R   0.658679 0.032224 0.878201 0.411833
C29   C     C_R   0.866240 0.500105 0.130250 -0.157012
C30   C     C_R   0.133759 0.500105 0.869750 -0.157011
C31   C     C_R   0.366306 0.999884 0.129531 -0.156188
C32   C     C_R   0.633694 0.999884 0.870469 -0.156188
C33   C     C_R   0.844142 0.466942 0.185370 -0.185202
C34   C     C_R   0.155858 0.466942 0.814630 -0.185202
C35   C     C_R   0.344260 0.966218 0.183661 -0.183300
C36   C     C_R   0.655740 0.966218 0.816339 -0.183300
C37   C     C_R   0.798287 0.466415 0.233731 -0.089199
C38   C     C_R   0.201713 0.466415 0.766269 -0.089199
C39   C     C_R   0.298418 0.965246 0.231283 -0.081595
C40   C     C_R   0.701582 0.965245 0.768717 -0.081598
C41   C     C_R   0.773857 0.499347 0.228258 0.075096
C42   C     C_R   0.226142 0.499347 0.771742 0.075096
C43   C     C_R   0.273978 0.998246 0.226069 0.073490
C44   C     C_R   0.726022 0.998246 0.773930 0.073491
C45   C     C_R   0.999884 0.500038 0.120488 0.873263
C46   C     C_R   0.000116 0.500038 0.879512 0.873264
C47   C     C_R   0.499884 0.000038 0.120487 0.873128
C48   C     C_R   0.500116 0.000038 0.879513 0.873129
C49   C     C_R   0.702967 0.530813 0.340478 0.371607
C50   C     C_R   0.297033 0.530813 0.659522 0.371608
C51   C     C_R   0.203703 0.026705 0.343032 0.370349
C52   C     C_R   0.796297 0.026705 0.656969 0.370348
C53   C     C_R   0.656409 0.532247 0.383447 0.313931
C54   C     C_R   0.343591 0.532247 0.616553 0.313931
C55   C     C_R   0.157147 0.028406 0.387168 0.302375
C56   C     C_R   0.842853 0.028407 0.612833 0.302374
C57   C     C_R   0.633303 0.501814 0.368614 -0.152515
C58   C     C_R   0.366697 0.501814 0.631386 -0.152515
C59   C     C_R   0.133490 0.001389 0.368402 -0.167741
C60   C     C_R   0.866510 0.001389 0.631598 -0.167740
C61   C     C_R   0.656385 0.471300 0.309749 -0.217922
C62   C     C_R   0.343615 0.471300 0.690251 -0.217921
C63   C     C_R   0.156221 0.973939 0.304757 -0.216891
C64   C     C_R   0.843778 0.973937 0.695241 -0.216891
C65   C     C_R   0.702134 0.470391 0.266027 -0.191061
C66   C     C_R   0.297866 0.470391 0.733973 -0.191062
C67   C     C_R   0.201966 0.972707 0.260248 -0.194681
C68   C     C_R   0.798034 0.972705 0.739750 -0.194680
C69   C     C_R   0.725645 0.499883 0.280442 -0.082234
C70   C     C_R   0.274355 0.499882 0.719557 -0.082234
C71   C     C_R   0.225875 0.998829 0.278517 -0.083072
C72   C     C_R   0.774125 0.998829 0.721482 -0.083071
C73   C     C_R   0.000000 0.366618 0.500000 -0.167126
C74   C     C_R   0.500000 0.866481 0.500000 -0.166763
C75   C     C_R   0.000000 0.274527 0.500000 -0.069783
C76   C     C_R   0.500000 0.774030 0.500000 -0.070038
C77   C     C_R   0.500000 0.274077 0.500000 0.139562
C78   C     C_R   1.000000 0.774078 0.500000 0.139344
C79   C     C_R   0.000000 0.584971 0.500000 0.882089
C80   C     C_R   0.500000 0.084970 0.500000 0.882250
C81   C     C_R   0.039894 0.343428 0.457342 -0.203067
C82   C     C_R   0.960105 0.343428 0.542658 -0.203066
C83   C     C_R   0.462331 0.843266 0.518312 -0.201992
C84   C     C_R   0.537669 0.843266 0.481688 -0.201993
C85   C     C_R   0.999732 0.500304 0.379797 0.840187
C86   C     C_R   0.000268 0.500304 0.620203 0.840188
C87   C     C_R   0.499731 0.000305 0.379797 0.839833
C88   C     C_R   0.500269 0.000305 0.620203 0.839834
C89   C     C_R   0.000000 0.414863 0.500000 0.814094
C90   C     C_R   0.500000 0.914819 0.500000 0.809935
C91   C     C_R   0.500000 0.633278 0.500000 -0.199049
C92   C     C_R   0.000000 0.133994 0.500000 -0.238554
C93   C     C_R   0.500000 0.584986 0.500000 0.928102
C94   C     C_R   0.000000 0.085246 0.500000 0.888430
C95   C     C_R   0.584998 0.500768 0.415409 0.857787
C96   C     C_R   0.415002 0.500768 0.584591 0.857788
C97   C     C_R   0.085062 0.000790 0.415371 0.842135
C98   C     C_R   0.914938 0.000790 0.584628 0.842137
C99   C     C_R   0.529313 0.656686 0.432190 0.347355
C100  C     C_R   0.470687 0.656686 0.567810 0.347355
C101  C     C_R   0.015431 0.157893 0.537623 0.354429
C102  C     C_R   0.984570 0.157894 0.462377 0.354430
C103  C     C_R   0.500000 0.414892 0.500000 0.752321
C104  C     C_R   0.000000 0.914892 0.500000 0.756758
C105  C     C_R   0.025662 0.702365 0.518103 -0.178896
C106  C     C_R   0.974338 0.702365 0.481897 -0.178896
C107  C     C_R   0.525629 0.202363 0.518175 -0.179251
C108  C     C_R   0.474371 0.202363 0.481825 -0.179251
C109  C     C_R   0.025810 0.656517 0.518242 0.334822
C110  C     C_R   0.974190 0.656517 0.481758 0.334823
C111  C     C_R   0.525776 0.156514 0.518315 0.334664
C112  C     C_R   0.474224 0.156514 0.481685 0.334665
C113  C     C_R   1.000000 0.633177 0.500000 -0.209145
C114  C     C_R   0.500000 0.133176 0.500000 -0.209077
C115  C     C_R   0.528861 0.702553 0.432565 -0.084691
C116  C     C_R   0.471138 0.702553 0.567435 -0.084690
C117  C     C_R   0.015146 0.203667 0.537288 -0.095213
C118  C     C_R   0.984855 0.203667 0.462712 -0.095214
C119  C     C_R   1.000000 0.725591 0.500000 -0.040737
C120  C     C_R   0.500000 0.225589 0.500000 -0.040628
C121  C     C_R   0.502061 0.297361 0.441427 -0.141583
C122  C     C_R   0.497939 0.297361 0.558573 -0.141583
C123  C     C_R   0.002023 0.797362 0.441461 -0.140903
C124  C     C_R   0.997977 0.797362 0.558539 -0.140903
C125  C     C_R   0.502038 0.343176 0.441431 -0.167675
C126  C     C_R   0.497962 0.343176 0.558569 -0.167676
C127  C     C_R   0.002000 0.843176 0.441465 -0.166532
C128  C     C_R   0.998000 0.843176 0.558535 -0.166533
C129  C     C_R   0.500000 0.366503 0.500000 -0.033720
C130  C     C_R   1.000000 0.866503 0.500000 -0.035034
C131  C     C_R   0.500000 0.725610 0.500000 0.031064
C132  C     C_R   0.000000 0.226451 0.500000 0.033406
C133  C     C_R   0.040091 0.297646 0.457084 0.368966
C134  C     C_R   0.959909 0.297646 0.542916 0.368966
C135  C     C_R   0.462219 0.797390 0.517836 0.366326
C136  C     C_R   0.537781 0.797390 0.482164 0.366327
C137  C     C_3   0.965610 0.476464 0.263008 0.365817
C138  C     C_3   0.034390 0.476464 0.736992 0.365818
C139  C     C_3   0.465635 0.976429 0.262984 0.365881
C140  C     C_3   0.534365 0.976429 0.737016 0.365881
C141  C     C_3   0.961628 0.517736 0.307664 0.405860
C142  C     C_3   0.038372 0.517736 0.692336 0.405860
C143  C     C_3   0.461608 0.017697 0.307684 0.405464
C144  C     C_3   0.538392 0.017697 0.692316 0.405465
C145  C     C_3   0.999110 0.500461 0.312007 -0.130980
C146  C     C_3   0.000890 0.500461 0.687993 -0.130980
C147  C     C_3   0.499109 0.000464 0.312007 -0.131420
C148  C     C_3   0.500891 0.000464 0.687993 -0.131420
C149  C     C_3   0.003105 0.458705 0.267880 -0.245630
C150  C     C_3   0.996895 0.458705 0.732120 -0.245631
C151  C     C_3   0.503150 0.958712 0.267835 -0.246186
C152  C     C_3   0.496850 0.958712 0.732165 -0.246187
Cu1   Cu    Cu3+1 0.000000 0.455950 0.000000 1.062244
Cu2   Cu    Cu3+1 0.500000 0.955950 0.000000 1.061998
Cu3   Cu    Cu3+1 0.000000 0.544060 0.000000 1.142347
Cu4   Cu    Cu3+1 0.500000 0.044060 0.000000 1.142170
Cu5   Cu    Cu3+1 0.044060 0.499960 0.455930 1.093481
Cu6   Cu    Cu3+1 0.955940 0.499960 0.544070 1.093481
Cu7   Cu    Cu3+1 0.544060 0.999960 0.455930 1.093205
Cu8   Cu    Cu3+1 0.455940 0.999960 0.544070 1.093205
Cu9   Cu    Cu3+1 0.500010 0.500000 0.562750 1.093323
Cu10  Cu    Cu3+1 0.499990 0.500000 0.437250 1.093323
Cu11  Cu    Cu3+1 0.000010 1.000000 0.562750 1.095574
Cu12  Cu    Cu3+1 0.999990 0.000000 0.437250 1.095572
H1    H     H_    0.781854 0.440924 0.276481 0.169400
H2    H     H_    0.218146 0.440924 0.723518 0.169400
H3    H     H_    0.282001 0.939465 0.273471 0.169297
H4    H     H_    0.717998 0.939464 0.726529 0.169297
H5    H     H_    0.638879 0.447894 0.297940 0.173527
H6    H     H_    0.361121 0.447894 0.702060 0.173527
H7    H     H_    0.138457 0.953116 0.289750 0.178295
H8    H     H_    0.861543 0.953113 0.710247 0.178293
H9    H     H_    0.719427 0.446853 0.219958 0.178921
H10   H     H_    0.280573 0.446853 0.780042 0.178921
H11   H     H_    0.218941 0.951550 0.210667 0.179339
H12   H     H_    0.781059 0.951548 0.789329 0.179339
H13   H     H_    0.071008 0.360779 0.423818 0.208941
H14   H     H_    0.928992 0.360779 0.576182 0.208941
H15   H     H_    0.433136 0.860762 0.531777 0.208209
H16   H     H_    0.566864 0.860762 0.468223 0.208209
H17   H     H_    0.551308 0.720347 0.380294 0.199196
H18   H     H_    0.448692 0.720347 0.619706 0.199196
H19   H     H_    0.026961 0.221707 0.566029 0.198107
H20   H     H_    0.973039 0.221707 0.433971 0.198107
H21   H     H_    0.045903 0.719880 0.531673 0.184264
H22   H     H_    0.954097 0.719880 0.468327 0.184264
H23   H     H_    0.545844 0.219876 0.531802 0.184059
H24   H     H_    0.454156 0.219876 0.468198 0.184059
H25   H     H_    0.504242 0.280122 0.395105 0.150894
H26   H     H_    0.495757 0.280122 0.604895 0.150894
H27   H     H_    0.004175 0.780122 0.395166 0.151016
H28   H     H_    0.995825 0.780122 0.604834 0.151016
H29   H     H_    0.503802 0.360266 0.395374 0.169885
H30   H     H_    0.496198 0.360266 0.604626 0.169885
H31   H     H_    0.003734 0.860267 0.395435 0.170034
H32   H     H_    0.996266 0.860267 0.604565 0.170034
H33   H     H_    0.005931 0.424645 0.283334 0.182431
H34   H     H_    0.994069 0.424644 0.716666 0.182431
H35   H     H_    0.506010 0.924655 0.283257 0.182678
H36   H     H_    0.493990 0.924655 0.716743 0.182679
H37   H     H_    0.068639 0.468523 0.144059 0.187309
H38   H     H_    0.931361 0.468523 0.855941 0.187309
H39   H     H_    0.568674 0.968607 0.144018 0.186212
H40   H     H_    0.431326 0.968606 0.855982 0.186212
H41   H     H_    0.061409 0.544272 0.228475 0.188877
H42   H     H_    0.938591 0.544272 0.771525 0.188876
H43   H     H_    0.561359 0.044345 0.228520 0.188489
H44   H     H_    0.438641 0.044345 0.771480 0.188489
H45   H     H_    0.992410 0.576087 0.218451 0.204008
H46   H     H_    0.007590 0.576087 0.781549 0.204008
H47   H     H_    0.492324 0.076082 0.218531 0.203706
H48   H     H_    0.507676 0.076082 0.781469 0.203706
H49   H     H_    0.775710 0.556641 0.168121 0.197188
H50   H     H_    0.224290 0.556641 0.831879 0.197188
H51   H     H_    0.275689 0.056128 0.167253 0.193689
H52   H     H_    0.724311 0.056128 0.832746 0.193689
H53   H     H_    0.862469 0.441783 0.192054 0.205843
H54   H     H_    0.137531 0.441782 0.807946 0.205843
H55   H     H_    0.362604 0.941007 0.190196 0.205258
H56   H     H_    0.637396 0.941007 0.809804 0.205257
O1    O     O_R   0.935730 0.462810 0.064280 -0.594375
O2    O     O_R   0.064270 0.462810 0.935720 -0.594376
O3    O     O_R   0.435730 0.962810 0.064280 -0.595104
O4    O     O_R   0.564270 0.962810 0.935720 -0.595105
O5    O     O_R   0.564280 0.500000 0.488710 -0.552019
O6    O     O_R   0.435720 0.500000 0.511290 -0.552019
O7    O     O_R   0.064280 1.000000 0.488710 -0.532682
O8    O     O_R   0.935720 0.000000 0.511290 -0.532683
O9    O     O_R   0.564280 0.499990 0.382710 -0.569580
O10   O     O_R   0.435720 0.499990 0.617290 -0.569581
O11   O     O_R   0.064280 0.999990 0.382710 -0.588723
O12   O     O_R   0.935720 0.999990 0.617290 -0.588723
O13   O     O_R   0.500000 0.435720 0.553010 -0.595937
O14   O     O_R   0.500000 0.435720 0.446990 -0.595936
O15   O     O_R   0.000000 0.935720 0.553010 -0.593761
O16   O     O_R   0.000000 0.935720 0.446990 -0.593761
O17   O     O_R   0.935740 0.537210 0.064260 -0.517539
O18   O     O_R   0.064260 0.537210 0.935740 -0.517539
O19   O     O_R   0.435740 0.037210 0.064260 -0.516860
O20   O     O_R   0.564260 0.037210 0.935740 -0.516861
O21   O     O_R   0.000010 0.462810 0.091570 -0.568874
O22   O     O_R   0.999990 0.462810 0.908430 -0.568875
O23   O     O_R   0.500010 0.962810 0.091570 -0.569004
O24   O     O_R   0.499990 0.962810 0.908430 -0.569005
O25   O     O_R   0.000020 0.537210 0.091550 -0.572343
O26   O     O_R   0.999980 0.537210 0.908450 -0.572343
O27   O     O_R   0.500020 0.037210 0.091550 -0.572201
O28   O     O_R   0.499980 0.037210 0.908450 -0.572201
O29   O     O_R   0.037200 0.564240 0.462790 -0.544370
O30   O     O_R   0.962800 0.564240 0.537210 -0.544369
O31   O     O_R   0.537200 0.064240 0.462790 -0.544498
O32   O     O_R   0.462800 0.064240 0.537210 -0.544497
O33   O     O_R   0.037200 0.499960 0.371220 -0.595104
O34   O     O_R   0.962800 0.499960 0.628780 -0.595104
O35   O     O_R   0.537200 0.999960 0.371220 -0.594479
O36   O     O_R   0.462800 0.999960 0.628780 -0.594479
O37   O     O_R   0.962800 0.499940 0.445620 -0.530114
O38   O     O_R   0.037200 0.499940 0.554380 -0.530115
O39   O     O_R   0.462800 0.999940 0.445620 -0.531128
O40   O     O_R   0.537200 0.999940 0.554380 -0.531129
O41   O     O_R   0.037210 0.435680 0.462780 -0.588045
O42   O     O_R   0.962790 0.435680 0.537220 -0.588044
O43   O     O_R   0.537210 0.935680 0.462780 -0.585722
O44   O     O_R   0.462790 0.935680 0.537220 -0.585721
O45   O     O_R   0.500030 0.564270 0.552970 -0.531467
O46   O     O_R   0.499970 0.564270 0.447030 -0.531466
O47   O     O_R   0.000030 0.064270 0.552970 -0.525020
O48   O     O_R   0.999970 0.064270 0.447030 -0.525020
Cl1   Cl    Cl    0.910849 0.540962 0.383279 -0.410060
Cl2   Cl    Cl    0.089151 0.540962 0.616721 -0.410060
Cl3   Cl    Cl    0.410803 0.040869 0.383323 -0.409727
Cl4   Cl    Cl    0.589196 0.040869 0.616677 -0.409727
S1    S     S_3+6 0.731823 0.568009 0.361991 0.091505
O49   O     O_2   0.778226 0.553200 0.329093 -0.251675
O50   O     O_2   0.732915 0.612376 0.330017 -0.209009
O51   O     O_3   0.705371 0.572247 0.456817 -0.442601
H57   H     H_    0.720381 0.596561 0.464335 0.399717
S2    S     S_3+6 0.268177 0.568008 0.638009 0.091504
O52   O     O_2   0.221774 0.553199 0.670907 -0.251675
O53   O     O_2   0.267084 0.612376 0.669983 -0.209010
O54   O     O_3   0.294629 0.572247 0.543183 -0.442601
H58   H     H_    0.279619 0.596561 0.535665 0.399717
S3    S     S_3+6 0.232986 0.060252 0.368739 0.092241
O55   O     O_2   0.280476 0.047041 0.328748 -0.251233
O56   O     O_2   0.230763 0.107157 0.349011 -0.209052
O57   O     O_3   0.208911 0.056461 0.463013 -0.442173
H59   H     H_    0.223340 0.079395 0.474564 0.400801
S4    S     S_3+6 0.767014 0.060255 0.631264 0.092240
O58   O     O_2   0.719524 0.047041 0.671250 -0.251232
O59   O     O_2   0.769233 0.107158 0.650999 -0.209057
O60   O     O_3   0.791091 0.056468 0.536988 -0.442168
H60   H     H_    0.776662 0.079402 0.525439 0.400800
Cl5   Cl    Cl    0.626750 0.574231 0.451691 -0.434547
Cl6   Cl    Cl    0.373250 0.574231 0.548309 -0.434547
Cl7   Cl    Cl    0.128433 0.066878 0.462247 -0.403012
Cl8   Cl    Cl    0.871567 0.066880 0.537757 -0.403014
Cl9   Cl    Cl    0.568615 0.629948 0.346241 -0.496306
Cl10  Cl    Cl    0.431385 0.629948 0.653759 -0.496306
Cl11  Cl    Cl    0.036895 0.133160 0.584578 -0.440817
Cl12  Cl    Cl    0.963105 0.133160 0.415421 -0.440817
Cl13  Cl    Cl    0.057434 0.629624 0.544669 -0.507751
Cl14  Cl    Cl    0.942565 0.629624 0.455331 -0.507751
Cl15  Cl    Cl    0.557356 0.129617 0.544832 -0.508445
Cl16  Cl    Cl    0.442644 0.129616 0.455168 -0.508445
Cl17  Cl    Cl    0.920550 0.444745 0.278626 -0.525952
Cl18  Cl    Cl    0.079451 0.444745 0.721373 -0.525952
Cl19  Cl    Cl    0.420607 0.944661 0.278577 -0.520826
Cl20  Cl    Cl    0.579393 0.944661 0.721422 -0.520826
Cl21  Cl    Cl    0.091113 0.270256 0.400922 -0.514864
Cl22  Cl    Cl    0.908887 0.270256 0.599078 -0.514864
Cl23  Cl    Cl    0.414603 0.770357 0.537225 -0.502351
Cl24  Cl    Cl    0.585397 0.770357 0.462775 -0.502350
S5    S     S_3+6 0.865574 0.572323 0.048932 0.038601
O61   O     O_2   0.831303 0.592546 0.040780 -0.257825
O62   O     O_2   0.886163 0.607814 0.067905 -0.226088
O63   O     O_3   0.904471 0.548457 0.966212 -0.574447
H61   H     H_    0.917397 0.572752 0.928712 0.377212
S6    S     S_3+6 0.134425 0.572323 0.951068 0.038602
O64   O     O_2   0.168696 0.592546 0.959220 -0.257825
O65   O     O_2   0.113837 0.607814 0.932095 -0.226088
O66   O     O_3   0.095529 0.548457 0.033788 -0.574447
H62   H     H_    0.082603 0.572752 0.071288 0.377212
S7    S     S_3+6 0.365634 0.072685 0.049240 0.036394
O67   O     O_2   0.331435 0.093146 0.041131 -0.261798
O68   O     O_2   0.385930 0.107901 0.069301 -0.226715
O69   O     O_3   0.404791 0.049378 0.966120 -0.573802
H63   H     H_    0.417680 0.073937 0.929146 0.377450
S8    S     S_3+6 0.634366 0.072686 0.950759 0.036395
O70   O     O_2   0.668565 0.093146 0.958868 -0.261798
O71   O     O_2   0.614070 0.107901 0.930698 -0.226714
O72   O     O_3   0.595209 0.049379 0.033879 -0.573802
H64   H     H_    0.582321 0.073937 0.070853 0.377451

loop_
_geom_bond_atom_site_label_1
_geom_bond_atom_site_label_2
_ccdc_geom_bond_type
Cu5   O41   S    
Cu5   Cu6   S    
C55   C59   A    
C142  C146  S    
O60   H60   S    
C74   C83   A    
C137  C149  S    
C47   O27   A    
C68   H12   S    
C23   H51   S    
C16   C20   S    
C16   C144  S    
C60   C98   S    
C76   C131  S    
C29   C33   A    
S1    O51   S    
C5    C149  S    
C152  H36   S    
C1    O1    A    
C84   H16   S    
C117  C132  A    
C108  C120  A    
C7    H39   S    
C77   C122  A    
C146  C150  S    
C11   C15   S    
C104  O15   A    
C12   C16   S    
C80   O31   A    
O69   H63   S    
C91   C100  A    
C140  C152  S    
C98   O8    A    
C22   H50   S    
C92   C102  A    
C136  Cl24  S    
C49   S1    S    
C49   C69   A    
C51   C71   A    
Cu11  O7    S    
C73   C81   A    
C28   S8    S    
Cu4   O20   S    
C25   C29   A    
C62   H6    S    
C27   C31   A    
S7    O67   D    
S4    O60   S    
C140  C144  S    
C28   C32   A    
C106  H22   S    
C87   O39   A    
C62   C66   A    
C93   O46   A    
C126  C129  A    
C35   H55   S    
O63   H61   S    
C96   O6    A    
C82   C134  A    
C142  Cl2   S    
C52   C72   A    
C127  H31   S    
C125  H29   S    
C68   C72   A    
C82   H14   S    
C92   C94   S    
C88   C148  S    
C3    C31   S    
C4    C32   S    
C134  Cl22  S    
C98   O12   A    
C103  O14   A    
C7    C19   S    
C61   H5    S    
C107  C120  A    
C41   C69   S    
Cu2   O23   S    
C43   C71   S    
S6    O66   S    
C108  H24   S    
S5    O63   S    
Cu4   O27   S    
Cu5   O29   S    
C57   C61   A    
C33   H53   S    
Cu6   O37   S    
C59   C63   A    
C60   C64   A    
C74   C90   S    
C50   C70   A    
Cu7   O31   S    
Cu1   O2    S    
C48   O28   A    
C20   C140  S    
C66   C70   A    
C49   C53   A    
C112  Cl16  S    
C44   C72   S    
C51   C55   A    
Cu10  O9    S    
C61   C65   A    
C5    C17   S    
C19   C139  S    
O66   H62   S    
C66   H10   S    
C17   C137  S    
C85   O37   A    
C47   O23   A    
C14   C142  S    
Cu1   O21   S    
C112  C114  A    
C75   C134  A    
C23   C43   A    
C121  C125  A    
C94   O47   A    
C143  Cl3   S    
C32   C36   A    
C144  Cl4   S    
C85   C145  S    
C101  Cl11  S    
C121  H25   S    
C19   C47   S    
S5    O62   D    
C42   C70   S    
S6    O65   D    
C139  C143  S    
Cu3   O18   S    
Cu9   O45   S    
Cu6   O42   S    
C116  H18   S    
C22   C42   A    
C90   O44   A    
C55   Cl7   S    
C56   Cl8   S    
C26   S6    S    
S3    O57   S    
C11   H43   S    
Cu10  O6    S    
C76   C135  A    
C7    C11   S    
Cu3   O25   S    
Cu4   O19   S    
C30   C34   A    
C13   H45   S    
C46   O26   A    
Cu11  O12   S    
C10   C14   S    
C77   C121  A    
C37   H1    S    
C1    O17   A    
Cu8   O39   S    
S7    O68   D    
S4    O59   D    
C147  C151  S    
Cu6   O34   S    
C5    C9    S    
C99   Cl9   S    
C125  C129  A    
C123  C127  A    
C8    C12   S    
Cu9   O13   S    
C78   C123  A    
C54   Cl6   S    
C15   C143  S    
C140  Cl20  S    
C10   C146  S    
C26   C30   A    
C141  Cl1   S    
C79   C113  S    
C79   O30   A    
C21   H49   S    
C137  Cl17  S    
C75   C132  S    
C21   C25   A    
C3    O3    A    
C107  C111  A    
C24   C28   A    
C74   C84   A    
S8    O70   D    
C8    C152  S    
C52   S4    S    
C81   C133  A    
C135  Cl23  S    
C86   O34   A    
C50   S2    S    
C83   H15   S    
C2    C30   S    
Cu6   O30   S    
C10   H42   S    
C81   H13   S    
C24   H52   S    
C139  C151  S    
S1    O50   D    
S2    O53   D    
C37   C41   A    
C118  C132  A    
C138  Cl18  S    
C104  O16   A    
O51   H57   S    
Cu7   O43   S    
C80   O32   A    
S3    O55   D    
Cu8   O44   S    
S2    O52   D    
C91   C99   A    
C95   O5    A    
C58   C62   A    
C106  C119  A    
Cu12  O16   S    
C100  C116  A    
Cu7   O35   S    
C48   O24   A    
C77   C120  S    
Cu9   Cu10  S    
C15   C19   S    
Cu12  O48   S    
C50   C54   A    
C87   C147  S    
C99   C115  A    
C93   O45   A    
C86   C146  S    
C2    O2    A    
C9    C13   S    
Cu2   O3    S    
C18   C138  S    
C86   O38   A    
C105  C109  A    
C67   H11   S    
S2    O54   S    
C13   C141  S    
Cu1   Cu3   S    
Cu2   Cu4   S    
C124  C128  A    
C87   O35   A    
C103  O13   A    
C104  C130  S    
S8    O72   S    
C18   C46   S    
C133  Cl21  S    
C122  H26   S    
C109  Cl13  S    
Cu2   O24   S    
C148  C152  S    
C138  C142  S    
C45   O25   A    
C53   C57   A    
Cu10  O46   S    
C33   C37   A    
C108  C112  A    
C64   H8    S    
C35   C39   A    
O72   H64   S    
Cu1   O1    S    
C91   C93   S    
C126  H30   S    
C63   H7    S    
Cu7   Cu8   S    
C8    H40   S    
C4    O20   A    
C103  C129  S    
C20   C48   S    
C92   C101  A    
C7    C151  S    
C97   O7    A    
C34   H54   S    
Cu4   O28   S    
C24   C44   A    
C31   C35   A    
C46   O22   A    
C100  Cl10  S    
C64   C68   A    
C73   C82   A    
C124  H28   S    
C38   H2    S    
C137  C141  S    
C84   C136  A    
Cu11  O47   S    
C95   O9    A    
C17   C45   S    
C128  C130  A    
C6    C10   S    
C75   C133  A    
C38   C42   A    
C13   C17   S    
C94   O48   A    
C101  C117  A    
Cu8   O36   S    
C78   C119  S    
C73   C89   S    
C102  Cl12  S    
C11   C147  S    
S5    O61   D    
C25   S5    S    
C65   C69   A    
C9    C145  S    
C141  C145  S    
C111  C114  A    
C67   C71   A    
C88   O40   A    
Cu9   O10   S    
Cu10  O14   S    
C56   C60   A    
Cu3   O17   S    
C22   C26   A    
C105  C119  A    
C89   O42   A    
C150  H34   S    
C145  C149  S    
C3    O19   A    
Cu7   O40   S    
S3    O56   D    
C14   C18   S    
Cu11  Cu12  S    
C144  C148  S    
C36   H56   S    
C76   C136  A    
C88   O36   A    
C115  C131  A    
C138  C150  S    
C143  C147  S    
C8    C20   S    
Cu12  O11   S    
C12   H44   S    
C6    H38   S    
O57   H59   S    
C139  Cl19  S    
C107  H23   S    
C105  H21   S    
C58   C96   S    
C36   C40   A    
C15   H47   S    
C23   C27   A    
C78   C124  A    
C83   C135  A    
C102  C118  A    
C109  C113  A    
Cu1   O22   S    
C39   H3    S    
C79   O29   A    
C51   S3    S    
C53   Cl5   S    
C115  H17   S    
Cu9   O5    S    
C6    C18   S    
C63   C67   A    
C27   S7    S    
C14   H46   S    
C151  H35   S    
C16   H48   S    
Cu11  O15   S    
S8    O71   D    
C2    O18   A    
C5    H37   S    
C39   C43   A    
O54   H58   S    
C4    O4    A    
C122  C126  A    
S6    O64   D    
Cu5   O33   S    
Cu5   O38   S    
C40   C44   A    
S1    O49   D    
Cu12  O8    S    
C6    C150  S    
C90   O43   A    
C110  C113  A    
C80   C114  S    
C96   O10   A    
Cu8   O32   S    
C110  Cl14  S    
C59   C97   S    
C21   C41   A    
C1    C29   S    
C45   O21   A    
C54   C58   A    
Cu3   O26   S    
C65   H9    S    
C34   C38   A    
C128  H32   S    
C117  H19   S    
C118  H20   S    
C85   O33   A    
S7    O69   S    
S4    O58   D    
C12   C148  S    
C127  C130  A    
C9    H41   S    
C97   O11   A    
C116  C131  A    
C111  Cl15  S    
Cu2   O4    S    
C40   H4    S    
C89   O41   A    
C106  C110  A    
C57   C95   S    
C123  H27   S    
C52   C56   A    
C149  H33   S    
