data_mof_unit_32561.cif
_audit_creation_date              2012-12-10T18:02:49-0500
_audit_creation_method            fapswitch 2.2
_symmetry_space_group_name_H-M    P1
_symmetry_Int_Tables_number       1
_space_group_crystal_system       triclinic
_cell_length_a                    10.82284
_cell_length_b                    9.506428
_cell_length_c                    27.803844
_cell_angle_alpha                 89.730875
_cell_angle_beta                  90.315829
_cell_angle_gamma                 89.962226
_cell_volume                      2860.56587595

loop_
_atom_site_label
_atom_site_type_symbol
_atom_type_description
_atom_site_fract_x
_atom_site_fract_y
_atom_site_fract_z
_atom_type_partial_charge
C1    C     C_R   0.262032 0.500027 0.499961 0.795947
C2    C     C_R   0.737967 0.499973 0.500039 0.795938
C3    C     C_R   0.497736 0.510478 0.101884 -0.052292
C4    C     C_R   0.502269 0.489585 0.898115 -0.052279
C5    C     C_R   0.385459 0.510132 0.127101 -0.098598
C6    C     C_R   0.614552 0.489824 0.872901 -0.098592
C7    C     C_R   0.274585 0.520695 0.101649 -0.214212
C8    C     C_R   0.725418 0.479231 0.898358 -0.214229
C9    C     C_R   0.609487 0.516097 0.128008 0.000919
C10   C     C_R   0.390519 0.484044 0.871987 0.000865
C11   C     C_R   0.498580 0.501715 0.354406 -0.040132
C12   C     C_R   0.501441 0.498287 0.645596 -0.040149
C13   C     C_R   0.386645 0.492973 0.973920 0.064976
C14   C     C_R   0.613346 0.507161 0.026078 0.065018
C15   C     C_R   0.615531 0.492621 0.975077 -0.079090
C16   C     C_R   0.384462 0.507464 0.024924 -0.079100
C17   C     C_R   0.501591 0.493004 0.949278 0.015686
C18   C     C_R   0.498404 0.507088 0.050721 0.015665
C19   C     C_R   0.277948 0.470411 0.946505 -0.183641
C20   C     C_R   0.722036 0.529801 0.053488 -0.183589
C21   C     C_R   0.279363 0.470744 0.896639 -0.181793
C22   C     C_R   0.720631 0.529481 0.103354 -0.181887
C23   C     C_R   0.499638 0.500367 0.407387 0.804090
C24   C     C_R   0.500367 0.499633 0.592613 0.804104
C25   C     C_R   0.273328 0.529238 0.051612 0.400273
C26   C     C_R   0.726668 0.470784 0.948396 0.400296
C27   C     C_R   0.063958 0.372152 0.499961 -0.176480
C28   C     C_R   0.936042 0.627847 0.500038 -0.176483
C29   C     C_R   0.936203 0.372121 0.500018 -0.176364
C30   C     C_R   0.063797 0.627879 0.499982 -0.176366
C31   C     C_R   0.871784 0.499967 0.500043 -0.019068
C32   C     C_R   0.128216 0.500032 0.499956 -0.019070
C33   C     C_R   0.422724 0.074921 0.470160 -0.023843
C34   C     C_R   0.577276 0.925079 0.529840 -0.023896
C35   C     C_R   0.577267 0.074003 0.529843 -0.025497
C36   C     C_R   0.422732 0.925997 0.470158 -0.025503
C37   C     C_R   0.386942 0.506896 0.177622 0.559530
C38   C     C_R   0.613079 0.493018 0.822380 0.559550
C39   C     C_R   0.607017 0.513727 0.178469 0.534814
C40   C     C_R   0.393000 0.486404 0.821527 0.534840
C41   C     C_R   0.488925 0.377239 0.278373 -0.106638
C42   C     C_R   0.496239 0.368421 0.721000 -0.105850
C43   C     C_R   0.490152 0.375252 0.328557 -0.212040
C44   C     C_R   0.495364 0.369986 0.670868 -0.211689
C45   C     C_R   0.505640 0.629948 0.329135 -0.211781
C46   C     C_R   0.508898 0.624827 0.671445 -0.212025
C47   C     C_R   0.504792 0.631516 0.279004 -0.105792
C48   C     C_R   0.510106 0.622849 0.721628 -0.106744
C49   C     C_R   0.496445 0.505302 0.253557 0.363110
C50   C     C_R   0.503590 0.494714 0.746444 0.363297
Cu1   Cu    Cu3+1 0.500000 0.640660 0.500000 0.947673
Cu2   Cu    Cu3+1 0.500000 0.359340 0.500000 0.947703
H1    H     H_    0.512199 0.729031 0.348040 0.157483
H2    H     H_    0.513948 0.725164 0.652955 0.155574
H3    H     H_    0.360857 0.131511 0.446270 0.119044
H4    H     H_    0.639143 0.868489 0.553730 0.119122
H5    H     H_    0.639114 0.129861 0.553736 0.119672
H6    H     H_    0.360885 0.870139 0.446265 0.119742
H7    H     H_    0.510703 0.730723 0.259858 0.133432
H8    H     H_    0.515674 0.720744 0.741272 0.133911
H9    H     H_    0.187711 0.530838 0.120533 0.205714
H10   H     H_    0.812293 0.469032 0.879477 0.205703
H11   H     H_    0.489584 0.270839 0.651966 0.157385
H12   H     H_    0.484315 0.274975 0.347048 0.155459
H13   H     H_    0.491103 0.269157 0.740146 0.133311
H14   H     H_    0.482577 0.279404 0.258728 0.133995
H15   H     H_    0.192724 0.457439 0.877480 0.194100
H16   H     H_    0.807266 0.542850 0.122509 0.194079
H17   H     H_    0.190192 0.446684 0.962419 0.213583
H18   H     H_    0.809774 0.553583 0.037567 0.213570
H19   H     H_    0.112101 0.272210 0.499926 0.149921
H20   H     H_    0.887899 0.727790 0.500073 0.149920
H21   H     H_    0.888185 0.272171 0.500036 0.149963
H22   H     H_    0.111815 0.727829 0.499964 0.149960
N1    N     N_R   0.496790 0.507316 0.202079 -0.470556
N2    N     N_R   0.503236 0.492699 0.797921 -0.470586
N3    N     N_R   0.500000 0.852070 0.500000 -0.157105
N4    N     N_R   0.500000 0.147930 0.500000 -0.157078
O1    O     O_R   0.319640 0.618740 0.500000 -0.587500
O2    O     O_R   0.680360 0.381260 0.500000 -0.587497
O3    O     O_R   0.680360 0.618740 0.500000 -0.588172
O4    O     O_R   0.319640 0.381260 0.500000 -0.588165
O5    O     O_R   0.500020 0.618770 0.430260 -0.584348
O6    O     O_R   0.499980 0.381230 0.569740 -0.584334
O7    O     O_R   0.499980 0.618770 0.569740 -0.583566
O8    O     O_R   0.500020 0.381230 0.430260 -0.583530
O9    O     O_2   0.279671 0.504326 0.202135 -0.531790
O10   O     O_2   0.720355 0.495486 0.797869 -0.531750
O11   O     O_2   0.286278 0.482644 0.796219 -0.529888
O12   O     O_2   0.713743 0.517564 0.203773 -0.529943
O13   O     O_3   0.162395 0.566784 0.030346 -0.595466
C51   C     C_3   0.163304 0.713214 0.021476 0.056757
H23   H     H_    0.240623 0.743280 0.997213 0.151880
H24   H     H_    0.171744 0.772681 0.055785 0.148898
C52   C     C_3   0.042666 0.755378 0.997072 -0.739278
H25   H     H_    0.963898 0.733944 0.021407 0.241884
H26   H     H_    0.044159 0.869475 0.988352 0.189732
H27   H     H_    0.030014 0.695016 0.963284 0.266328
O14   O     O_3   0.837603 0.433311 0.969675 -0.595460
C53   C     C_3   0.836720 0.286906 0.978592 0.056654
H28   H     H_    0.828550 0.227358 0.944291 0.148946
H29   H     H_    0.759259 0.256827 0.002785 0.151824
C54   C     C_3   0.957219 0.244908 0.003136 -0.739056
H30   H     H_    0.969594 0.305372 0.036916 0.266273
H31   H     H_    0.955740 0.130833 0.011889 0.189701
H32   H     H_    0.036147 0.266340 0.978879 0.241966

loop_
_geom_bond_atom_site_label_1
_geom_bond_atom_site_label_2
_ccdc_geom_bond_type
C33   H3    S    
C34   H4    S    
C5    C37   A    
C27   C29   A    
C8    C26   A    
C14   C18   A    
C52   H25   S    
Cu1   O7    S    
C52   H27   S    
C47   C49   A    
C38   N2    A    
C23   O5    A    
C19   C21   A    
C36   H6    S    
C36   N3    A    
C34   N3    A    
C30   H22   S    
C9    C22   A    
C29   H21   S    
C9    C39   A    
C33   C36   A    
C3    C18   A    
C10   C40   A    
C34   C35   A    
C41   C49   A    
Cu2   O6    S    
C7    H9    S    
C23   O8    A    
C42   H13   S    
C6    C38   A    
C11   C43   A    
C39   N1    A    
C40   O11   S    
C24   O7    A    
Cu1   O3    S    
C39   O12   S    
C26   O14   S    
C48   C50   A    
C37   N1    A    
C45   H1    S    
C44   H11   S    
C21   H15   S    
C41   C43   A    
C20   H18   S    
C28   H20   S    
C42   C44   A    
Cu2   O8    S    
Cu2   N4    S    
C53   H29   S    
C43   H12   S    
C48   H8    S    
C45   C47   A    
C10   C21   A    
C46   C48   A    
C25   O13   S    
C13   C19   A    
Cu1   Cu2   S    
C14   C20   A    
C2    O2    A    
C12   C46   A    
O13   C51   S    
C5    C7    A    
C15   C26   A    
C6    C8    A    
C1    O4    A    
C51   C52   S    
C40   N2    A    
C38   O10   S    
C2    C31   S    
C53   C54   S    
Cu1   N3    S    
C3    C9    A    
C50   N2    S    
O14   C53   S    
C46   H2    S    
C51   H24   S    
C54   H31   S    
Cu2   O4    S    
C22   H16   S    
C49   N1    S    
C42   C50   A    
C4    C17   A    
C4    C6    A    
C20   C22   A    
C1    O1    A    
C11   C45   A    
C4    C10   A    
Cu1   O5    S    
C27   H19   S    
C16   C25   A    
C15   C17   A    
C27   C32   A    
C37   O9    S    
C28   C31   A    
C3    C5    A    
C52   H26   S    
C41   H14   S    
C12   C24   S    
C35   N4    A    
C7    C25   A    
C13   C17   A    
C35   H5    S    
C28   C30   A    
C24   O6    A    
C29   C31   A    
C30   C32   A    
C11   C23   S    
C51   H23   S    
C54   H32   S    
C1    C32   S    
C33   N4    A    
Cu1   O1    S    
C19   H17   S    
C47   H7    S    
C16   C18   A    
C13   C16   A    
C54   H30   S    
C14   C15   A    
C12   C44   A    
C2    O3    A    
C53   H28   S    
Cu2   O2    S    
C8    H10   S    
