data_mof_unit_67209.cif
_audit_creation_date              2013-03-05T16:01:23-0500
_audit_creation_method            fapswitch 2.2
_symmetry_space_group_name_H-M    P1
_symmetry_Int_Tables_number       1
_space_group_crystal_system       triclinic
_cell_length_a                    20.134331
_cell_length_b                    20.031521
_cell_length_c                    8.498441
_cell_angle_alpha                 90.000173
_cell_angle_beta                  91.878883
_cell_angle_gamma                 89.996751
_cell_volume                      3425.7592584

loop_
_atom_site_label
_atom_site_type_symbol
_atom_site_description
_atom_site_fract_x
_atom_site_fract_y
_atom_site_fract_z
_atom_type_partial_charge
P1    P     P_3+3 0.136530 0.426510 0.931350 0.541537
P2    P     P_3+3 0.136530 0.573490 0.431350 0.544250
P3    P     P_3+3 0.636530 0.926510 0.931350 0.544495
P4    P     P_3+3 0.636530 0.073490 0.431350 0.544254
O1    O     O_2   0.130070 0.404060 0.104920 -0.379320
O2    O     O_2   0.130070 0.595940 0.604920 -0.378014
O3    O     O_2   0.630070 0.904060 0.104920 -0.378165
O4    O     O_2   0.630070 0.095940 0.604920 -0.377602
O5    O     O_3   0.075780 0.466370 0.861070 -0.316031
O6    O     O_3   0.075780 0.533630 0.361070 -0.315284
O7    O     O_3   0.575780 0.966370 0.861070 -0.315472
O8    O     O_3   0.575780 0.033630 0.361070 -0.316156
O9    O     O_3   0.022320 0.344950 0.359800 -0.322630
O10   O     O_3   0.022320 0.655050 0.859800 -0.306183
O11   O     O_3   0.522320 0.844950 0.359800 -0.304573
O12   O     O_3   0.522320 0.155050 0.859800 -0.304057
O13   O     O_2   0.136643 0.296981 0.256579 -0.425370
O14   O     O_2   0.135560 0.703497 0.754807 -0.399643
O15   O     O_2   0.635686 0.796827 0.254875 -0.399083
O16   O     O_2   0.635579 0.203288 0.754845 -0.403631
O17   O     O_3   0.206045 0.479066 0.941214 -0.521750
O18   O     O_3   0.206365 0.521376 0.440582 -0.522549
O19   O     O_3   0.706023 0.978971 0.940471 -0.521349
O20   O     O_3   0.706230 0.021175 0.441006 -0.521624
O21   O     O_3   0.052982 0.203819 0.328086 -0.557904
O22   O     O_3   0.046829 0.792165 0.820279 -0.539136
O23   O     O_3   0.547007 0.707992 0.318882 -0.540832
O24   O     O_3   0.546831 0.292005 0.819314 -0.541093
H1    H     H_    0.955184 0.238791 0.312666 0.068759
H2    H     H_    0.989574 0.776184 0.022433 -0.073533
H3    H     H_    0.490069 0.722791 0.521798 -0.073259
H4    H     H_    0.490289 0.277216 0.022862 -0.073183
C1    C     C_3   0.958381 0.131270 0.308092 -0.619184
C2    C     C_3   0.938030 0.836693 0.851828 -0.683381
C3    C     C_3   0.439514 0.660782 0.352735 -0.669045
C4    C     C_3   0.439650 0.339695 0.854927 -0.673652
H5    H     H_    0.906771 0.124555 0.347537 0.251188
H6    H     H_    0.913469 0.793175 0.793826 0.220850
H7    H     H_    0.413842 0.703565 0.294234 0.218758
H8    H     H_    0.413701 0.297134 0.796102 0.218864
H9    H     H_    0.957210 0.128469 0.178456 0.247177
H10   H     H_    0.947934 0.875254 0.761655 0.307022
H11   H     H_    0.450033 0.622168 0.263097 0.306169
H12   H     H_    0.450116 0.378486 0.765669 0.305140
P5    P     P_3+3 0.863410 0.426100 0.379280 0.498813
P6    P     P_3+3 0.863410 0.573900 0.879280 0.498039
P7    P     P_3+3 0.363410 0.926100 0.379280 0.498215
P8    P     P_3+3 0.363410 0.073900 0.879280 0.498995
P9    P     P_3+3 0.918366 0.281538 0.928083 0.550947
P10   P     P_3+3 0.917601 0.717989 0.427666 0.545808
P11   P     P_3+3 0.418165 0.781466 0.927706 0.548411
P12   P     P_3+3 0.417494 0.217918 0.428022 0.546481
O25   O     O_2   0.869860 0.403670 0.205810 -0.344281
O26   O     O_2   0.869860 0.596330 0.705810 -0.341499
O27   O     O_2   0.369860 0.903670 0.205810 -0.338277
O28   O     O_2   0.369860 0.096330 0.705810 -0.339812
O29   O     O_3   0.977590 0.344880 0.951200 -0.345236
O30   O     O_3   0.977590 0.655120 0.451200 -0.326819
O31   O     O_3   0.477590 0.844880 0.951200 -0.324754
O32   O     O_3   0.477590 0.155120 0.451200 -0.325544
O33   O     O_2   0.871865 0.286711 0.068951 -0.368582
O34   O     O_2   0.866746 0.706913 0.557365 -0.336249
O35   O     O_2   0.367680 0.791872 0.058590 -0.332999
O36   O     O_2   0.366630 0.206587 0.557502 -0.334888
O37   O     O_3   0.791213 0.474932 0.384799 -0.636289
O38   O     O_3   0.790586 0.526061 0.883849 -0.635246
O39   O     O_3   0.290781 0.974306 0.383689 -0.636281
O40   O     O_3   0.290638 0.025856 0.881568 -0.635647
O41   O     O_3   0.959019 0.204796 0.956380 -0.498260
O42   O     O_3   0.954478 0.794187 0.480768 -0.489218
O43   O     O_3   0.455613 0.705413 0.979804 -0.489707
O44   O     O_3   0.453867 0.294253 0.481834 -0.490957
C5    C     C_3   0.028202 0.214184 0.947014 0.226139
C6    C     C_3   0.017683 0.797443 0.415617 0.211460
C7    C     C_3   0.518874 0.702669 0.914879 0.198935
C8    C     C_3   0.516963 0.298222 0.416614 0.192303
H13   H     H_    0.046987 0.246994 0.043535 0.102092
H14   H     H_    0.050786 0.757881 0.466209 0.084339
H15   H     H_    0.551704 0.742335 0.966025 0.086979
H16   H     H_    0.550535 0.259166 0.467599 0.088794
H17   H     H_    0.040711 0.237799 0.834254 0.113814
H18   H     H_    0.013837 0.791539 0.285979 0.050279
H19   H     H_    0.515085 0.708771 0.785277 0.050432
H20   H     H_    0.513214 0.292110 0.287025 0.052702
C9    C     C_3   0.064864 0.147355 0.960032 0.179266
C10   C     C_3   0.049683 0.864899 0.453895 0.211048
C11   C     C_3   0.551147 0.635291 0.952788 0.221785
C12   C     C_3   0.547907 0.366180 0.454482 0.225608
H21   H     H_    0.067220 0.129852 0.083685 0.154228
H22   H     H_    0.063418 0.867867 0.581153 0.166568
H23   H     H_    0.564159 0.631928 0.080397 0.161712
H24   H     H_    0.559754 0.370202 0.582435 0.163189
C13   C     C_3   0.787593 0.472997 0.777395 0.645459
C14   C     C_3   0.786698 0.526063 0.273319 0.650090
C15   C     C_3   0.289159 0.972215 0.776508 0.657840
C16   C     C_3   0.286823 0.026129 0.273923 0.657082
H25   H     H_    0.830550 0.471227 0.699245 0.025615
H26   H     H_    0.829197 0.527248 0.193767 0.030490
H27   H     H_    0.331994 0.971400 0.697894 0.025062
H28   H     H_    0.329404 0.027427 0.194598 0.026699
C17   C     C_3   0.722903 0.478838 0.678575 0.132486
C18   C     C_3   0.721301 0.517976 0.177989 0.130337
C19   C     C_3   0.224191 0.975389 0.678193 0.117159
C20   C     C_3   0.221540 0.019031 0.177678 0.125605
H29   H     H_    0.717274 0.435152 0.598799 0.115060
H30   H     H_    0.714230 0.560543 0.095444 0.124189
H31   H     H_    0.220570 0.931830 0.597565 0.113696
H32   H     H_    0.215341 0.061734 0.095210 0.122945
Ba1   Ba    Ba6+2 0.999980 0.452130 0.155200 1.680827
Ba2   Ba    Ba6+2 0.999980 0.547870 0.655200 1.684539
Ba3   Ba    Ba6+2 0.499980 0.952130 0.155200 1.683398
Ba4   Ba    Ba6+2 0.499980 0.047870 0.655200 1.683558
C21   C     C_3   0.187643 0.542937 0.990582 0.273177
C22   C     C_3   0.188499 0.457486 0.490755 0.265408
C23   C     C_3   0.687711 0.042677 0.991099 0.280869
C24   C     C_3   0.687924 0.957213 0.490043 0.273543
H33   H     H_    0.166478 0.540484 0.109089 0.095960
H34   H     H_    0.167437 0.460015 0.609374 0.095256
H35   H     H_    0.666250 0.039845 0.109274 0.094525
H36   H     H_    0.666712 0.959511 0.608537 0.095319
H37   H     H_    0.150814 0.565470 0.906169 0.094318
H38   H     H_    0.151762 0.434552 0.406725 0.092546
H39   H     H_    0.651212 0.065726 0.906669 0.091900
H40   H     H_    0.651147 0.934700 0.405479 0.093825
C25   C     C_3   0.249288 0.587230 0.996066 0.055544
C26   C     C_3   0.250528 0.413719 0.496468 0.064551
C27   C     C_3   0.749570 0.086521 0.998811 0.050638
C28   C     C_3   0.749597 0.912959 0.495443 0.057544
H41   H     H_    0.235461 0.639491 0.021485 0.053780
H42   H     H_    0.237190 0.361368 0.522198 0.045827
H43   H     H_    0.736306 0.138388 0.029641 0.051390
H44   H     H_    0.735755 0.860647 0.520326 0.053257
H45   H     H_    0.273302 0.586063 0.880280 0.161435
H46   H     H_    0.274537 0.414975 0.380675 0.162126
H47   H     H_    0.773009 0.087065 0.882313 0.162109
H48   H     H_    0.773733 0.914327 0.379818 0.162525
O45   O     O_3   0.924190 0.533610 0.949240 -0.323856
O46   O     O_3   0.924190 0.466390 0.449240 -0.321076
O47   O     O_3   0.424190 0.033610 0.949240 -0.323505
O48   O     O_3   0.424190 0.966390 0.449240 -0.322802
P13   P     P_3+3 0.083743 0.717065 0.881059 0.504282
P14   P     P_3+3 0.084326 0.282928 0.381395 0.505309
P15   P     P_3+3 0.583757 0.217026 0.880894 0.503223
P16   P     P_3+3 0.583807 0.782986 0.380789 0.505233
C29   C     C_3   0.985723 0.198101 0.366795 0.776398
C30   C     C_3   0.002670 0.814618 0.934040 0.881857
C31   C     C_3   0.503849 0.684534 0.433617 0.876139
C32   C     C_3   0.504058 0.315535 0.934810 0.877305
H49   H     H_    0.989574 0.089668 0.355384 0.309099
H50   H     H_    0.903777 0.857696 0.938887 0.225379
H51   H     H_    0.405953 0.639327 0.440737 0.226817
H52   H     H_    0.406358 0.361071 0.943632 0.227376
H53   H     H_    0.116679 0.153667 0.921628 0.060179
H54   H     H_    0.095726 0.870533 0.386518 0.099867
H55   H     H_    0.597625 0.630201 0.886799 0.093538
H56   H     H_    0.594849 0.371738 0.390647 0.097693
C33   C     C_R   0.245954 0.309274 0.995410 -0.037498
C34   C     C_R   0.245580 0.691040 0.495419 -0.042205
C35   C     C_R   0.745618 0.808924 0.995237 -0.042470
C36   C     C_R   0.743599 0.192651 0.498930 -0.038733
C37   C     C_R   0.151128 0.347158 0.820824 0.111904
C38   C     C_R   0.150419 0.653482 0.321599 0.137619
C39   C     C_R   0.650532 0.846586 0.821333 0.136291
C40   C     C_R   0.650160 0.153646 0.321914 0.137622
C41   C     C_R   0.110545 0.334294 0.686375 0.043071
C42   C     C_R   0.109317 0.666936 0.188137 0.052572
C43   C     C_R   0.609435 0.833146 0.687854 0.053278
C44   C     C_R   0.609266 0.166890 0.188002 0.054258
C45   C     C_R   0.126723 0.284612 0.578757 0.206519
C46   C     C_R   0.125161 0.716848 0.080482 0.092424
C47   C     C_R   0.625226 0.783195 0.580233 0.091803
C48   C     C_R   0.625182 0.216774 0.080301 0.093972
C49   C     C_R   0.177139 0.239175 0.618497 -0.290313
C50   C     C_R   0.175738 0.762148 0.120172 -0.287998
C51   C     C_R   0.675830 0.737925 0.619856 -0.287328
C52   C     C_R   0.675789 0.262050 0.119975 -0.292539
C53   C     C_R   0.214150 0.245688 0.761213 0.021472
C54   C     C_R   0.213131 0.755253 0.262440 0.038735
C55   C     C_R   0.713215 0.744793 0.762120 0.038107
C56   C     C_R   0.712705 0.255591 0.263024 0.040763
C57   C     C_R   0.204034 0.301798 0.859905 -0.063405
C58   C     C_R   0.203299 0.698871 0.360582 -0.058298
C59   C     C_R   0.703385 0.801162 0.860316 -0.058247
C60   C     C_R   0.702477 0.199528 0.361939 -0.064582
C61   C     C_R   0.802123 0.702976 0.941637 -0.035605
C62   C     C_R   0.800541 0.298225 0.444560 -0.040969
C63   C     C_R   0.302333 0.203231 0.941660 -0.037284
C64   C     C_R   0.302095 0.796983 0.441939 -0.035649
C65   C     C_R   0.793482 0.760165 0.038213 0.051050
C66   C     C_R   0.790625 0.241962 0.543196 0.041312
C67   C     C_R   0.293685 0.260380 0.038424 0.050417
C68   C     C_R   0.293489 0.739748 0.538416 0.051681
C69   C     C_R   0.850150 0.653666 0.988668 0.187575
C70   C     C_R   0.848934 0.347263 0.491110 0.179025
C71   C     C_R   0.350058 0.153666 0.988943 0.184799
C72   C     C_R   0.350129 0.846279 0.488938 0.182371
C73   C     C_R   0.883201 0.660474 0.134864 -0.351245
C74   C     C_R   0.881213 0.341155 0.638575 -0.353546
C75   C     C_R   0.382997 0.160368 0.135328 -0.351287
C76   C     C_R   0.383347 0.839276 0.634977 -0.356884
C77   C     C_R   0.874994 0.716368 0.230410 0.289571
C78   C     C_R   0.871113 0.286484 0.736879 0.391163
C79   C     C_R   0.374863 0.216288 0.230876 0.290191
C80   C     C_R   0.375141 0.783352 0.730603 0.291432
C81   C     C_R   0.830925 0.766730 0.180796 -0.274888
C82   C     C_R   0.826378 0.236529 0.688260 -0.196431
C83   C     C_R   0.330955 0.266762 0.181232 -0.277426
C84   C     C_R   0.330991 0.733077 0.680931 -0.278327
C85   C     C_R   0.761132 0.696311 0.804617 -0.079197
C86   C     C_R   0.760579 0.304136 0.305633 -0.074980
C87   C     C_R   0.261688 0.196913 0.804091 -0.072039
C88   C     C_R   0.261081 0.803695 0.304965 -0.079892
H57   H     H_    0.187604 0.199001 0.537652 0.228803
H58   H     H_    0.186304 0.802274 0.039254 0.231806
H59   H     H_    0.686395 0.697816 0.538920 0.233192
H60   H     H_    0.686546 0.301987 0.038738 0.231883
H61   H     H_    0.823856 0.809492 0.256444 0.159252
H62   H     H_    0.818824 0.194112 0.764660 0.147818
H63   H     H_    0.323928 0.309513 0.256947 0.158739
H64   H     H_    0.323946 0.690267 0.756435 0.159022
H65   H     H_    0.910794 0.618621 0.181828 0.204504
H66   H     H_    0.910698 0.382153 0.683130 0.201405
H67   H     H_    0.410612 0.118510 0.182228 0.204225
H68   H     H_    0.411171 0.880983 0.681742 0.205307
H69   H     H_    0.724005 0.525281 0.608289 0.179748
H70   H     H_    0.722385 0.470762 0.110933 0.177784
H71   H     H_    0.222814 0.022224 0.609056 0.180731
H72   H     H_    0.222234 0.971848 0.110202 0.179831
Cl1   Cl    Cl    0.651045 0.483130 0.795795 -0.452987
Cl2   Cl    Cl    0.650546 0.514252 0.298957 -0.452994
Cl3   Cl    Cl    0.152565 0.974826 0.796213 -0.449542
Cl4   Cl    Cl    0.150383 0.016428 0.297873 -0.494730
Cl5   Cl    Cl    0.307358 0.559566 0.144956 -0.493843
Cl6   Cl    Cl    0.308344 0.442023 0.645218 -0.492059
Cl7   Cl    Cl    0.807931 0.055697 0.143220 -0.516185
Cl8   Cl    Cl    0.807475 0.940411 0.644942 -0.491009
Cl9   Cl    Cl    0.977700 0.197539 0.573200 -0.645114
Cl10  Cl    Cl    0.039491 0.884459 0.032793 -0.500055
Cl11  Cl    Cl    0.542767 0.615734 0.532049 -0.494359
Cl12  Cl    Cl    0.543545 0.383992 0.033396 -0.497282
Cl13  Cl    Cl    0.036614 0.378192 0.654748 -0.585369
Cl14  Cl    Cl    0.036368 0.621822 0.154924 -0.615250
Cl15  Cl    Cl    0.536536 0.878317 0.654643 -0.614591
Cl16  Cl    Cl    0.536314 0.121751 0.154785 -0.614656
H73   H     H_    0.241031 0.352159 0.071214 0.163991
H74   H     H_    0.240797 0.648014 0.570824 0.163036
H75   H     H_    0.740829 0.851933 0.070703 0.163206
H76   H     H_    0.738556 0.149946 0.575144 0.163734
H77   H     H_    0.764680 0.652772 0.730639 0.190341
H78   H     H_    0.764881 0.347131 0.230264 0.189361
H79   H     H_    0.265176 0.153410 0.729994 0.191509
H80   H     H_    0.264644 0.847243 0.231061 0.190287
Cl17  Cl    Cl    0.025120 0.084300 0.842496 -0.319778
Cl18  Cl    Cl    0.994475 0.932200 0.405932 -0.375926
Cl19  Cl    Cl    0.496569 0.567799 0.901878 -0.325972
Cl20  Cl    Cl    0.492698 0.432559 0.399461 -0.329968
Cl21  Cl    Cl    0.784336 0.398049 0.888744 -0.708161
Cl22  Cl    Cl    0.782923 0.602710 0.377738 -0.683780
Cl23  Cl    Cl    0.288302 0.897784 0.889337 -0.682786
Cl24  Cl    Cl    0.283522 0.102152 0.380808 -0.685421

loop_
_geom_bond_atom_site_label_1
_geom_bond_atom_site_label_2
_geom_bond_distance
_ccdc_geom_bond_type
C28   Cl8   1.782571 S    
C75   C79   1.396297 A    
P1    O17   1.751235 S    
O15   P16   1.544784 D    
C11   H23   1.109335 S    
C27   Cl7   1.781441 S    
C68   C84   1.412424 A    
C35   C65   1.411701 A    
P3    O19   1.749613 S    
O21   P14   1.759559 S    
C2    H10   1.110737 S    
P8    O28   1.550692 D    
P4    O4    1.551633 D    
P2    C38   1.879590 S    
C2    H50   1.110619 S    
P9    O29   1.747925 S    
C12   Cl20  1.785513 S    
C14   Cl22  1.776232 S    
C82   H62   1.083121 S    
C15   Cl23  1.773080 S    
P16   C47   1.864314 S    
C81   H61   1.083179 S    
C54   C58   1.421720 A    
C76   H68   1.074804 S    
C3    H51   1.110756 S    
P1    O1    1.551640 D    
C12   H56   1.110691 S    
C17   H69   1.106196 S    
C74   H66   1.074985 S    
O19   C23   1.399957 S    
C27   H47   1.110711 S    
P15   C48   1.864092 S    
P6    O38   1.753173 S    
P3    O3    1.551640 D    
O4    Ba4   2.836208 S    
H4    C32   1.113391 S    
H1    C29   1.111499 S    
C19   H31   1.110355 S    
C22   C26   1.525339 S    
C15   H27   1.108251 S    
C20   Cl4   1.787378 S    
C21   C25   1.525210 S    
C14   H26   1.108050 S    
C19   H71   1.106844 S    
C18   H70   1.104785 S    
C23   C27   1.523696 S    
O26   Ba2   2.839838 S    
O6    Ba1   2.807259 S    
Ba1   O45   2.807285 S    
C5    H17   1.105151 S    
O22   C30   1.408475 S    
Ba4   O48   2.807382 S    
C49   H57   1.083300 S    
P13   C46   1.864153 S    
C4    H8    1.110261 S    
O9    Ba1   2.789951 S    
P12   O32   1.752000 S    
P1    Ba1   3.432800 S    
C38   C42   1.407961 A    
O38   C13   1.395850 S    
C66   C82   1.411269 A    
O29   Ba1   2.788058 S    
C12   H24   1.108524 S    
H2    C30   1.113361 S    
P3    Ba3   3.432800 S    
C15   C19   1.530215 S    
C29   Cl9   1.766840 S    
P7    O48   1.566796 S    
C74   C78   1.396363 A    
C42   Cl14  1.739727 S    
O31   Ba3   2.788058 S    
P4    C40   1.880213 S    
O41   C5    1.410448 S    
C88   H80   1.078680 S    
O22   P13   1.748421 S    
C3    H11   1.110859 S    
P4    O8    1.562877 S    
C8    C12   1.527028 S    
P5    Ba1   3.435549 S    
C55   C59   1.421757 A    
C56   C86   1.408217 A    
P8    O47   1.566727 S    
C72   C76   1.397464 A    
O28   Ba4   2.839838 S    
H3    C31   1.113321 S    
C11   Cl19  1.786493 S    
P4    Ba4   3.432845 S    
O10   P13   1.758076 S    
P1    C37   1.874395 S    
P9    O41   1.754402 S    
C50   C54   1.409972 A    
C19   Cl3   1.783464 S    
O2    Ba2   2.836208 S    
Ba4   O47   2.984079 S    
C8    H20   1.108206 S    
P2    O2    1.551633 D    
P11   O43   1.750270 S    
C36   H76   1.079784 S    
C28   H44   1.106525 S    
P7    O39   1.753776 S    
C83   H63   1.083221 S    
C43   Cl15  1.739385 S    
C4    C32   1.522825 S    
Ba3   O48   2.984061 S    
C20   H72   1.105818 S    
C71   C75   1.396936 A    
O14   P13   1.544971 D    
C62   C86   1.411761 A    
C41   C45   1.397320 A    
O32   Ba4   2.788026 S    
O24   C32   1.408054 S    
C17   H29   1.110514 S    
C23   H39   1.110608 S    
Ba3   O47   2.807285 S    
C53   C57   1.421060 A    
C30   Cl10  1.780597 S    
P7    C72   1.874293 S    
Ba2   O46   2.807382 S    
O12   P15   1.757614 S    
P11   O35   1.545318 D    
O17   C21   1.400137 S    
C10   H22   1.109069 S    
C65   C81   1.412103 A    
C33   C57   1.413235 A    
C26   H42   1.106149 S    
C9    H21   1.107340 S    
C2    H6    1.109737 S    
C3    C31   1.522659 S    
C32   Cl12  1.780703 S    
C39   C59   1.430695 A    
C1    H5    1.110443 S    
C24   H36   1.107612 S    
O13   P14   1.545087 D    
C50   H58   1.083441 S    
P10   O30   1.751810 S    
C62   C66   1.422573 A    
C3    H7    1.109930 S    
C33   C67   1.411848 A    
C25   Cl5   1.782716 S    
O42   C6    1.405872 S    
C40   C60   1.430594 A    
C34   C68   1.411714 A    
C76   C80   1.396956 A    
C78   C82   1.399654 A    
C84   H64   1.083153 S    
C49   C53   1.408589 A    
C39   C43   1.407978 A    
C16   Cl24  1.775543 S    
C35   H75   1.080235 S    
P12   O44   1.749798 S    
P6    O26   1.550692 D    
Ba1   O46   2.984061 S    
C52   H60   1.083215 S    
O23   P16   1.748456 S    
P1    O5    1.562811 S    
O44   C8    1.404868 S    
O24   P15   1.748381 S    
C9    H53   1.110513 S    
O9    P14   1.766547 S    
C6    C10   1.527480 S    
C73   C77   1.396078 A    
C34   C58   1.413664 A    
C26   H46   1.110795 S    
O40   C15   1.396731 S    
C22   H34   1.107554 S    
C1    C29   1.525191 S    
P6    O45   1.566727 S    
C21   H33   1.107453 S    
C36   C60   1.413034 A    
C40   C44   1.407834 A    
C7    C11   1.527685 S    
O37   C14   1.396152 S    
P8    Ba4   3.435500 S    
C38   C58   1.430739 A    
C63   C87   1.410620 A    
O20   C24   1.400458 S    
C23   H35   1.107707 S    
O21   C29   1.408712 S    
P14   C45   1.857191 S    
P8    C71   1.873578 S    
P5    O37   1.753964 S    
O39   C16   1.396176 S    
P10   O34   1.544872 D    
C44   C48   1.399359 A    
C61   C85   1.411359 A    
C4    H12   1.110906 S    
C75   H67   1.075392 S    
C13   C17   1.530913 S    
P2    O6    1.562877 S    
C13   H25   1.108191 S    
C20   H32   1.110294 S    
C56   C60   1.421835 A    
P11   C80   1.860781 S    
O12   Ba4   2.789982 S    
P6    C69   1.872116 S    
P7    O27   1.550685 D    
C6    H18   1.108232 S    
P10   C77   1.858206 S    
C25   H45   1.110760 S    
O5    Ba2   2.807163 S    
O10   Ba2   2.789982 S    
C16   C20   1.531823 S    
C80   C84   1.399334 A    
P9    C78   1.858501 S    
P2    Ba2   3.432845 S    
C45   C49   1.396530 A    
C31   Cl11  1.780458 S    
C24   H40   1.110545 S    
Ba3   Ba4   4.661957 S    
O27   Ba3   2.839937 S    
O7    Ba4   2.807163 S    
O30   Ba2   2.788026 S    
C63   C67   1.423528 A    
C62   C70   1.430258 A    
Ba2   O45   2.984079 S    
C4    H52   1.110887 S    
C8    H16   1.112416 S    
C61   C69   1.430041 A    
P8    O40   1.753708 S    
C51   C55   1.409813 A    
C33   H73   1.080275 S    
C61   C65   1.423232 A    
P5    C70   1.870922 S    
C46   C50   1.397069 A    
P3    C39   1.879917 S    
C67   C83   1.411633 A    
C10   Cl18  1.785878 S    
C21   H37   1.110550 S    
C34   H74   1.080201 S    
C55   C85   1.407638 A    
O18   C22   1.399718 S    
C73   H65   1.075291 S    
C13   Cl21  1.777022 S    
P12   O36   1.544373 D    
P7    Ba3   3.435549 S    
C43   C47   1.399225 A    
C64   C68   1.423411 A    
P12   C79   1.857578 S    
C1    H9    1.102611 S    
C53   C87   1.407319 A    
C28   H48   1.110764 S    
C10   H54   1.111230 S    
C63   C71   1.430098 A    
C36   C66   1.410851 A    
C5    C9    1.530924 S    
P6    Ba2   3.435500 S    
C1    H49   1.110797 S    
P2    O18   1.750886 S    
C54   C88   1.407664 A    
O43   C7    1.405660 S    
C64   C88   1.411383 A    
P9    O33   1.547248 D    
C7    H19   1.108311 S    
C70   C74   1.398031 A    
C79   C83   1.399017 A    
P4    O20   1.751186 S    
C69   C73   1.396735 A    
C16   H28   1.108182 S    
C6    H14   1.112788 S    
P5    O46   1.566796 S    
C17   Cl1   1.785371 S    
C42   C46   1.399151 A    
O3    Ba3   2.836106 S    
C18   H30   1.110349 S    
C11   H55   1.111323 S    
O8    Ba3   2.807259 S    
P10   O42   1.750113 S    
C26   Cl6   1.782748 S    
C27   H43   1.106342 S    
P3    O7    1.562811 S    
C41   Cl13  1.742104 S    
P5    O25   1.550685 D    
O11   P16   1.757970 S    
C22   H38   1.110657 S    
C25   H41   1.106348 S    
C52   C56   1.409915 A    
P11   O31   1.752011 S    
C64   C72   1.429957 A    
C5    H13   1.107952 S    
O23   C31   1.407921 S    
C24   C28   1.525117 S    
C85   H77   1.078870 S    
C18   Cl2   1.785500 S    
C44   Cl16  1.740049 S    
C77   C81   1.399349 A    
C2    C30   1.522458 S    
O16   P15   1.544412 D    
C47   C51   1.396869 A    
O25   Ba1   2.839937 S    
O1    Ba1   2.836106 S    
C35   C59   1.413529 A    
Ba1   Ba2   4.661957 S    
C7    H15   1.112851 S    
C86   H78   1.078514 S    
C37   C57   1.430834 A    
C37   C41   1.406571 A    
C48   C52   1.397164 A    
C14   C18   1.531794 S    
C51   H59   1.083264 S    
C9    Cl17  1.783586 S    
C87   H79   1.078761 S    
O11   Ba3   2.789951 S    
