data_mof_unit_53579.cif
_audit_creation_date              2012-12-10T18:02:54-0500
_audit_creation_method            fapswitch 2.2
_symmetry_space_group_name_H-M    P1
_symmetry_Int_Tables_number       1
_space_group_crystal_system       triclinic
_cell_length_a                    10.888783
_cell_length_b                    9.544682
_cell_length_c                    27.433583
_cell_angle_alpha                 89.951135
_cell_angle_beta                  90.333539
_cell_angle_gamma                 89.931571
_cell_volume                      2851.12009077

loop_
_atom_site_label
_atom_site_type_symbol
_atom_type_description
_atom_site_fract_x
_atom_site_fract_y
_atom_site_fract_z
_atom_type_partial_charge
C1    C     C_R   0.261758 0.500074 0.500133 0.899108
C2    C     C_R   0.737347 0.500151 0.500287 0.863031
C3    C     C_R   0.482669 0.660008 0.102887 -0.142524
C4    C     C_R   0.471135 0.654932 0.897206 -0.141626
C5    C     C_R   0.373854 0.662273 0.130007 -0.259776
C6    C     C_R   0.572043 0.701135 0.870038 -0.262427
C7    C     C_R   0.260565 0.670913 0.105537 0.613084
C8    C     C_R   0.674855 0.756141 0.894399 0.615351
C9    C     C_R   0.595579 0.662932 0.127831 -0.009572
C10   C     C_R   0.365133 0.610538 0.872304 0.001597
C11   C     C_R   0.496003 0.502530 0.354223 -0.227726
C12   C     C_R   0.505868 0.503679 0.645835 -0.248010
C13   C     C_R   0.363646 0.636643 0.975297 0.144789
C14   C     C_R   0.588952 0.684937 0.024778 0.135359
C15   C     C_R   0.582877 0.700771 0.973309 -0.178103
C16   C     C_R   0.364092 0.655119 0.026714 -0.174694
C17   C     C_R   0.472732 0.663354 0.948783 0.013647
C18   C     C_R   0.478628 0.665907 0.051284 0.013214
C19   C     C_R   0.259163 0.589016 0.949401 -0.096043
C20   C     C_R   0.701461 0.683857 0.050738 -0.091180
C21   C     C_R   0.259634 0.577601 0.898797 -0.129857
C22   C     C_R   0.704507 0.674650 0.101378 -0.123510
C23   C     C_R   0.499593 0.500142 0.407421 0.904698
C24   C     C_R   0.501190 0.500266 0.592602 0.898069
C25   C     C_R   0.255253 0.665935 0.054718 0.505919
C26   C     C_R   0.681116 0.754818 0.945210 0.508976
C27   C     C_R   0.060677 0.375898 0.510528 0.346990
C28   C     C_R   0.934990 0.618900 0.483993 0.325691
C29   C     C_R   0.935475 0.384562 0.519324 0.315463
C30   C     C_R   0.060947 0.626276 0.491855 0.360246
C31   C     C_R   0.870443 0.501149 0.501237 -0.402361
C32   C     C_R   0.127003 0.500564 0.500742 -0.406248
C33   C     C_R   0.442391 0.074381 0.463756 -0.039893
C34   C     C_R   0.559777 0.925561 0.535719 -0.007749
C35   C     C_R   0.559286 0.074104 0.535787 0.006098
C36   C     C_R   0.441295 0.925850 0.464006 -0.028466
C37   C     C_R   0.382577 0.660310 0.181212 0.706819
C38   C     C_R   0.564754 0.695143 0.818870 0.708563
C39   C     C_R   0.596584 0.653284 0.179011 0.644962
C40   C     C_R   0.367689 0.599518 0.821148 0.644013
C41   C     C_R   0.602093 0.522273 0.277856 0.644067
C42   C     C_R   0.405958 0.471810 0.723075 0.649902
C43   C     C_R   0.604627 0.502826 0.328096 -0.445780
C44   C     C_R   0.408769 0.451501 0.672868 -0.417702
C45   C     C_R   0.384031 0.498406 0.329297 0.432732
C46   C     C_R   0.609760 0.555747 0.669823 0.408552
C47   C     C_R   0.379856 0.520958 0.277974 0.328426
C48   C     C_R   0.609569 0.573140 0.721300 0.339423
C49   C     C_R   0.490984 0.559467 0.253467 0.035032
C50   C     C_R   0.495690 0.556939 0.746682 0.031571
Cu1   Cu    Cu3+1 0.500000 0.640660 0.500000 0.968583
Cu2   Cu    Cu3+1 0.500000 0.359340 0.500000 0.968492
H1    H     H_    0.396408 0.130044 0.434555 0.128155
H2    H     H_    0.608185 0.869880 0.564326 0.146234
H3    H     H_    0.606712 0.129726 0.564409 0.134990
H4    H     H_    0.393381 0.870402 0.435285 0.147939
H5    H     H_    0.334769 0.395088 0.655062 0.200875
H6    H     H_    0.691567 0.485144 0.346533 0.178758
H7    H     H_    0.177601 0.539790 0.880576 0.201066
H8    H     H_    0.792963 0.673439 0.119671 0.221078
H9    H     H_    0.177611 0.552934 0.967584 0.218861
H10   H     H_    0.789021 0.682841 0.032616 0.236974
N1    N     N_R   0.490401 0.620784 0.203842 -0.441667
N2    N     N_R   0.477003 0.613550 0.796341 -0.441782
N3    N     N_R   0.500000 0.852070 0.500000 -0.170113
N4    N     N_R   0.500000 0.147930 0.500000 -0.159953
O1    O     O_R   0.319640 0.618740 0.500000 -0.568252
O2    O     O_R   0.680360 0.381260 0.500000 -0.563848
O3    O     O_R   0.680360 0.618740 0.500000 -0.548479
O4    O     O_R   0.319640 0.381260 0.500000 -0.564107
O5    O     O_R   0.500020 0.618770 0.430260 -0.600554
O6    O     O_R   0.499980 0.381230 0.569740 -0.601795
O7    O     O_R   0.499980 0.618770 0.569740 -0.578539
O8    O     O_R   0.500020 0.381230 0.430260 -0.575487
O9    O     O_2   0.288512 0.710582 0.207548 -0.484563
O10   O     O_2   0.636383 0.780844 0.792471 -0.484910
O11   O     O_2   0.260150 0.587883 0.797003 -0.478322
O12   O     O_2   0.699959 0.689307 0.203051 -0.472216
F1    F     F_    0.282295 0.465547 0.355293 -0.714852
F2    F     F_    0.711531 0.579809 0.642757 -0.734024
O13   O     O_3   0.280791 0.475122 0.249587 -0.583093
C51   C     C_3   0.163925 0.511708 0.268295 0.231318
H11   H     H_    0.110256 0.562170 0.238514 0.207132
H12   H     H_    0.166849 0.591347 0.297956 0.166028
C52   C     C_3   0.094594 0.378758 0.282863 -0.303983
H13   H     H_    0.061933 0.324228 0.249431 0.231337
H14   H     H_    0.157307 0.306111 0.302423 0.256331
C53   C     C_3   0.984919 0.412326 0.315147 -0.866185
H15   H     H_    0.017220 0.454404 0.350687 0.263439
H16   H     H_    0.931039 0.315692 0.321901 0.266681
H17   H     H_    0.924404 0.490339 0.297048 0.292152
O14   O     O_3   0.718151 0.567601 0.748739 -0.586224
C54   C     C_3   0.815291 0.651436 0.730652 0.221721
H18   H     H_    0.850305 0.716329 0.761309 0.206126
H19   H     H_    0.786939 0.728409 0.702216 0.170857
C55   C     C_3   0.921699 0.557549 0.714383 -0.320118
H20   H     H_    0.961773 0.503815 0.746748 0.251214
H21   H     H_    0.887998 0.476059 0.689020 0.243990
C56   C     C_3   0.021669 0.641259 0.688947 -0.867596
H22   H     H_    0.984705 0.685828 0.654506 0.262204
H23   H     H_    0.099918 0.571252 0.680028 0.271099
H24   H     H_    0.055378 0.727069 0.712837 0.276355
F3    F     F_    0.153553 0.679263 0.130593 -0.580307
F4    F     F_    0.772189 0.807205 0.869257 -0.573563
F5    F     F_    0.323566 0.394231 0.748224 -0.607634
F6    F     F_    0.705321 0.486655 0.253462 -0.627958
F7    F     F_    0.143286 0.684272 0.033722 -0.615403
F8    F     F_    0.779596 0.818361 0.966057 -0.603615
O15   O     O_3   0.115388 0.245348 0.514218 -0.567836
C57   C     C_3   0.136272 0.190737 0.466811 0.109757
H25   H     H_    0.191640 0.094032 0.471197 0.158211
H26   H     H_    0.190580 0.263872 0.443901 0.171184
C58   C     C_3   0.018665 0.151789 0.438855 -0.354192
H27   H     H_    0.966160 0.071400 0.459240 0.255628
H28   H     H_    0.959622 0.245514 0.433499 0.210756
C59   C     C_3   0.052139 0.095669 0.388627 -0.923223
H29   H     H_    0.112324 0.170868 0.369428 0.272780
H30   H     H_    0.967934 0.081496 0.366276 0.260498
H31   H     H_    0.102021 0.994625 0.392232 0.270618
O16   O     O_3   0.876681 0.731981 0.462132 -0.557909
C60   C     C_3   0.836902 0.694678 0.414488 0.098299
H32   H     H_    0.738070 0.667606 0.415338 0.169701
H33   H     H_    0.887587 0.603899 0.398631 0.095637
C61   C     C_3   0.853549 0.819732 0.380643 -0.371427
H34   H     H_    0.819740 0.916202 0.398887 0.245952
H35   H     H_    0.952824 0.830463 0.372822 0.233946
C62   C     C_3   0.784561 0.801821 0.332518 -0.834144
H36   H     H_    0.816988 0.706688 0.313291 0.283041
H37   H     H_    0.801521 0.894148 0.308859 0.273723
H38   H     H_    0.684250 0.793866 0.339075 0.256066
O17   O     O_3   0.878209 0.272556 0.541991 -0.571383
C63   C     C_3   0.839358 0.313762 0.589171 0.132587
H39   H     H_    0.747370 0.362857 0.586562 0.199250
H40   H     H_    0.903076 0.390619 0.606666 0.131770
C64   C     C_3   0.832084 0.184962 0.622328 -0.395668
H41   H     H_    0.810193 0.090266 0.600384 0.238937
H42   H     H_    0.922899 0.169933 0.640107 0.223716
C65   C     C_3   0.735200 0.200143 0.662084 -0.846433
H43   H     H_    0.756922 0.289553 0.686322 0.275111
H44   H     H_    0.733189 0.103224 0.684480 0.266849
H45   H     H_    0.642684 0.216242 0.645821 0.255752
O18   O     O_3   0.117335 0.755546 0.486794 -0.567829
C66   C     C_3   0.144624 0.811206 0.533649 0.109721
H46   H     H_    0.212205 0.897077 0.528817 0.172817
H47   H     H_    0.188899 0.732731 0.558202 0.130630
C67   C     C_3   0.031214 0.870337 0.559295 -0.353023
H48   H     H_    0.984964 0.949444 0.535844 0.264290
H49   H     H_    0.965264 0.784355 0.566743 0.214895
C68   C     C_3   0.067959 0.937224 0.607774 -0.902766
H50   H     H_    0.136817 0.872092 0.627470 0.255885
H51   H     H_    0.986208 0.945414 0.631441 0.252892
H52   H     H_    0.107309 0.042976 0.601461 0.291937

loop_
_geom_bond_atom_site_label_1
_geom_bond_atom_site_label_2
_ccdc_geom_bond_type
C66   C67   S    
C46   F2    S    
C54   H18   S    
C49   N1    S    
C5    C37   A    
C64   C65   S    
C50   N2    S    
C14   C18   A    
O13   C51   S    
C64   H41   S    
C47   C49   A    
C38   O10   S    
C52   H13   S    
C24   O6    A    
Cu1   O5    S    
C36   H4    S    
C19   C21   A    
C21   H7    S    
Cu2   O8    S    
C68   H51   S    
C22   H8    S    
C24   O7    A    
C27   C29   A    
C66   H46   S    
C55   C56   S    
C9    C39   A    
C33   C36   A    
C8    C26   A    
C59   H29   S    
C3    C18   A    
C10   C40   A    
C34   C35   A    
Cu1   N3    S    
C11   C23   S    
C57   H25   S    
C60   C61   S    
C43   H6    S    
C58   H27   S    
C63   H39   S    
C55   H21   S    
C6    C38   A    
C11   C43   A    
C2    O3    A    
C67   H49   S    
Cu2   O2    S    
C58   C59   S    
C45   C47   A    
C37   O9    S    
C54   H19   S    
C7    F3    S    
C41   C43   A    
C42   C44   A    
C34   N3    A    
C41   C49   A    
C37   N1    A    
C33   N4    A    
C38   N2    A    
C52   H14   S    
C10   C21   A    
C33   H1    S    
C46   C48   A    
C41   F6    S    
C13   C19   A    
C35   H3    S    
Cu1   Cu2   S    
C39   O12   S    
C14   C20   A    
C4    C6    A    
C28   O16   S    
C68   H52   S    
C26   F8    S    
C5    C7    A    
C36   N3    A    
C15   C26   A    
C6    C8    A    
C35   N4    A    
C1    C32   S    
C2    C31   S    
C62   H37   S    
Cu2   O6    S    
C23   O5    A    
C67   C68   S    
C56   H22   S    
C53   H17   S    
C44   H5    S    
C55   H20   S    
C45   F1    S    
C16   C18   A    
Cu1   O1    S    
C3    C9    A    
C8    F4    S    
C57   C58   S    
C60   H32   S    
C65   H44   S    
C42   C50   A    
C61   C62   S    
C4    C17   A    
C12   C46   A    
C56   H23   S    
C20   C22   A    
C34   H2    S    
C54   C55   S    
C51   H12   S    
C64   H42   S    
C11   C45   A    
C23   O8    A    
C4    C10   A    
C62   H36   S    
Cu2   N4    S    
O16   C60   S    
C25   F7    S    
C61   H35   S    
C67   H48   S    
C52   C53   S    
C16   C25   A    
C66   H47   S    
C27   C32   A    
C40   O11   S    
C28   C31   A    
Cu1   O7    S    
C53   H16   S    
C3    C5    A    
C65   H45   S    
C7    C25   A    
C15   C17   A    
C51   C52   S    
C39   N1    A    
C12   C24   S    
C2    O2    A    
C1    O4    A    
C30   O18   S    
C59   H31   S    
C13   C17   A    
C28   C30   A    
C62   H38   S    
C29   C31   A    
C68   H50   S    
C30   C32   A    
C29   O17   S    
C19   H9    S    
C63   C64   S    
C40   N2    A    
C48   C50   A    
O14   C54   S    
C1    O1    A    
C59   H30   S    
C47   O13   S    
C20   H10   S    
C9    C22   A    
C42   F5    S    
C57   H26   S    
C60   H33   S    
Cu2   O4    S    
C65   H43   S    
C56   H24   S    
C53   H15   S    
C27   O15   S    
C63   H40   S    
C51   H11   S    
C48   O14   S    
C13   C16   A    
O18   C66   S    
C14   C15   A    
C12   C44   A    
Cu1   O3    S    
O15   C57   S    
O17   C63   S    
C61   H34   S    
C58   H28   S    
