data_mof_unit_46348.cif
_audit_creation_date              2012-12-10T20:55:49-0500
_audit_creation_method            fapswitch 2.2
_symmetry_space_group_name_H-M    P1
_symmetry_Int_Tables_number       1
_space_group_crystal_system       triclinic
_cell_length_a                    15.87253
_cell_length_b                    15.026686
_cell_length_c                    10.394107
_cell_angle_alpha                 90.209795
_cell_angle_beta                  90.027288
_cell_angle_gamma                 89.896091
_cell_volume                      2479.09333521

loop_
_atom_site_label
_atom_site_type_symbol
_atom_type_description
_atom_site_fract_x
_atom_site_fract_y
_atom_site_fract_z
_atom_type_partial_charge
C1    C     C_1   0.250911 0.500035 0.495610 -0.130206
C2    C     C_R   0.428957 0.047272 0.538884 0.360789
C3    C     C_R   0.955502 0.579101 0.459134 -0.037482
C4    C     C_R   0.044480 0.417412 0.500538 -0.024784
C5    C     C_R   0.044117 0.579280 0.460491 -0.036796
C6    C     C_R   0.955865 0.417185 0.499209 -0.048485
C7    C     C_R   0.338923 0.500052 0.500184 0.932165
C8    C     C_R   0.661090 0.499906 0.499638 0.931995
C9    C     C_R   0.484429 0.499883 0.259818 0.901675
C10   C     C_R   0.514016 0.500093 0.741076 0.893252
C11   C     C_R   0.912837 0.497963 0.477828 -0.047240
C12   C     C_1   0.749077 0.499549 0.493119 -0.127491
C13   C     C_R   0.087035 0.499004 0.485739 -0.045418
C14   C     C_1   0.499986 0.807134 0.497131 0.191131
C15   C     C_1   0.499686 0.192842 0.497635 0.293264
C16   C     C_1   0.823595 0.498877 0.485917 -0.095892
C17   C     C_1   0.176323 0.499650 0.490890 -0.095762
C18   C     C_R   0.437187 0.662341 0.102299 -0.089744
C19   C     C_R   0.556487 0.336524 0.898895 -0.077111
C20   C     C_R   0.559282 0.663059 0.904627 -0.076936
C21   C     C_R   0.435239 0.337686 0.098327 -0.051132
C22   C     C_R   0.466860 0.744348 0.053372 -0.097220
C23   C     C_R   0.531342 0.500010 0.879475 -0.169793
C24   C     C_R   0.524256 0.254831 0.946484 -0.083894
C25   C     C_R   0.532710 0.744991 0.960470 -0.100232
C26   C     C_R   0.459660 0.255585 0.041113 -0.077729
C27   C     C_R   0.522299 0.581792 0.946145 0.065355
C28   C     C_R   0.472776 0.418095 0.055610 -0.012589
C29   C     C_R   0.473156 0.581445 0.056975 0.058168
C30   C     C_R   0.521546 0.417941 0.944368 -0.024021
C31   C     C_2   0.093260 0.661230 0.430464 0.541475
C32   C     C_2   0.906780 0.334856 0.527245 0.547179
C33   C     C_2   0.906046 0.663173 0.445953 0.536336
C34   C     C_R   0.464638 0.499733 0.122277 -0.165511
C35   C     C_2   0.093990 0.333200 0.511629 0.512159
C36   C     C_2   0.413069 0.172544 0.073841 0.446150
C37   C     C_2   0.578750 0.828857 0.927496 0.342579
C38   C     C_2   0.552669 0.169573 0.889099 0.629396
C39   C     C_2   0.430578 0.828287 0.104675 0.495200
C40   C     C_3   0.298711 0.099789 0.492173 -0.131753
C41   C     C_3   0.624574 0.871239 0.275487 -0.230845
C42   C     C_3   0.629625 0.121046 0.276139 -0.101540
C43   C     C_3   0.373207 0.895703 0.724169 -0.064042
C44   C     C_2   0.363607 0.661169 0.192238 0.457859
C45   C     C_R   0.499578 0.904965 0.492675 -0.294806
C46   C     C_2   0.631696 0.340172 0.811685 0.452985
C47   C     C_2   0.629860 0.661982 0.809811 0.421767
C48   C     C_2   0.365592 0.342478 0.194670 0.393933
C49   C     C_R   0.499169 0.094969 0.493119 -0.308137
C50   C     C_R   0.430410 0.952925 0.542916 0.370125
C51   C     C_R   0.568497 0.047213 0.442314 0.406726
C52   C     C_R   0.568459 0.952762 0.440814 0.411440
H1    H     H_    0.152840 0.673867 0.478357 0.066652
H2    H     H_    0.272215 0.033377 0.467674 0.196822
H3    H     H_    0.246356 0.141749 0.528935 0.202114
H4    H     H_    0.585342 0.914492 0.212492 0.162716
H5    H     H_    0.594754 0.804838 0.284525 0.143149
H6    H     H_    0.685869 0.861375 0.226223 0.208831
H7    H     H_    0.575430 0.167510 0.266246 0.151035
H8    H     H_    0.622199 0.063952 0.209066 0.203508
H9    H     H_    0.687013 0.157716 0.246726 0.192894
H10   H     H_    0.379511 0.960534 0.775484 0.213101
H11   H     H_    0.428777 0.852653 0.743968 0.157136
H12   H     H_    0.846837 0.323283 0.479823 0.073438
H13   H     H_    0.316989 0.861584 0.763556 0.192860
H14   H     H_    0.348578 0.718542 0.251460 0.059507
H15   H     H_    0.663613 0.403073 0.796553 0.094892
H16   H     H_    0.637995 0.716522 0.742907 0.071902
H17   H     H_    0.326647 0.401797 0.200512 0.107695
H18   H     H_    0.846102 0.662880 0.395673 0.059465
H19   H     H_    0.153573 0.332562 0.562869 0.059032
H20   H     H_    0.345396 0.174831 0.088000 0.109287
H21   H     H_    0.643245 0.825906 0.893580 0.081797
H22   H     H_    0.539451 0.155222 0.788710 0.065049
H23   H     H_    0.434379 0.842940 0.206807 0.011203
H24   H     H_    0.323757 0.132291 0.404092 0.182219
N1    N     N_1   0.500000 0.270550 0.500000 -0.071154
N2    N     N_1   0.500000 0.729450 0.500000 -0.119167
O1    O     O_R   0.378020 0.573650 0.500040 -0.607512
O2    O     O_2   0.930700 0.281555 0.607839 -0.495260
O3    O     O_2   0.929667 0.732315 0.496280 -0.500942
O4    O     O_2   0.070755 0.264914 0.458494 -0.521856
O5    O     O_2   0.449257 0.101540 0.087999 -0.530078
O6    O     O_2   0.546389 0.902223 0.937580 -0.493814
O7    O     O_2   0.593819 0.116741 0.952244 -0.509803
O8    O     O_2   0.392541 0.879225 0.034192 -0.513520
O9    O     O_3   0.360727 0.093089 0.588823 -0.605003
O10   O     O_3   0.639960 0.908726 0.398119 -0.541530
O11   O     O_3   0.640262 0.092089 0.404079 -0.559060
O12   O     O_R   0.621980 0.426350 0.499960 -0.608600
O13   O     O_3   0.361553 0.907654 0.590904 -0.612086
O14   O     O_2   0.317431 0.596427 0.198774 -0.597662
O15   O     O_2   0.659117 0.274696 0.755841 -0.556027
O16   O     O_2   0.679923 0.600212 0.806238 -0.588803
O17   O     O_2   0.353642 0.282951 0.272061 -0.605412
O18   O     O_R   0.621980 0.573650 0.499960 -0.605913
O19   O     O_R   0.378020 0.426350 0.500040 -0.595678
O20   O     O_R   0.499990 0.573670 0.316780 -0.625152
O21   O     O_R   0.500010 0.426330 0.683220 -0.624686
O22   O     O_R   0.500010 0.573670 0.683220 -0.612657
O23   O     O_R   0.499990 0.426330 0.316780 -0.605072
O24   O     O_2   0.069734 0.713082 0.347657 -0.509764
Zn1   Zn    Zn3+2 0.500000 0.598370 0.500000 0.978085
Zn2   Zn    Zn3+2 0.500000 0.401630 0.500000 1.025311

loop_
_geom_bond_atom_site_label_1
_geom_bond_atom_site_label_2
_ccdc_geom_bond_type
C6    C32   S    
C21   C26   A    
C9    O20   A    
C48   O17   D    
C27   C29   A    
C44   H14   S    
C8    O18   A    
C48   H17   S    
C19   C46   S    
C43   H11   S    
C39   H23   S    
C40   O9    S    
C24   C26   A    
C41   H6    S    
C20   C25   A    
C3    C33   S    
C36   O5    D    
O20   Zn1   S    
C4    C13   A    
C2    C50   A    
C25   C37   S    
C12   C16   T    
C49   C51   A    
C22   C25   A    
C24   C38   S    
C37   O6    D    
C23   C27   A    
C5    C13   A    
C44   O14   D    
C43   H13   S    
C21   C48   S    
C15   C49   S    
O21   Zn2   S    
C4    C35   S    
C28   C34   A    
C18   C22   A    
O1    Zn1   S    
C35   O4    D    
C14   C45   S    
C38   O7    D    
C51   C52   A    
O19   Zn2   S    
C31   O24   D    
C52   O10   S    
C32   H12   S    
C4    C6    A    
C42   H8    S    
C6    C11   A    
C45   C52   A    
C29   C34   A    
O22   Zn1   S    
C43   O13   S    
C40   H24   S    
C23   C30   A    
C41   H4    S    
C2    C49   A    
C18   C44   S    
C32   O2    D    
C11   C16   S    
C8    C12   S    
C40   H3    S    
C2    O9    S    
C18   C29   A    
C31   H1    S    
C10   O22   A    
C42   H9    S    
O12   Zn2   S    
C33   H18   S    
C26   C36   S    
C21   C28   A    
O23   Zn2   S    
C40   H2    S    
C9    C34   S    
C8    O12   A    
C47   H16   S    
C7    O1    A    
C38   H22   S    
C41   O10   S    
C37   H21   S    
C7    O19   A    
N2    Zn1   S    
C1    C7    S    
C3    C5    A    
C42   H7    S    
C20   C27   A    
C10   C23   S    
C1    C17   T    
C13   C17   S    
C42   O11   S    
C28   C30   A    
C19   C24   A    
C41   H5    S    
C46   H15   S    
C51   O11   S    
C15   N1    T    
C46   O15   D    
C45   C50   A    
C22   C39   S    
C47   O16   D    
C14   N2    T    
C10   O21   A    
C20   C47   S    
C3    C11   A    
C35   H19   S    
C50   O13   S    
C9    O23   A    
O18   Zn1   S    
N1    Zn2   S    
C39   O8    D    
C19   C30   A    
C33   O3    D    
C36   H20   S    
C43   H10   S    
C5    C31   S    
