data_mof_unit_58330.cif
_audit_creation_date              2012-12-10T18:05:15-0500
_audit_creation_method            fapswitch 2.2
_symmetry_space_group_name_H-M    P1
_symmetry_Int_Tables_number       1
_space_group_crystal_system       triclinic
_cell_length_a                    9.636594
_cell_length_b                    10.826322
_cell_length_c                    17.053393
_cell_angle_alpha                 85.946627
_cell_angle_beta                  94.22914
_cell_angle_gamma                 89.975165
_cell_volume                      1769.85001825

loop_
_atom_site_label
_atom_site_type_symbol
_atom_type_description
_atom_site_fract_x
_atom_site_fract_y
_atom_site_fract_z
_atom_type_partial_charge
C1    C     C_R   0.500064 0.262421 0.500027 0.809190
C2    C     C_R   0.068038 0.585184 0.452769 0.045027
C3    C     C_R   0.517940 0.502343 0.650612 0.855227
C4    C     C_R   0.481546 0.500776 0.349295 0.850419
C5    C     C_R   0.528040 0.510413 0.736571 -0.170640
C6    C     C_R   0.466185 0.506800 0.262902 -0.152254
C7    C     C_R   0.428926 0.447756 0.779650 -0.311275
C8    C     C_R   0.553293 0.585256 0.220668 -0.352427
C9    C     C_R   0.425811 0.456452 0.860527 0.196615
C10   C     C_R   0.537637 0.599767 0.138521 0.242054
C11   C     C_R   0.527777 0.527586 0.900745 0.254875
C12   C     C_R   0.500119 0.737557 0.500086 0.749727
C13   C     C_R   0.434721 0.531050 0.097213 0.233539
C14   C     C_R   0.630768 0.588662 0.858347 0.162999
C15   C     C_R   0.341600 0.456922 0.139737 0.133306
C16   C     C_R   0.630747 0.581737 0.775855 0.165721
C17   C     C_R   0.358561 0.442782 0.222529 0.191196
C18   C     C_R   0.374354 0.064064 0.497979 -0.152239
C19   C     C_R   0.626843 0.935768 0.502104 -0.178413
C20   C     C_3   0.550688 0.807482 0.080799 -0.662883
C21   C     C_3   0.182596 0.433243 0.882295 -0.660633
C22   C     C_3   0.696759 0.792635 0.894990 -0.618054
C23   C     C_R   0.374467 0.936297 0.499030 -0.161316
C24   C     C_3   0.108441 0.470506 0.078664 -0.648390
C25   C     C_3   0.866647 0.612001 0.733670 -0.595841
C26   C     C_3   0.141853 0.401016 0.285069 -0.556046
C27   C     C_2   0.149919 0.300677 0.582895 0.519499
C28   C     C_2   0.839104 0.648686 0.381907 0.446959
C29   C     C_2   0.869204 0.346548 0.616521 0.329209
C30   C     C_2   0.134786 0.688099 0.407471 0.431066
C31   C     C_R   0.626832 0.063645 0.502124 -0.180244
C32   C     C_R   0.500511 0.871539 0.500485 -0.030334
C33   C     C_R   0.500444 0.128379 0.499977 -0.024533
C34   C     C_R   0.079247 0.413896 0.546305 0.078778
C35   C     C_R   0.919271 0.577586 0.447704 0.079774
C36   C     C_R   0.932494 0.421832 0.551948 -0.000826
Cu1   Cu    Cu3+1 0.640660 0.500020 0.500000 0.919778
Cu2   Cu    Cu3+1 0.359340 0.499980 0.500000 0.961162
H1    H     H_    0.629836 0.640230 0.251802 0.203093
H2    H     H_    0.620805 0.873066 0.050310 0.220611
H3    H     H_    0.331567 0.294392 0.896355 0.253986
H4    H     H_    0.148955 0.420803 0.819626 0.249278
H5    H     H_    0.174976 0.532831 0.893398 0.232674
H6    H     H_    0.110838 0.379995 0.919684 0.225563
H7    H     H_    0.832013 0.645474 0.887814 0.258752
H8    H     H_    0.770349 0.840221 0.935855 0.218193
H9    H     H_    0.589220 0.806796 0.912132 0.233352
H10   H     H_    0.705595 0.834635 0.834246 0.231587
H11   H     H_    0.261111 0.347141 0.053345 0.283230
H12   H     H_    0.352330 0.390867 0.750422 0.239111
H13   H     H_    0.131321 0.546067 0.034067 0.228363
H14   H     H_    0.072430 0.512298 0.131212 0.241878
H15   H     H_    0.023198 0.412703 0.053844 0.223125
H16   H     H_    0.685525 0.698917 0.679638 0.257525
H17   H     H_    0.891576 0.593651 0.673066 0.245343
H18   H     H_    0.884224 0.525636 0.772503 0.240351
H19   H     H_    0.938653 0.684163 0.755266 0.210270
H20   H     H_    0.269763 0.269715 0.242558 0.262377
H21   H     H_    0.124914 0.367084 0.346547 0.220941
H22   H     H_    0.056776 0.365157 0.245513 0.218167
H23   H     H_    0.275527 0.112039 0.495450 0.144910
H24   H     H_    0.136797 0.503916 0.280779 0.226246
H25   H     H_    0.107639 0.211151 0.569299 -0.004566
H26   H     H_    0.744530 0.697173 0.390271 0.100957
H27   H     H_    0.766244 0.309520 0.609941 0.143393
H28   H     H_    0.227534 0.674350 0.377737 0.109308
H29   H     H_    0.725613 0.887546 0.503486 0.159937
H30   H     H_    0.275867 0.888647 0.498665 0.191456
H31   H     H_    0.725612 0.111467 0.503725 0.147619
H32   H     H_    0.718646 0.698470 0.124971 0.271250
H33   H     H_    0.523737 0.847098 0.136172 0.219113
H34   H     H_    0.454508 0.796936 0.041780 0.236638
N1    N     N_2   0.537120 0.532661 0.984083 -0.168377
N2    N     N_2   0.275252 0.355983 0.264663 -0.416173
N3    N     N_2   0.422558 0.533162 0.013595 -0.200780
N4    N     N_R   0.852070 0.500030 0.499980 -0.254072
N5    N     N_R   0.147930 0.499970 0.500020 -0.249396
N6    N     N_2   0.619950 0.689118 0.098263 -0.376701
N7    N     N_2   0.323640 0.388513 0.901228 -0.410746
N8    N     N_2   0.730531 0.662067 0.899395 -0.393059
N9    N     N_2   0.230889 0.394360 0.099671 -0.421185
N10   N     N_2   0.724783 0.656669 0.732751 -0.430430
O1    O     O_R   0.618740 0.319660 0.500000 -0.621299
O2    O     O_2   0.879441 0.653058 0.315523 -0.596837
O3    O     O_2   0.933315 0.326170 0.680639 -0.581286
O4    O     O_2   0.085127 0.792395 0.403045 -0.583464
O5    O     O_R   0.381260 0.680340 0.500000 -0.603381
O6    O     O_R   0.381170 0.319630 0.500010 -0.567674
O7    O     O_R   0.618830 0.680370 0.499990 -0.620828
O8    O     O_R   0.631780 0.498870 0.613920 -0.592435
O9    O     O_R   0.368220 0.501130 0.386080 -0.593853
O10   O     O_R   0.394210 0.498840 0.613930 -0.522541
O11   O     O_R   0.605790 0.501160 0.386070 -0.593050
O12   O     O_2   0.246347 0.304677 0.632740 -0.546235

loop_
_geom_bond_atom_site_label_1
_geom_bond_atom_site_label_2
_ccdc_geom_bond_type
C2    C35   A    
C24   H14   S    
C22   H10   S    
C28   O2    D    
C25   H18   S    
C19   C31   A    
C10   N6    S    
C1    C33   S    
C15   N9    S    
C29   C36   S    
Cu1   O8    S    
C3    O8    A    
C34   N5    A    
C20   H2    S    
C11   C14   A    
H32   N6    S    
Cu2   O10   S    
C7    C9    A    
C9    N7    S    
H11   N9    S    
C5    C16   A    
C36   N4    A    
C21   H5    S    
C13   N3    S    
C28   C35   S    
C31   C33   A    
C20   H33   S    
C19   H29   S    
C8    H1    S    
C14   N8    S    
C30   O4    D    
C26   H21   S    
C29   O3    D    
C4    O9    A    
C1    O6    A    
C22   H9    S    
C12   C32   S    
N1    N3    D    
C25   H19   S    
C19   C32   A    
C27   C34   S    
C35   N4    A    
C18   C23   A    
C12   O7    A    
C4    C6    S    
C11   N1    S    
C5    C7    A    
C6    C8    A    
C24   H15   S    
Cu2   O9    S    
C4    O11   A    
Cu2   O6    S    
C3    O10   A    
C23   H30   S    
C24   N9    S    
Cu1   Cu2   S    
C21   H6    S    
C21   N7    S    
C16   N10   S    
Cu1   O11   S    
C9    C11   A    
C30   H28   S    
C27   H25   S    
C29   H27   S    
C28   H26   S    
C22   H8    S    
Cu1   N4    S    
C13   C15   A    
C17   N2    S    
C14   C16   A    
H16   N10   S    
H20   N2    S    
C15   C17   A    
C6    C17   A    
C12   O5    A    
Cu1   O1    S    
C25   H17   S    
C7    H12   S    
C3    C5    S    
C10   C13   A    
H3    N7    S    
C18   H23   S    
Cu2   N5    S    
Cu1   O7    S    
C1    O1    A    
C20   N6    S    
Cu2   O5    S    
C2    C30   S    
C23   C32   A    
C26   H24   S    
C22   N8    S    
C2    N5    A    
C25   N10   S    
C24   H13   S    
C26   N2    S    
H7    N8    S    
C34   C36   A    
C18   C33   A    
C21   H4    S    
C31   H31   S    
C8    C10   A    
C20   H34   S    
C27   O12   D    
C26   H22   S    
