data_mof_unit_60807.cif
_audit_creation_date              2012-12-10T18:18:10-0500
_audit_creation_method            fapswitch 2.2
_symmetry_space_group_name_H-M    P1
_symmetry_Int_Tables_number       1
_space_group_crystal_system       triclinic
_cell_length_a                    19.319236
_cell_length_b                    14.682948
_cell_length_c                    15.916156
_cell_angle_alpha                 90.080017
_cell_angle_beta                  89.888584
_cell_angle_gamma                 90.035884
_cell_volume                      4514.81611579

loop_
_atom_site_label
_atom_site_type_symbol
_atom_type_description
_atom_site_fract_x
_atom_site_fract_y
_atom_site_fract_z
_atom_type_partial_charge
C1    C     C_R   0.500148 0.499950 0.339881 0.811393
C2    C     C_R   0.929688 0.500386 0.500091 0.532170
C3    C     C_R   0.183059 0.548079 0.437984 -0.126734
C4    C     C_R   0.182779 0.452187 0.561682 -0.128750
C5    C     C_R   0.255252 0.548382 0.437654 0.224131
C6    C     C_R   0.254958 0.451704 0.561965 0.228630
C7    C     C_R   0.291709 0.499980 0.499797 -0.169582
C8    C     C_R   0.146185 0.500185 0.499857 -0.056703
C9    C     C_3   0.497097 0.600498 0.048499 -0.058582
C10   C     C_3   0.437901 0.443089 0.049281 -0.099058
C11   C     C_3   0.441022 0.434832 0.950524 0.567513
C12   C     C_3   0.485846 0.600053 0.950633 0.606421
C13   C     C_1   0.499830 0.500196 0.749307 -0.056825
C14   C     C_3   0.500515 0.500463 0.083071 -0.141005
C15   C     C_3   0.500340 0.499886 0.916893 -0.090252
C16   C     C_R   0.632675 0.500022 0.499922 0.782251
C17   C     C_3   0.573409 0.464809 0.950545 0.272369
C18   C     C_3   0.570420 0.457006 0.050412 0.564614
C19   C     C_1   0.499918 0.500152 0.824609 0.305076
C20   C     C_1   0.500377 0.500135 0.175280 0.260921
C21   C     C_1   0.500287 0.499899 0.250581 -0.055001
C22   C     C_3   0.477478 0.053962 0.588432 0.254733
C23   C     C_3   0.472709 0.946821 0.587307 0.128001
C24   C     C_3   0.570812 0.053327 0.474958 0.113726
C25   C     C_3   0.570182 0.946203 0.477527 0.256151
C26   C     C_3   0.497784 0.092232 0.499562 -0.282552
C27   C     C_3   0.496462 0.907786 0.499871 -0.249001
C28   C     C_3   0.443744 0.944765 0.431674 0.379860
C29   C     C_3   0.443967 0.054799 0.432495 0.489019
C30   C     C_1   0.497722 0.804657 0.501034 0.309192
C31   C     C_1   0.498162 0.195326 0.500917 0.379418
C32   C     C_R   0.499951 0.500061 0.659996 0.807753
C33   C     C_R   0.367405 0.499984 0.499857 0.878344
C34   C     C_R   0.745078 0.541748 0.567130 0.364568
C35   C     C_R   0.745374 0.458395 0.432963 0.352347
C36   C     C_R   0.817478 0.542807 0.565813 0.275685
C37   C     C_R   0.817766 0.457556 0.434357 0.275935
C38   C     C_R   0.853910 0.500272 0.500081 -0.281252
C39   C     C_R   0.708495 0.500063 0.500002 -0.338200
C40   C     C_R   0.069835 0.500296 0.499945 0.450002
Cu1   Cu    Cu3+1 0.500090 0.589920 0.499910 1.072113
Cu2   Cu    Cu3+1 0.500090 0.410080 0.499910 1.083107
H1    H     H_    0.583012 0.073122 0.409024 0.150491
H2    H     H_    0.583438 0.922566 0.413194 0.169253
H3    H     H_    0.425388 0.080192 0.604987 0.139887
H4    H     H_    0.417040 0.929049 0.596838 0.143011
H5    H     H_    0.155958 0.585297 0.389455 0.206765
H6    H     H_    0.155465 0.415069 0.610259 0.204060
H7    H     H_    0.440821 0.373899 0.077058 0.169432
H8    H     H_    0.548338 0.632392 0.060663 0.221545
N1    N     N_R   0.965072 0.458048 0.562227 -0.156401
N2    N     N_R   0.965262 0.542690 0.437886 -0.155125
N3    N     N_R   0.033919 0.457998 0.562106 -0.196810
N4    N     N_R   0.034110 0.542663 0.437866 -0.194323
N5    N     N_1   0.498600 0.724970 0.501390 -0.137268
N6    N     N_1   0.498600 0.275030 0.501390 -0.135555
O1    O     O_R   0.500080 0.575970 0.379360 -0.542334
O2    O     O_R   0.500080 0.424030 0.379360 -0.567797
O3    O     O_R   0.599930 0.575960 0.499920 -0.551529
O4    O     O_R   0.599930 0.424040 0.499920 -0.568137
O5    O     O_R   0.500070 0.575900 0.620490 -0.573862
O6    O     O_R   0.500070 0.424100 0.620490 -0.541582
O7    O     O_R   0.400220 0.575910 0.499940 -0.559602
O8    O     O_R   0.400220 0.424090 0.499940 -0.539799
O9    O     O_3   0.712471 0.581491 0.635455 -0.614445
H9    H     H_    0.663805 0.561017 0.638913 0.332164
O10   O     O_3   0.713076 0.418438 0.364655 -0.633177
H10   H     H_    0.664371 0.438611 0.361188 0.328939
Br1   Br    Br    0.649640 0.544679 0.913165 -0.267732
Br2   Br    Br    0.603255 0.350219 0.896736 -0.279293
O11   O     O_3   0.510297 0.908212 0.654065 -0.663186
H11   H     H_    0.488931 0.848344 0.667106 0.356143
O12   O     O_3   0.520458 0.088530 0.652575 -0.602975
H12   H     H_    0.564401 0.054184 0.653365 0.416327
O13   O     O_3   0.623677 0.089185 0.526014 -0.653616
H13   H     H_    0.634945 0.150891 0.504496 0.356186
O14   O     O_3   0.622414 0.909339 0.528992 -0.607781
H14   H     H_    0.619013 0.936957 0.585479 0.413609
O15   O     O_3   0.377262 0.089849 0.449618 -0.617045
H15   H     H_    0.358027 0.061430 0.500883 0.345545
O16   O     O_3   0.376408 0.913616 0.450868 -0.681542
H16   H     H_    0.374966 0.846747 0.442144 0.367532
Br3   Br    Br    0.465441 0.108382 0.321838 -0.318682
Br4   Br    Br    0.466379 0.891662 0.320328 -0.324296
Br5   Br    Br    0.865692 0.604438 0.655344 -0.251336
Br6   Br    Br    0.866377 0.395909 0.344964 -0.268635
Br7   Br    Br    0.301546 0.612576 0.348569 -0.344473
Br8   Br    Br    0.300813 0.387630 0.651162 -0.392630
O17   O     O_3   0.418786 0.628920 0.927024 -0.619058
H17   H     H_    0.384608 0.609898 0.969729 0.403995
O18   O     O_3   0.377442 0.459373 0.913178 -0.642873
H18   H     H_    0.342484 0.412255 0.927362 0.375244
Br9   Br    Br    0.436536 0.684801 0.110381 -0.282150
Br10  Br    Br    0.347947 0.482923 0.093769 -0.339920
O19   O     O_3   0.456013 0.344247 0.927080 -0.692148
H19   H     H_    0.419605 0.303921 0.950707 0.348213
O20   O     O_3   0.532407 0.661836 0.913529 -0.651921
H20   H     H_    0.519824 0.723783 0.933544 0.385273
O21   O     O_3   0.625849 0.505750 0.086563 -0.664591
H21   H     H_    0.668562 0.469121 0.078370 0.408181
O22   O     O_3   0.576028 0.365884 0.078786 -0.658498
H22   H     H_    0.543337 0.326614 0.047734 0.358390

loop_
_geom_bond_atom_site_label_1
_geom_bond_atom_site_label_2
_ccdc_geom_bond_type
C1    C21   S    
O22   H22   S    
C9    Br9   S    
C28   Br4   S    
Cu1   Cu2   S    
C14   C18   S    
C13   C32   S    
O19   H19   S    
Cu1   O5    S    
C4    C8    A    
Cu2   O2    S    
O20   H20   S    
O14   H14   S    
C15   C19   S    
C25   O14   S    
C28   C29   S    
C35   C37   A    
C24   C26   S    
C32   O5    A    
C29   Br3   S    
C1    O1    A    
C16   O4    A    
C10   Br10  S    
C6    Br8   S    
C25   H2    S    
O12   H12   S    
Cu1   N5    S    
Cu2   N6    S    
C11   C15   S    
C23   C27   S    
C31   N6    T    
Cu2   O6    S    
C17   Br2   S    
C23   H4    S    
C27   C30   S    
C7    C33   S    
C34   O9    S    
N2    N4    A    
O16   H16   S    
C13   C19   T    
O10   H10   S    
C14   C20   S    
C12   O17   S    
C24   C25   S    
Cu1   O3    S    
C4    C6    A    
C3    C8    A    
C10   C14   S    
Cu2   O4    S    
O18   H18   S    
C5    C7    A    
C9    C14   S    
C37   Br6   S    
C34   C39   A    
N1    N3    A    
C16   O3    A    
C35   C39   A    
O13   H13   S    
C37   C38   A    
C23   O11   S    
C2    C38   S    
O21   H21   S    
C29   O15   S    
C12   C15   S    
C35   O10   S    
C33   O7    A    
C17   C18   S    
C12   O20   S    
C2    N2    A    
C40   N3    A    
C40   N4    A    
C18   O21   S    
Cu1   O7    S    
Cu2   O8    S    
C4    H6    S    
C11   O19   S    
C15   C17   S    
C17   Br1   S    
C28   O16   S    
C9    H8    S    
C3    C5    A    
C24   O13   S    
C6    C7    A    
C36   Br5   S    
C25   C27   S    
C30   N5    T    
C2    N1    A    
C36   C38   A    
Cu1   O1    S    
O11   H11   S    
C1    O2    A    
C33   O8    A    
C3    H5    S    
C34   C36   A    
C9    C12   S    
C10   C11   S    
C16   C39   S    
C32   O6    A    
O15   H15   S    
C5    Br7   S    
C11   O18   S    
C26   C31   S    
C22   H3    S    
C20   C21   T    
C26   C29   S    
O9    H9    S    
C22   C26   S    
C27   C28   S    
C24   H1    S    
C22   C23   S    
C8    C40   S    
C22   O12   S    
O17   H17   S    
C10   H7    S    
C18   O22   S    
