data_mof_unit_23593.cif
_audit_creation_date              2013-03-05T16:05:45-0500
_audit_creation_method            fapswitch 2.2
_symmetry_space_group_name_H-M    P1
_symmetry_Int_Tables_number       1
_space_group_crystal_system       triclinic
_cell_length_a                    9.506403
_cell_length_b                    10.802458
_cell_length_c                    17.243398
_cell_angle_alpha                 90.030386
_cell_angle_beta                  86.457767
_cell_angle_gamma                 89.908992
_cell_volume                      1767.38239674

loop_
_atom_site_label
_atom_site_type_symbol
_atom_site_description
_atom_site_fract_x
_atom_site_fract_y
_atom_site_fract_z
_atom_type_partial_charge
O1    O     O_R   0.381260 0.680340 0.500000 -0.593947
O2    O     O_R   0.618740 0.319660 0.500000 -0.598430
O3    O     O_R   0.618830 0.680370 0.500010 -0.547677
O4    O     O_R   0.381170 0.319630 0.499990 -0.558688
C1    C     C_R   0.500195 0.737739 0.497650 0.872921
C2    C     C_R   0.499783 0.262275 0.502196 0.848767
O5    O     O_R   0.367440 0.500000 0.613600 -0.579917
O6    O     O_R   0.632560 0.500000 0.386400 -0.578900
O7    O     O_R   0.605010 0.500030 0.613600 -0.563928
O8    O     O_R   0.394990 0.499970 0.386400 -0.544079
C3    C     C_R   0.482532 0.501821 0.650450 0.872116
C4    C     C_R   0.517747 0.495079 0.349982 0.871003
Cu1   Cu    Cu3+1 0.359340 0.499980 0.500000 1.017308
Cu2   Cu    Cu3+1 0.640660 0.500020 0.500000 1.010692
C5    C     C_R   0.474353 0.510440 0.735819 -0.186191
C6    C     C_R   0.526286 0.479570 0.265570 -0.194922
C7    C     C_R   0.592275 0.547937 0.776637 0.383131
C8    C     C_R   0.419221 0.415882 0.228566 0.398156
C9    C     C_R   0.575152 0.571267 0.857082 0.254806
C10   C     C_R   0.424439 0.408527 0.147034 0.267112
C11   C     C_R   0.448921 0.533502 0.897809 -0.030862
C12   C     C_R   0.540321 0.461140 0.103740 -0.040640
C13   C     C_R   0.334088 0.494544 0.857432 -0.140387
C14   C     C_R   0.651161 0.514732 0.141400 -0.139416
C15   C     C_R   0.345534 0.486058 0.776975 -0.206164
C16   C     C_R   0.643850 0.524785 0.221746 -0.205028
C17   C     C_2   0.439455 0.521359 0.982669 -0.049048
C18   C     C_2   0.545317 0.469586 0.019075 -0.060929
H1    H     H_    0.728500 0.570889 0.249529 0.220966
H2    H     H_    0.254393 0.456504 0.747100 0.201764
H3    H     H_    0.642184 0.442119 0.986801 0.161983
H4    H     H_    0.342305 0.548078 0.014956 0.175180
H5    H     H_    0.236303 0.467664 0.888490 0.192813
H6    H     H_    0.740736 0.554091 0.108186 0.203941
C19   C     C_R   0.607467 0.938388 0.454403 0.357767
C20   C     C_R   0.392081 0.061698 0.544939 0.356301
C21   C     C_R   0.607281 0.066738 0.459972 -0.286181
C22   C     C_R   0.392222 0.933373 0.539335 -0.265456
H7    H     H_    0.687836 0.119117 0.427106 0.192760
H8    H     H_    0.311514 0.881058 0.572127 0.195670
C23   C     C_R   0.500113 0.128426 0.503888 -0.202465
C24   C     C_R   0.499636 0.871633 0.495623 -0.196039
C25   C     C_R   0.920109 0.578152 0.547504 0.019314
C26   C     C_R   0.079866 0.421945 0.452450 0.053164
H9    H     H_    0.859558 0.640775 0.585499 0.168878
H10   H     H_    0.140339 0.359278 0.414546 0.154954
C27   C     C_R   0.069012 0.577966 0.547598 -0.005384
C28   C     C_R   0.930968 0.421986 0.452441 0.013991
H11   H     H_    0.120848 0.640373 0.585728 0.136300
H12   H     H_    0.879110 0.359442 0.414402 0.132474
N1    N     N_R   0.147930 0.499970 0.499980 -0.173765
N2    N     N_R   0.852070 0.500030 0.500020 -0.176461
O9    O     O_3   0.721147 0.570164 0.737502 -0.546517
C29   C     C_3   0.802585 0.460558 0.739171 -0.166101
H13   H     H_    0.817411 0.429009 0.799558 0.170570
H14   H     H_    0.908546 0.479389 0.711132 0.175030
H15   H     H_    0.754729 0.384344 0.706388 0.160776
O10   O     O_3   0.309252 0.360576 0.271942 -0.546545
C30   C     C_3   0.349686 0.238653 0.289884 -0.209054
H16   H     H_    0.443668 0.237694 0.325321 0.111912
H17   H     H_    0.370276 0.182290 0.236316 0.194541
H18   H     H_    0.261961 0.194119 0.324868 0.189881
N3    N     N_R   0.314887 0.344699 0.109149 0.120820
O11   O     O_R   0.346317 0.270145 0.051327 -0.333029
O12   O     O_R   0.183817 0.355807 0.134761 -0.296131
N4    N     N_R   0.680565 0.639110 0.896539 0.131138
O13   O     O_R   0.813496 0.632615 0.874002 -0.316880
O14   O     O_R   0.642034 0.716983 0.951476 -0.319071
N5    N     N_R   0.713032 0.878436 0.404084 0.135572
O15   O     O_R   0.839920 0.923661 0.396273 -0.335239
O16   O     O_R   0.677673 0.790876 0.357247 -0.362744
N6    N     N_R   0.286381 0.121640 0.595182 0.134222
O17   O     O_R   0.159243 0.076867 0.602479 -0.340082
O18   O     O_R   0.321697 0.208697 0.642395 -0.362400

loop_
_geom_bond_atom_site_label_1
_geom_bond_atom_site_label_2
_geom_bond_distance
_ccdc_geom_bond_type
O1    Cu1   1.959772 S    
N4    O14   1.301723 A    
O7    Cu2   1.967210 S    
N3    O12   1.301321 A    
C22   C24   1.399225 A    
C21   H7    1.084364 S    
N6    O18   1.301477 A    
O7    C3    1.291619 A    
C10   C12   1.412348 A    
C28   N2    1.366605 A    
O6    C4    1.293565 A    
C10   N3    1.439669 S    
C28   H12   1.081800 S    
N4    O13   1.300722 A    
C11   C17   1.466452 S    
C30   H16   1.113173 S    
C27   H11   1.081771 S    
C12   C18   1.460658 S    
O9    C29   1.414903 S    
C22   H8    1.084364 S    
C25   H9    1.081616 S    
C20   C23   1.410116 A    
O2    C2    1.288991 A    
O3    Cu2   1.958916 S    
O8    C4    1.291586 A    
C9    N4    1.445768 S    
N6    O17   1.301408 A    
O1    C1    1.288823 A    
C6    C16   1.398727 A    
C26   N1    1.366500 A    
C20   C22   1.389528 A    
C9    C11   1.413267 A    
C14   C16   1.387077 A    
O5    C3    1.298922 A    
C8    C10   1.405901 A    
C11   C13   1.395932 A    
C21   C23   1.399071 A    
N5    O15   1.301423 A    
O2    Cu2   1.959772 S    
C29   H14   1.109234 S    
C25   N2    1.366528 A    
C5    C15   1.402318 A    
O4    C2    1.288362 A    
C30   H17   1.113068 S    
C2    C23   1.446203 S    
C5    C7    1.419422 A    
C20   N6    1.438514 S    
N3    O11   1.301380 A    
C7    O9    1.383073 S    
C3    C5    1.472185 S    
O5    Cu1   1.965111 S    
C13   C15   1.387867 A    
C1    C24   1.446837 S    
Cu1   N1    2.009771 S    
C19   N5    1.438445 S    
C16   H1    1.083419 S    
C6    C8    1.413645 A    
C12   C14   1.397562 A    
C19   C21   1.389757 A    
C17   C18   1.340263 D    
N5    O16   1.301395 A    
C19   C24   1.410281 A    
C4    C6    1.462307 S    
C29   H13   1.112927 S    
C15   H2    1.083434 S    
C30   H18   1.109155 S    
C27   N1    1.366769 A    
O6    Cu2   1.965113 S    
C7    C9    1.409183 A    
C17   H4    1.087033 S    
Cu1   Cu2   2.674341 S    
O10   C30   1.411264 S    
C25   C27   1.415637 A    
O8    Cu1   1.967212 S    
C18   H3    1.086899 S    
Cu2   N2    2.009770 S    
C13   H5    1.083860 S    
C26   C28   1.415495 A    
O4    Cu1   1.958916 S    
C26   H10   1.080650 S    
C8    O10   1.383861 S    
O3    C1    1.288838 A    
C29   H15   1.112119 S    
C14   H6    1.083994 S    
