data_mof_unit_57913.cif
_audit_creation_date              2012-12-10T21:37:23-0500
_audit_creation_method            fapswitch 2.2
_symmetry_space_group_name_H-M    P1
_symmetry_Int_Tables_number       1
_space_group_crystal_system       triclinic
_cell_length_a                    16.094186
_cell_length_b                    15.724825
_cell_length_c                    16.878192
_cell_angle_alpha                 90.057043
_cell_angle_beta                  88.46828
_cell_angle_gamma                 91.90185
_cell_volume                      4267.62497714

loop_
_atom_site_label
_atom_site_type_symbol
_atom_type_description
_atom_site_fract_x
_atom_site_fract_y
_atom_site_fract_z
_atom_type_partial_charge
C1    C     C_R   0.510591 0.503110 0.347175 0.908407
C2    C     C_R   0.410022 0.486787 0.864186 -0.070111
C3    C     C_R   0.594529 0.527879 0.224321 -0.273628
C4    C     C_R   0.410877 0.488431 0.781429 -0.283357
C5    C     C_R   0.237767 0.557749 0.512483 -0.024190
C6    C     C_R   0.762237 0.443877 0.483377 -0.019127
C7    C     C_R   0.150586 0.552919 0.512603 -0.293236
C8    C     C_R   0.849387 0.448365 0.483838 -0.291812
C9    C     C_R   0.108480 0.476491 0.490729 0.273831
C10   C     C_R   0.891464 0.522791 0.510788 0.272697
C11   C     C_R   0.156947 0.406407 0.468608 -0.099214
C12   C     C_R   0.489632 0.499612 0.652998 0.908427
C13   C     C_R   0.842979 0.591351 0.537148 -0.097819
C14   C     C_R   0.244437 0.415462 0.468016 -0.058657
C15   C     C_R   0.755447 0.582620 0.536751 -0.064534
C16   C     C_R   0.500475 0.337926 0.499822 0.912738
C17   C     C_R   0.499529 0.662057 0.499463 0.906061
C18   C     C_3   0.534615 0.975485 0.423099 -0.146799
C19   C     C_3   0.464469 0.024176 0.562749 -0.141708
C20   C     C_3   0.453459 0.025536 0.431947 -0.148987
C21   C     C_3   0.545508 0.974527 0.553988 -0.144122
C22   C     C_1   0.501209 0.249445 0.498131 -0.209834
C23   C     C_R   0.443922 0.528104 0.220247 -0.309214
C24   C     C_1   0.498808 0.750452 0.496123 -0.211130
C25   C     C_3   0.575479 0.033973 0.485599 0.487443
C26   C     C_3   0.423567 0.965863 0.500310 0.487741
C27   C     C_3   0.495179 0.083732 0.494477 -0.034373
C28   C     C_3   0.503852 0.916093 0.491701 -0.033465
C29   C     C_1   0.499255 0.174331 0.496358 -0.010831
C30   C     C_1   0.500314 0.825517 0.493360 -0.013217
C31   C     C_R   0.516531 0.517919 0.262404 -0.125113
C32   C     C_R   0.486121 0.500273 0.739048 -0.114096
C33   C     C_R   0.399409 0.046715 0.363295 0.120813
C34   C     C_R   0.560605 0.511717 0.779052 -0.323578
C35   C     C_R   0.375486 0.981722 0.310551 -0.116255
C36   C     C_R   0.325248 0.999234 0.246692 -0.156873
C37   C     C_R   0.297941 0.081549 0.235162 -0.123150
C38   C     C_R   0.320646 0.146396 0.287652 -0.140511
C39   C     C_R   0.370801 0.129169 0.351659 -0.173522
C40   C     C_R   0.600850 0.955334 0.622250 0.140699
C41   C     C_R   0.626168 0.022048 0.672522 -0.107196
C42   C     C_R   0.677823 0.006667 0.735868 -0.162498
C43   C     C_R   0.704812 0.924597 0.749543 -0.119678
C44   C     C_R   0.680429 0.857976 0.699655 -0.139649
C45   C     C_R   0.448619 0.546751 0.140166 0.488440
C46   C     C_R   0.629166 0.873180 0.636030 -0.173918
C47   C     C_R   0.117943 0.322702 0.447778 0.126343
C48   C     C_R   0.142955 0.280403 0.378112 -0.168302
C49   C     C_R   0.107645 0.200681 0.359347 -0.128969
C50   C     C_R   0.047311 0.162397 0.409926 -0.111873
C51   C     C_R   0.022451 0.203556 0.479571 -0.152087
C52   C     C_R   0.057688 0.283202 0.498662 -0.135975
C53   C     C_R   0.882062 0.672641 0.564818 0.129067
C54   C     C_R   0.855188 0.709279 0.636670 -0.178132
C55   C     C_R   0.891443 0.785956 0.662813 -0.127868
C56   C     C_R   0.561012 0.513470 0.860959 0.476941
C57   C     C_R   0.954548 0.826937 0.617447 -0.106979
C58   C     C_R   0.981116 0.791728 0.545488 -0.160226
C59   C     C_R   0.944871 0.715158 0.518982 -0.135070
C60   C     C_R   0.575639 0.956037 0.343901 0.119847
C61   C     C_R   0.593421 0.023043 0.290424 -0.117962
C62   C     C_R   0.630643 0.007175 0.216353 -0.153787
C63   C     C_R   0.650694 0.924339 0.195068 -0.118151
C64   C     C_R   0.633789 0.857361 0.247972 -0.142433
C65   C     C_R   0.596613 0.872993 0.322147 -0.175619
C66   C     C_R   0.420923 0.041913 0.641105 0.144764
C67   C     C_R   0.527155 0.549255 0.100356 0.134765
C68   C     C_R   0.406039 0.974658 0.694941 -0.106539
C69   C     C_R   0.364850 0.988578 0.767498 -0.169423
C70   C     C_R   0.337605 0.069609 0.786754 -0.112559
C71   C     C_R   0.351284 0.136703 0.733321 -0.134877
C72   C     C_R   0.392544 0.123036 0.660697 -0.177800
C73   C     C_3   0.280414 0.983131 0.505613 0.097554
C74   C     C_3   0.209954 0.957181 0.563976 -0.327951
C75   C     C_3   0.136835 0.015999 0.557730 -0.980845
C76   C     C_3   0.717496 0.017359 0.463948 0.096046
C77   C     C_3   0.796083 0.045886 0.506833 -0.326198
C78   C     C_R   0.485335 0.499991 0.904077 0.162284
C79   C     C_3   0.867059 0.985982 0.489715 -0.984852
C80   C     C_3   0.672811 0.603269 0.888505 0.101793
C81   C     C_3   0.757935 0.597363 0.846564 -0.325885
C82   C     C_3   0.808033 0.681181 0.851967 -1.004835
C83   C     C_3   0.362857 0.640578 0.082243 0.100846
C84   C     C_3   0.311710 0.681528 0.149008 -0.359001
C85   C     C_3   0.290701 0.772597 0.128376 -0.985688
C86   C     C_R   0.683405 0.545899 0.104206 0.141211
C87   C     C_R   0.711099 0.475265 0.061388 -0.046904
C88   C     C_R   0.791861 0.475845 0.028692 -0.140292
C89   C     C_R   0.600348 0.543170 0.143234 -0.064023
C90   C     C_R   0.845163 0.546909 0.038414 -0.126922
C91   C     C_R   0.817849 0.617406 0.081062 -0.148996
C92   C     C_R   0.737330 0.616813 0.114341 -0.192480
C93   C     C_R   0.329590 0.474460 0.908338 0.159230
C94   C     C_R   0.318753 0.410008 0.965741 -0.076526
C95   C     C_R   0.243427 0.400139 0.008473 -0.109797
C96   C     C_R   0.178244 0.454061 0.993986 -0.105447
C97   C     C_R   0.188139 0.517708 0.936475 -0.146162
C98   C     C_R   0.263360 0.527822 0.893596 -0.184428
H1    H     H_    0.281772 0.361992 0.451556 0.141723
H2    H     H_    0.116780 0.608668 0.529847 0.166455
H3    H     H_    0.395751 0.917427 0.318944 0.148642
H4    H     H_    0.307418 0.949006 0.206147 0.136378
H5    H     H_    0.258956 0.095030 0.185747 0.119637
H6    H     H_    0.299127 0.210085 0.278890 0.124535
H7    H     H_    0.385730 0.180300 0.391872 0.139023
H8    H     H_    0.605933 0.086077 0.662529 0.147525
H9    H     H_    0.696945 0.058415 0.774327 0.131885
H10   H     H_    0.744768 0.912647 0.798610 0.118370
H11   H     H_    0.701398 0.794415 0.710051 0.122596
H12   H     H_    0.717910 0.634742 0.556573 0.139237
H13   H     H_    0.613127 0.820621 0.597885 0.137552
H14   H     H_    0.189344 0.309411 0.338095 0.115769
H15   H     H_    0.127018 0.168598 0.305522 0.127394
H16   H     H_    0.020065 0.100691 0.395331 0.126599
H17   H     H_    0.976201 0.173522 0.519031 0.136308
H18   H     H_    0.038714 0.313481 0.553577 0.135250
H19   H     H_    0.806590 0.678138 0.672686 0.126776
H20   H     H_    0.870673 0.813644 0.718309 0.130498
H21   H     H_    0.982350 0.886294 0.637823 0.125552
H22   H     H_    0.029443 0.824072 0.509998 0.138872
H23   H     H_    0.619493 0.519111 0.746944 0.178583
H24   H     H_    0.965258 0.689603 0.462399 0.135074
H25   H     H_    0.578268 0.087617 0.306141 0.147951
H26   H     H_    0.643921 0.059128 0.175450 0.131065
H27   H     H_    0.679485 0.912065 0.137688 0.121131
H28   H     H_    0.649595 0.793217 0.231561 0.126134
H29   H     H_    0.585132 0.820027 0.361787 0.141339
H30   H     H_    0.426248 0.911317 0.680600 0.144094
H31   H     H_    0.353845 0.936460 0.808692 0.130456
H32   H     H_    0.305568 0.080329 0.842892 0.123577
H33   H     H_    0.329545 0.199339 0.748024 0.133601
H34   H     H_    0.383130 0.522608 0.249309 0.184325
H35   H     H_    0.400649 0.175713 0.620158 0.137960
H36   H     H_    0.256113 0.981412 0.444609 0.165540
H37   H     H_    0.300736 0.050003 0.519199 0.133194
H38   H     H_    0.188258 0.890755 0.551590 0.223100
H39   H     H_    0.233321 0.959982 0.625325 0.234646
H40   H     H_    0.157309 0.083112 0.568419 0.278414
H41   H     H_    0.088038 0.997787 0.602781 0.255725
H42   H     H_    0.109726 0.010603 0.498041 0.264837
H43   H     H_    0.731386 0.017111 0.399117 0.162749
H44   H     H_    0.700343 0.950896 0.482677 0.134712
H45   H     H_    0.651035 0.521660 0.257115 0.183781
H46   H     H_    0.815622 0.111248 0.487457 0.223718
H47   H     H_    0.782644 0.047041 0.571748 0.234497
H48   H     H_    0.848619 0.920225 0.508546 0.286342
H49   H     H_    0.922637 0.007261 0.522948 0.261526
H50   H     H_    0.883615 0.986080 0.425405 0.260722
H51   H     H_    0.681351 0.631261 0.948260 0.185075
H52   H     H_    0.634294 0.648544 0.855483 0.101935
H53   H     H_    0.793580 0.546258 0.873804 0.243378
H54   H     H_    0.749578 0.580960 0.783227 0.196503
H55   H     H_    0.773838 0.733435 0.824834 0.253178
H56   H     H_    0.353248 0.478892 0.750321 0.177136
H57   H     H_    0.868747 0.675272 0.819989 0.270787
H58   H     H_    0.819962 0.697192 0.914834 0.272540
H59   H     H_    0.327152 0.642517 0.026889 0.176530
H60   H     H_    0.421791 0.678426 0.070292 0.116300
H61   H     H_    0.253020 0.643469 0.159566 0.235180
H62   H     H_    0.347399 0.682212 0.204472 0.215820
H63   H     H_    0.348577 0.812372 0.119754 0.264564
H64   H     H_    0.252895 0.799906 0.177532 0.263922
H65   H     H_    0.254248 0.773741 0.073443 0.263695
H66   H     H_    0.670451 0.419699 0.053991 0.134161
H67   H     H_    0.730762 0.387144 0.461411 0.147413
H68   H     H_    0.813072 0.421313 0.995650 0.126024
H69   H     H_    0.907530 0.547414 0.012746 0.125226
H70   H     H_    0.859183 0.672343 0.088611 0.129923
H71   H     H_    0.717059 0.671317 0.148071 0.125147
H72   H     H_    0.368535 0.367434 0.977372 0.120726
H73   H     H_    0.235605 0.350675 0.052852 0.117594
H74   H     H_    0.120023 0.446432 0.027214 0.118786
H75   H     H_    0.137590 0.559416 0.925290 0.127888
H76   H     H_    0.270403 0.578024 0.849801 0.129293
H77   H     H_    0.269209 0.616070 0.530737 0.147896
H78   H     H_    0.883195 0.393943 0.463021 0.168595
N1    N     N_2   0.532600 0.552112 0.017254 -0.162367
N2    N     N_2   0.482810 0.499891 0.987429 -0.138097
N3    N     N_R   0.283080 0.489710 0.490280 -0.092932
N4    N     N_R   0.716920 0.510290 0.509720 -0.092763
N5    N     N_2   0.019328 0.468319 0.487836 -0.185792
N6    N     N_2   0.980624 0.530580 0.513965 -0.187122
O1    O     O_R   0.577460 0.503680 0.387340 -0.620177
O2    O     O_3   0.654477 0.075988 0.480201 -0.645060
O3    O     O_3   0.636167 0.520542 0.898940 -0.641205
O4    O     O_3   0.375430 0.554082 0.099852 -0.634493
O5    O     O_R   0.422540 0.496320 0.612660 -0.618639
O6    O     O_R   0.438150 0.497080 0.381100 -0.622961
O7    O     O_R   0.561850 0.502920 0.618900 -0.624077
O8    O     O_R   0.569640 0.380080 0.503110 -0.611441
O9    O     O_R   0.430360 0.619920 0.496890 -0.615107
O10   O     O_R   0.430330 0.373470 0.496870 -0.634149
O11   O     O_R   0.569670 0.626530 0.503130 -0.633402
O12   O     O_3   0.344716 0.924277 0.510336 -0.645228
Zn1   Zn    Zn3+2 0.593020 0.504410 0.504170 0.942219
Zn2   Zn    Zn3+2 0.406980 0.495590 0.495830 0.941487

loop_
_geom_bond_atom_site_label_1
_geom_bond_atom_site_label_2
_ccdc_geom_bond_type
C49   H15   S    
C87   C88   A    
C34   C56   A    
C93   C94   A    
C23   C45   A    
C22   C29   T    
C90   H69   S    
C27   C29   S    
C85   H63   S    
C41   C42   A    
C11   C47   S    
C95   C96   A    
C1    C31   S    
C62   H26   S    
C81   C82   S    
C53   C59   A    
C14   H1    S    
C53   C54   A    
C17   O9    A    
C80   H52   S    
C12   O7    A    
C83   H60   S    
C33   C39   A    
C75   H41   S    
O10   Zn2   S    
C36   C37   A    
C19   C21   S    
C4    H56   S    
C75   H42   S    
C38   C39   A    
C98   H76   S    
C11   C14   A    
C45   O4    S    
C66   C68   A    
C70   H32   S    
C56   C78   A    
C19   C66   S    
C36   H4    S    
C73   C74   S    
C19   C26   S    
O9    Zn2   S    
C5    N3    A    
C38   H6    S    
C73   H36   S    
C16   O10   A    
C82   H55   S    
C17   O11   A    
C66   C72   A    
C35   C36   A    
C68   C69   A    
O11   Zn1   S    
C74   H38   S    
C45   C67   A    
O1    Zn1   S    
C80   O3    S    
C10   C13   A    
C83   O4    S    
C70   C71   A    
C19   C27   S    
C42   H9    S    
C68   H30   S    
C14   N3    A    
C25   O2    S    
C39   H7    S    
C57   H21   S    
C82   H58   S    
C44   H11   S    
C61   C62   A    
C59   H24   S    
C77   C79   S    
C87   H66   S    
C6    H67   S    
C15   N4    A    
C12   C32   S    
C85   H64   S    
C5    H77   S    
C15   H12   S    
C94   C95   A    
C18   C25   S    
C84   H61   S    
C44   C46   A    
C97   C98   A    
C79   H48   S    
C13   C53   S    
N3    Zn2   S    
C52   H18   S    
C84   H62   S    
C80   H51   S    
C74   H39   S    
O5    Zn2   S    
C97   H75   S    
C74   C75   S    
C51   C52   A    
C17   C24   S    
C47   C48   A    
C73   H37   S    
C91   H70   S    
C18   C28   S    
C84   C85   S    
C76   O2    S    
C7    H2    S    
C91   C92   A    
C5    C7    A    
C86   C87   A    
C6    C8    A    
C58   C59   A    
N5    N6    D    
C12   O5    A    
C72   H35   S    
C86   C89   S    
C51   H17   S    
C60   C61   A    
C50   H16   S    
C32   C34   A    
C2    C4    A    
C43   C44   A    
C37   C38   A    
C2    C78   A    
O7    Zn1   S    
C83   C84   S    
C83   H59   S    
C92   H71   S    
C46   H13   S    
C96   C97   A    
C62   C63   A    
C58   H22   S    
C50   C51   A    
C3    H45   S    
C4    C32   A    
C76   C77   S    
C3    C31   A    
C9    C11   A    
C63   H27   S    
N4    Zn1   S    
C16   O8    A    
O8    Zn1   S    
C1    O1    A    
C82   H57   S    
C18   C60   S    
C48   C49   A    
C48   H14   S    
C21   C28   S    
C88   C90   A    
C60   C65   A    
C49   C50   A    
C34   H23   S    
C64   H28   S    
C55   C57   A    
C67   N1    S    
C10   N6    S    
C41   H8    S    
C42   C43   A    
C20   C33   S    
C26   O12   S    
C77   H47   S    
C37   H5    S    
C1    O6    A    
C7    C9    A    
C21   C25   S    
C54   C55   A    
C40   C41   A    
C16   C22   S    
C6    N4    A    
C78   N2    S    
C26   C28   S    
C65   H29   S    
C2    C93   S    
C80   C81   S    
C35   H3    S    
C75   H40   S    
C79   H49   S    
C8    H78   S    
C47   C52   A    
C20   C27   S    
C25   C27   S    
C81   H54   S    
C88   H68   S    
C3    C89   A    
C61   H25   S    
C64   C65   A    
C13   C15   A    
C77   H46   S    
C71   C72   A    
C81   H53   S    
C76   H43   S    
C90   C91   A    
C21   C40   S    
C20   C26   S    
C69   H31   S    
C85   H65   S    
C40   C46   A    
C28   C30   S    
C33   C35   A    
C23   H34   S    
C79   H50   S    
C18   C20   S    
C43   H10   S    
C69   C70   A    
C24   C30   T    
C9    N5    S    
C71   H33   S    
C63   C64   A    
C56   O3    S    
O6    Zn2   S    
C8    C10   A    
N1    N2    D    
C96   H74   S    
C54   H19   S    
C67   C89   A    
C86   C92   A    
C57   C58   A    
C73   O12   S    
C95   H73   S    
C93   C98   A    
C94   H72   S    
C23   C31   A    
C55   H20   S    
C76   H44   S    
