data_mof_unit_32773.cif
_audit_creation_date              2012-12-10T18:45:07-0500
_audit_creation_method            fapswitch 2.2
_symmetry_space_group_name_H-M    P1
_symmetry_Int_Tables_number       1
_space_group_crystal_system       triclinic
_cell_length_a                    10.739613
_cell_length_b                    9.907573
_cell_length_c                    10.717377
_cell_angle_alpha                 87.946183
_cell_angle_beta                  90.02381
_cell_angle_gamma                 90.096106
_cell_volume                      1139.6321811

loop_
_atom_site_label
_atom_site_type_symbol
_atom_type_description
_atom_site_fract_x
_atom_site_fract_y
_atom_site_fract_z
_atom_type_partial_charge
C1    C     C_R   0.258777 0.499732 0.503993 0.965906
C2    C     C_R   0.738250 0.501497 0.482732 0.912763
C3    C     C_R   0.934629 0.627963 0.468203 0.314844
C4    C     C_R   0.058262 0.623129 0.506068 0.292577
C5    C     C_R   0.565925 0.068349 0.587942 0.332241
C6    C     C_R   0.438490 0.076960 0.407970 0.420901
C7    C     C_R   0.560761 0.923463 0.591487 0.334370
C8    C     C_R   0.438076 0.932107 0.408827 0.252954
C9    C     C_R   0.516660 0.502922 0.261174 0.920261
C10   C     C_R   0.494170 0.497820 0.741084 0.988742
C11   C     C_R   0.542155 0.759594 0.096645 0.352496
C12   C     C_R   0.390853 0.721220 0.888521 0.306451
C13   C     C_R   0.481535 0.871678 0.037828 0.350119
C14   C     C_R   0.397902 0.850283 0.941051 0.320251
C15   C     C_R   0.462720 0.613171 0.940455 -0.136661
C16   C     C_R   0.514719 0.628260 0.057809 -0.179386
C17   C     C_R   0.543727 0.510315 0.128486 -0.108850
C18   C     C_R   0.493675 0.494357 0.876871 -0.143063
C19   C     C_R   0.574199 0.391439 0.069621 0.334618
C20   C     C_R   0.554408 0.385545 0.940694 0.305959
C21   C     C_R   0.059939 0.380193 0.468749 0.362648
C22   C     C_R   0.934901 0.387399 0.435196 0.264875
C23   C     C_R   0.869992 0.506524 0.456261 -0.361997
C24   C     C_R   0.123528 0.500079 0.498027 -0.320913
N1    N     N_R   0.500000 0.857200 0.500000 -0.156367
N2    N     N_R   0.500000 0.142810 0.500000 -0.183322
O1    O     O_R   0.316770 0.614620 0.499990 -0.613417
O2    O     O_R   0.683230 0.614620 0.500010 -0.522708
O3    O     O_R   0.316800 0.385290 0.500000 -0.555951
O4    O     O_R   0.683200 0.385290 0.500000 -0.609849
O5    O     O_R   0.500010 0.614690 0.316770 -0.596890
O6    O     O_R   0.499990 0.614690 0.683230 -0.553574
O7    O     O_R   0.500040 0.385360 0.316770 -0.531887
O8    O     O_R   0.499960 0.385360 0.683230 -0.533790
Zn1   Zn    Zn3+2 0.500000 0.653120 0.500000 1.046081
Zn2   Zn    Zn3+2 0.500000 0.346880 0.500000 1.076028
O9    O     O_3   0.626286 0.286397 0.140413 -0.759842
H1    H     H_    0.627511 0.203186 0.092976 0.373513
O10   O     O_3   0.594248 0.276276 0.875899 -0.662482
H2    H     H_    0.677285 0.249836 0.908219 0.332058
O11   O     O_3   0.636424 0.775729 0.182125 -0.746137
H3    H     H_    0.683072 0.858547 0.156995 0.311866
O12   O     O_3   0.311960 0.697812 0.790646 -0.775102
H4    H     H_    0.314340 0.778932 0.733867 0.360126
O13   O     O_3   0.494819 0.001740 0.077280 -0.703160
H5    H     H_    0.534076 0.999743 0.160711 0.360305
O14   O     O_3   0.325687 0.957743 0.899575 -0.709391
H6    H     H_    0.246129 0.921696 0.868324 0.325245
O15   O     O_3   0.121280 0.257757 0.474395 -0.752223
H7    H     H_    0.061827 0.183637 0.460316 0.353427
O16   O     O_3   0.880742 0.279977 0.377029 -0.803829
H8    H     H_    0.809367 0.313709 0.326287 0.377283
O17   O     O_3   0.875044 0.751374 0.453618 -0.563320
C25   C     C_3   0.909676 0.811457 0.337341 0.139078
H9    H     H_    0.870110 0.753002 0.259954 0.163651
H10   H     H_    0.012747 0.817368 0.325918 0.151049
C26   C     C_3   0.859567 0.954786 0.328618 -0.789669
H11   H     H_    0.907828 0.016311 0.398009 0.254132
H12   H     H_    0.876862 0.000016 0.233902 0.212709
H13   H     H_    0.758024 0.955572 0.348265 0.258985
O18   O     O_3   0.116857 0.740454 0.542083 -0.575364
C27   C     C_3   0.060718 0.788839 0.651822 0.144407
H14   H     H_    0.098258 0.734126 0.735268 0.174408
H15   H     H_    0.958056 0.775797 0.657265 0.174975
C28   C     C_3   0.086907 0.938988 0.659196 -0.839740
H16   H     H_    0.035642 0.993512 0.583486 0.250115
H17   H     H_    0.054411 0.975844 0.750194 0.210747
H18   H     H_    0.187901 0.960163 0.647994 0.266688
O19   O     O_3   0.640611 0.135075 0.670888 -0.523725
C29   C     C_3   0.766765 0.117012 0.637182 0.120500
H19   H     H_    0.781104 0.143560 0.537094 0.199803
H20   H     H_    0.797455 0.010939 0.654340 0.152297
C30   C     C_3   0.850068 0.207009 0.713693 -0.794160
H21   H     H_    0.853532 0.168174 0.812027 0.227042
H22   H     H_    0.946160 0.206770 0.675884 0.224734
H23   H     H_    0.814964 0.312408 0.710318 0.268578
O20   O     O_3   0.395275 0.154957 0.306394 -0.539523
C31   C     C_3   0.275431 0.118435 0.264733 0.247078
H24   H     H_    0.214843 0.079717 0.342135 0.143274
H25   H     H_    0.282242 0.040850 0.193041 0.219419
C32   C     C_3   0.215383 0.241161 0.199808 -0.758743
H26   H     H_    0.265996 0.267415 0.111812 0.256172
H27   H     H_    0.116706 0.218634 0.177387 0.211353
H28   H     H_    0.219252 0.329634 0.260162 0.267512
O21   O     O_3   0.617812 0.847382 0.685185 -0.722823
H29   H     H_    0.632111 0.904742 0.757686 0.340445
O22   O     O_3   0.378010 0.868865 0.314263 -0.792396
H30   H     H_    0.348312 0.781015 0.347257 0.392194

loop_
_geom_bond_atom_site_label_1
_geom_bond_atom_site_label_2
_ccdc_geom_bond_type
C15   C18   A    
O22   H30   S    
C3    O17   S    
C30   H21   S    
C3    C23   A    
C19   C20   A    
C21   O15   S    
C32   H26   S    
C7    O21   S    
O20   C31   S    
O3    Zn2   S    
C27   H14   S    
C12   O12   S    
C4    C24   A    
C31   H25   S    
C26   H12   S    
C15   C16   A    
O7    Zn2   S    
O11   H3    S    
C5    O19   S    
C19   O9    S    
O2    Zn1   S    
C16   C17   A    
C28   H17   S    
C27   H15   S    
C29   H19   S    
C18   C20   A    
C21   C22   A    
C9    O7    A    
C8    N1    A    
C30   H22   S    
O18   C27   S    
C32   H27   S    
C25   H10   S    
O16   H8    S    
O6    Zn1   S    
O10   H2    S    
C5    C7    A    
C20   O10   S    
C31   H24   S    
C26   H13   S    
C6    C8    A    
O1    Zn1   S    
O21   H29   S    
C4    O18   S    
O12   H4    S    
O9    H1    S    
C10   O6    A    
C11   C16   A    
O14   H6    S    
C12   C15   A    
C28   H18   S    
C29   C30   S    
C1    O3    A    
C10   O8    A    
N1    Zn1   S    
C9    C17   S    
C12   C14   A    
C28   H16   S    
C30   H23   S    
O5    Zn1   S    
C3    C4    A    
C32   H28   S    
N2    Zn2   S    
C25   H9    S    
C27   C28   S    
C6    O20   S    
C2    O2    A    
O17   C25   S    
C14   O14   S    
C7    N1    A    
O4    Zn2   S    
C2    O4    A    
C8    O22   S    
C13   O13   S    
C11   C13   A    
C31   C32   S    
C26   H11   S    
C6    N2    A    
C10   C18   S    
C17   C19   A    
C11   O11   S    
O8    Zn2   S    
O19   C29   S    
C9    O5    A    
C5    N2    A    
O13   H5    S    
C1    C24   S    
O15   H7    S    
C21   C24   A    
C2    C23   S    
C1    O1    A    
C22   C23   A    
C29   H20   S    
C13   C14   A    
C22   O16   S    
C25   C26   S    
