data_mof_unit_66552.cif
_audit_creation_date              2013-03-05T15:58:58-0500
_audit_creation_method            fapswitch 2.2
_symmetry_space_group_name_H-M    P1
_symmetry_Int_Tables_number       1
_space_group_crystal_system       triclinic
_cell_length_a                    8.207379
_cell_length_b                    12.659872
_cell_length_c                    14.90024
_cell_angle_alpha                 96.945441
_cell_angle_beta                  97.835641
_cell_angle_gamma                 98.574872
_cell_volume                      1500.75097004

loop_
_atom_site_label
_atom_site_type_symbol
_atom_site_description
_atom_site_fract_x
_atom_site_fract_y
_atom_site_fract_z
_atom_type_partial_charge
P1    P     P_3+3 0.998730 0.403530 0.291970 0.454838
O1    O     O_2   0.827880 0.435260 0.277750 -0.386081
O2    O     O_3   0.100280 0.438960 0.391170 -0.384051
O3    O     O_3   0.625580 0.634130 0.333250 -0.350088
O4    O     O_2   0.699174 0.549385 0.175770 -0.380083
O5    O     O_3   0.979881 0.264090 0.258026 -0.574763
O6    O     O_3   0.665442 0.749782 0.187803 -0.487035
H1    H     H_    0.649784 0.890254 0.266425 0.100092
C1    C     C_3   0.504257 0.875289 0.132031 -1.052564
H2    H     H_    0.453699 0.948940 0.153515 0.281201
H3    H     H_    0.607019 0.895925 0.092563 0.282742
P2    P     P_3+3 0.687380 0.751030 0.571310 0.450900
P3    P     P_3+3 0.101061 0.829230 0.378449 0.477496
O7    O     O_2   0.857130 0.766340 0.543890 -0.377215
O8    O     O_3   0.056550 0.691050 0.379010 -0.355843
O9    O     O_2   0.996376 0.882021 0.444016 -0.367035
O10   O     O_3   0.728259 0.786376 0.690553 -0.576522
O11   O     O_3   0.014801 0.853442 0.270445 -0.480296
C2    C     C_3   0.114440 0.819750 0.206888 0.416159
H4    H     H_    0.149212 0.739525 0.215954 0.054395
H5    H     H_    0.227676 0.881562 0.214698 0.082024
C3    C     C_3   0.019794 0.810389 0.110188 -0.808128
H6    H     H_    0.913362 0.742439 0.098173 0.266852
H7    H     H_    0.972376 0.886407 0.099751 0.278340
C4    C     C_3   0.266165 0.779140 0.650508 0.396907
H8    H     H_    0.374602 0.749187 0.626597 0.092388
H9    H     H_    0.156004 0.756423 0.595872 0.140315
C5    C     C_3   0.303975 0.901376 0.671920 -0.921148
H10   H     H_    0.417754 0.925949 0.723887 0.256261
H11   H     H_    0.324921 0.937129 0.609425 0.233346
H12   H     H_    0.197625 0.932228 0.698738 0.287359
Ba1   Ba    Ba6+2 0.843750 0.550210 0.455600 1.551884
C6    C     C_3   0.866928 0.200808 0.299779 0.626750
H13   H     H_    0.780266 0.247812 0.330816 0.089140
C7    C     C_3   0.966742 0.151904 0.372963 -0.874745
H14   H     H_    0.070962 0.118950 0.345775 0.288731
H15   H     H_    0.887253 0.084172 0.394943 0.204417
H16   H     H_    0.018644 0.215532 0.431827 0.263759
C8    C     C_3   0.775308 0.699557 0.731629 0.447601
H17   H     H_    0.889530 0.678265 0.707766 0.092615
H18   H     H_    0.673899 0.628347 0.715903 0.128662
C9    C     C_3   0.811072 0.733322 0.834948 -0.999160
H19   H     H_    0.916287 0.802206 0.852968 0.276290
H20   H     H_    0.844645 0.665381 0.869930 0.221919
H21   H     H_    0.698688 0.757899 0.859702 0.264831
P4    P     P_3+3 0.190990 0.596560 0.708040 0.456355
O12   O     O_2   0.361830 0.564780 0.722310 -0.371460
O13   O     O_3   0.089430 0.561130 0.608830 -0.409100
O14   O     O_3   0.564130 0.365960 0.666760 -0.365913
O15   O     O_3   0.235646 0.737601 0.730503 -0.565239
P5    P     P_3+3 0.088530 0.170364 0.624758 0.454361
O16   O     O_3   0.601940 0.368240 0.453770 -0.380791
O17   O     O_3   0.133170 0.309040 0.621000 -0.381947
O18   O     O_2   0.207229 0.117438 0.568076 -0.367377
O19   O     O_3   0.151323 0.146403 0.736590 -0.517771
Ba2   Ba    Ba6+2 0.346090 0.449880 0.544410 1.549059
P6    P     P_3+3 0.586430 0.624149 0.215049 0.478805
C10   C     C_3   0.568261 0.826409 0.215462 0.457727
H22   H     H_    0.461348 0.795114 0.248848 -0.006480
H23   H     H_    0.403470 0.817079 0.087064 0.255285
O20   O     O_3   0.587780 0.631850 0.546230 -0.404995
C11   C     C_3   0.392411 0.286093 0.266837 0.240265
H24   H     H_    0.290681 0.307360 0.303388 0.131852
H25   H     H_    0.490714 0.358780 0.275272 0.071888
C12   C     C_3   0.321232 0.254649 0.164263 -0.068419
H26   H     H_    0.214268 0.296018 0.146767 0.071323
H27   H     H_    0.415555 0.283349 0.122029 0.068186
P7    P     P_3+3 0.505558 0.233266 0.422370 0.421089
O21   O     O_2   0.332590 0.233690 0.456160 -0.356263
O22   O     O_3   0.459237 0.201167 0.302734 -0.584567
H28   H     H_    0.103357 0.794058 0.059415 0.201523
C13   C     C_3   0.121769 0.232081 0.798206 0.443617
H29   H     H_    0.202824 0.308451 0.792092 0.154891
H30   H     H_    0.989371 0.242715 0.785862 0.010925
C14   C     C_3   0.161890 0.208089 0.895632 -0.870185
H31   H     H_    0.295890 0.201802 0.911663 0.296200
H32   H     H_    0.134676 0.273955 0.944709 0.201379
H33   H     H_    0.085172 0.130876 0.903778 0.267941
P8    P     P_3+3 0.605079 0.374912 0.785150 0.446099
C15   C     C_3   0.612117 0.169722 0.758963 0.476274
H34   H     H_    0.715481 0.205132 0.725084 0.026016
O23   O     O_2   0.484275 0.443196 0.825470 -0.395264
O24   O     O_3   0.544101 0.245992 0.812822 -0.521842
H35   H     H_    0.512073 0.123987 0.704426 0.130962
H36   H     H_    0.779052 0.137309 0.874110 0.262576
C16   C     C_3   0.678740 0.092211 0.819424 -1.040628
H37   H     H_    0.730105 0.030068 0.777771 0.250068
H38   H     H_    0.577278 0.051945 0.852038 0.285692
C17   C     C_R   0.824547 0.435050 0.830034 0.174761
C18   C     C_R   0.894069 0.443835 0.923155 -0.017434
C19   C     C_R   0.035066 0.462788 0.111477 -0.027509
C20   C     C_R   0.874896 0.404649 0.077501 -0.102561
C21   C     C_R   0.804553 0.397085 0.986232 -0.182282
C22   C     C_R   0.104778 0.474522 0.206179 0.271911
H39   H     H_    0.799096 0.365701 0.120980 0.164284
H40   H     H_    0.678983 0.353208 0.966227 0.184077
C23   C     C_R   0.267854 0.529418 0.233969 -0.533676
C24   C     C_R   0.082754 0.533621 0.796164 0.245542
C25   C     C_R   0.152638 0.546552 0.890585 -0.034878
C26   C     C_R   0.058790 0.499608 0.953802 0.009231
C27   C     C_R   0.314059 0.603548 0.923895 -0.072562
C28   C     C_R   0.386004 0.607478 0.014637 -0.207684
C29   C     C_R   0.295107 0.562474 0.078220 -0.015928
C30   C     C_R   0.129153 0.509258 0.048141 0.021074
C31   C     C_R   0.364901 0.569749 0.171170 0.146700
C32   C     C_R   0.921496 0.475850 0.767702 -0.541816
H41   H     H_    0.513304 0.648482 0.034256 0.184769
H42   H     H_    0.389044 0.644583 0.880434 0.171863
H43   H     H_    0.323437 0.535200 0.304891 0.184524
H44   H     H_    0.867490 0.467068 0.696248 0.184061
C33   C     C_R   0.769199 0.181756 0.536771 -0.482694
C34   C     C_R   0.422132 0.807608 0.458505 -0.478076
C35   C     C_R   0.390682 0.985645 0.425300 -0.220961
C36   C     C_R   0.324733 0.877357 0.420232 0.144637
C37   C     C_R   0.580224 0.847029 0.510141 0.300277
C38   C     C_R   0.646227 0.959158 0.519594 -0.058405
C39   C     C_R   0.550481 0.028412 0.474807 -0.061034
C40   C     C_R   0.614567 0.139644 0.483360 0.246166
C41   C     C_R   0.868450 0.114219 0.576451 0.199746
C42   C     C_R   0.805145 0.004334 0.570971 -0.194054
H45   H     H_    0.311897 0.035904 0.393349 0.189240
H46   H     H_    0.883559 0.955673 0.605443 0.187403
H47   H     H_    0.818250 0.266858 0.541773 0.178000
H48   H     H_    0.369406 0.723186 0.453910 0.168818
C43   C     C_3   0.766377 0.108673 0.227200 -0.366845
C44   C     C_3   0.715045 0.146010 0.135411 -0.735163
H49   H     H_    0.646138 0.213611 0.145998 0.233173
H50   H     H_    0.826522 0.171659 0.103600 0.261371
H51   H     H_    0.633755 0.079828 0.087001 0.264628
H52   H     H_    0.840119 0.042937 0.214616 0.244943
H53   H     H_    0.653385 0.074319 0.253759 0.176106
N1    N     N_R   0.264471 0.138614 0.139108 0.290310
O25   O     O_R   0.309228 0.087521 0.067884 -0.425859
O26   O     O_R   0.151557 0.088894 0.179582 -0.403764

loop_
_geom_bond_atom_site_label_1
_geom_bond_atom_site_label_2
_geom_bond_distance
_ccdc_geom_bond_type
P6    C31   1.844208 S    
C44   H49   1.101427 S    
C2    H4    1.113695 S    
C19   C30   1.424963 A    
C15   H35   1.110086 S    
C34   C36   1.397114 A    
O8    Ba1   2.763841 S    
C8    H18   1.110098 S    
H36   C16   1.110016 S    
C4    C5    1.517635 S    
C27   C28   1.391590 A    
P3    O11   1.748804 S    
C33   C40   1.395883 A    
C33   C41   1.393848 A    
C5    H10   1.107398 S    
C7    H15   1.107922 S    
Ba1   O20   2.896355 S    
C34   H48   1.081909 S    
C13   C14   1.521230 S    
C16   H38   1.110460 S    
C37   C38   1.424737 A    
C26   C30   1.428434 A    
O11   C2    1.401795 S    
C38   C39   1.426714 A    
C11   O22   1.406334 S    
O1    Ba1   2.841469 S    
C1    C10   1.519608 S    
O10   C8    1.398783 S    
C14   H32   1.110199 S    
C4    O15   1.397764 S    
Ba1   O16   2.802367 S    
C15   C16   1.520858 S    
H1    C10   1.108762 S    
C43   H52   1.112399 S    
C7    H14   1.108988 S    
P1    C22   1.883440 S    
C12   H27   1.109771 S    
C17   C32   1.399094 A    
P5    C41   1.850635 S    
C1    H2    1.106108 S    
O6    C10   1.403834 S    
C11   H25   1.111985 S    
P3    C36   1.841723 S    
O16   P7    1.751323 S    
C13   H29   1.109792 S    
P2    C37   1.857230 S    
C23   C31   1.402913 A    
C27   H42   1.078279 S    
P4    C24   1.873009 S    
P2    Ba1   3.405793 S    
Ba1   O13   2.807674 S    
C28   C29   1.405444 A    
C9    H20   1.107861 S    
C15   O24   1.408342 S    
C18   C26   1.415563 A    
C42   H46   1.078022 S    
C8    C9    1.522859 S    
P4    O13   1.572701 S    
C33   H47   1.082319 S    
P1    O5    1.754220 S    
C7    H16   1.106589 S    
C13   H30   1.108086 S    
C19   C20   1.402155 A    
Ba2   O21   2.869083 S    
C16   H37   1.110868 S    
P7    O21   1.570135 D    
C44   H51   1.106056 S    
C4    H8    1.103282 S    
C20   H39   1.070290 S    
C38   C42   1.419071 A    
P1    O2    1.572547 S    
C9    H21   1.110948 S    
O3    P6    1.732300 S    
C14   H31   1.109952 S    
C11   H24   1.105345 S    
C23   H43   1.081705 S    
O2    Ba2   2.808420 S    
C43   H53   1.107777 S    
C25   C26   1.424936 A    
C2    C3    1.523018 S    
C6    C43   1.541319 S    
C6    H13   1.105995 S    
C35   H45   1.077789 S    
C28   H41   1.079269 S    
C29   C31   1.411339 A    
C1    H3    1.110009 S    
O3    Ba1   2.793586 S    
C35   C39   1.408994 A    
N1    O26   1.299600 A    
C25   C27   1.404006 A    
P2    O7    1.496441 D    
C12   H26   1.104846 S    
C21   H40   1.079362 S    
P3    O8    1.734219 S    
C43   C44   1.526464 S    
C3    H7    1.110497 S    
C9    H19   1.110796 S    
C3    H28   1.109673 S    
C8    H17   1.104978 S    
C12   N1    1.459649 S    
C18   C21   1.402335 A    
C35   C36   1.385859 A    
C32   H44   1.081850 S    
O17   Ba2   2.764424 S    
O13   Ba2   2.907133 S    
P4    O12   1.510208 D    
C44   H50   1.110900 S    
C11   C12   1.541341 S    
C2    H5    1.105106 S    
C3    H6    1.109568 S    
C5    H12   1.110455 S    
O19   C13   1.405916 S    
O7    Ba1   2.868770 S    
C15   H34   1.110653 S    
C24   C32   1.396322 A    
P8    O23   1.543911 D    
C41   C42   1.399034 A    
C4    H9    1.108167 S    
O14   Ba2   2.792938 S    
P4    O15   1.749703 S    
C22   C23   1.395617 A    
O5    C6    1.394493 S    
O4    P6    1.539322 D    
C1    H23   1.106312 S    
P5    O18   1.547093 D    
C5    H11   1.106307 S    
C10   H22   1.112392 S    
C39   C40   1.411845 A    
C19   C22   1.429826 A    
P8    O24   1.749201 S    
P2    O20   1.580163 S    
P1    O1    1.509983 D    
C20   C21   1.389188 A    
C6    C7    1.521338 S    
Ba1   Ba2   4.514488 S    
N1    O25   1.300281 A    
P5    O19   1.751837 S    
P1    Ba1   3.386095 S    
O2    Ba1   2.906290 S    
C14   H33   1.110284 S    
P8    C17   1.846858 S    
O14   P8    1.736747 S    
P2    O10   1.752154 S    
P7    C40   1.840150 S    
P7    O22   1.755367 S    
C24   C25   1.425282 A    
P3    O9    1.543220 D    
P4    Ba2   3.386642 S    
C29   C30   1.413085 A    
Ba2   O20   2.801819 S    
P5    O17   1.748464 S    
C17   C18   1.411051 A    
O6    P6    1.742248 S    
C34   C37   1.402294 A    
O16   Ba2   2.895604 S    
O12   Ba2   2.842035 S    
