data_mof_unit_6675.cif
_audit_creation_date              2013-03-05T16:06:54-0500
_audit_creation_method            fapswitch 2.2
_symmetry_space_group_name_H-M    P1
_symmetry_Int_Tables_number       1
_space_group_crystal_system       triclinic
_cell_length_a                    10.876622
_cell_length_b                    9.58539
_cell_length_c                    10.822073
_cell_angle_alpha                 91.127981
_cell_angle_beta                  90.612002
_cell_angle_gamma                 90.176143
_cell_volume                      1127.98414768

loop_
_atom_site_label
_atom_site_type_symbol
_atom_site_description
_atom_site_fract_x
_atom_site_fract_y
_atom_site_fract_z
_atom_type_partial_charge
O1    O     O_R   0.319640 0.618740 0.499990 -0.602796
O2    O     O_R   0.680360 0.618740 0.500010 -0.597634
O3    O     O_R   0.319620 0.381170 0.499990 -0.560800
O4    O     O_R   0.680380 0.381170 0.500010 -0.551049
C1    C     C_R   0.262252 0.499287 0.505004 0.846399
C2    C     C_R   0.737567 0.499459 0.493978 0.870788
O5    O     O_R   0.499990 0.618810 0.319660 -0.591657
O6    O     O_R   0.500010 0.618810 0.680340 -0.556435
O7    O     O_R   0.499960 0.381240 0.319650 -0.523096
O8    O     O_R   0.500040 0.381240 0.680350 -0.541663
C3    C     C_R   0.489809 0.498051 0.262481 0.868738
C4    C     C_R   0.508066 0.501143 0.737696 0.898441
Cu1   Cu    Cu3+1 0.500000 0.640660 0.500000 1.024238
Cu2   Cu    Cu3+1 0.500000 0.359340 0.500000 1.101304
C5    C     C_R   0.429196 0.601536 0.060790 0.010598
C6    C     C_R   0.450225 0.608359 0.935880 -0.067360
C7    C     C_R   0.472617 0.489980 0.128323 -0.229112
C8    C     C_R   0.510635 0.501739 0.872279 -0.174408
C9    C     C_R   0.504333 0.368407 0.060890 0.332114
C10   C     C_R   0.542704 0.380810 0.937867 0.332180
C11   C     C_3   0.476214 0.761689 0.948360 0.158065
C12   C     C_3   0.430837 0.754441 0.081772 0.172905
H1    H     H_    0.420533 0.824477 0.883554 0.153348
H2    H     H_    0.496651 0.792663 0.153990 0.174003
C13   C     C_R   0.061826 0.369396 0.507891 0.254945
C14   C     C_R   0.936542 0.370019 0.481362 0.268768
C15   C     C_R   0.871625 0.497310 0.489062 -0.130605
C16   C     C_R   0.127955 0.496707 0.507962 -0.131909
C17   C     C_R   0.936614 0.623469 0.499873 -0.167528
C18   C     C_R   0.063907 0.623228 0.503464 -0.147321
H3    H     H_    0.889365 0.722772 0.503436 0.188945
H4    H     H_    0.111874 0.722480 0.505608 0.192640
C19   C     C_R   0.405506 0.072365 0.447424 0.123424
C20   C     C_R   0.595741 0.075478 0.550148 0.109628
H5    H     H_    0.330303 0.125862 0.403577 0.197783
H6    H     H_    0.672358 0.131466 0.591751 0.197407
C21   C     C_R   0.404510 0.924262 0.449082 0.019511
C22   C     C_R   0.596772 0.927452 0.548159 0.053542
H7    H     H_    0.327504 0.867829 0.408472 0.174189
H8    H     H_    0.676034 0.874015 0.584254 0.166998
N1    N     N_R   0.500000 0.852070 0.500000 -0.198395
N2    N     N_R   0.500000 0.147940 0.500000 -0.192574
S1    S     S_3+6 0.440854 0.207862 0.104829 0.108904
O9    O     O_2   0.535548 0.123186 0.172013 -0.226131
O10   O     O_2   0.333215 0.234726 0.187805 -0.255507
O11   O     O_3   0.388812 0.121180 0.978420 -0.444794
H9    H     H_    0.442022 0.038603 0.971441 0.390811
S2    S     S_3+6 0.656331 0.264345 0.881805 0.071070
O12   O     O_2   0.596199 0.138854 0.821902 -0.275994
O13   O     O_2   0.736064 0.335443 0.789238 -0.304859
O14   O     O_3   0.744926 0.213974 0.001038 -0.435488
H10   H     H_    0.816086 0.166485 0.962549 0.404736
S3    S     S_3+6 0.639270 0.796390 0.945814 0.033199
O15   O     O_2   0.665288 0.935469 0.006517 -0.204411
O16   O     O_2   0.707683 0.685872 0.015166 -0.264940
O17   O     O_3   0.688510 0.796965 0.799578 -0.527488
H11   H     H_    0.777485 0.818623 0.806055 0.383984
S4    S     S_3+6 0.274672 0.810420 0.104759 0.039673
O18   O     O_2   0.210112 0.830728 0.982921 -0.235221
O19   O     O_2   0.206855 0.701735 0.176017 -0.273213
O20   O     O_3   0.272863 0.960412 0.186612 -0.485245
H12   H     H_    0.185005 0.977548 0.204496 0.397603
Br1   Br    Br    0.131052 0.194752 0.561654 -0.428548
Br2   Br    Br    0.864576 0.197612 0.417760 -0.394699

loop_
_geom_bond_atom_site_label_1
_geom_bond_atom_site_label_2
_geom_bond_distance
_ccdc_geom_bond_type
C12   S4    1.801183 S    
C18   H4    1.083352 S    
O7    Cu2   1.967118 S    
C17   H3    1.083329 S    
C6    C11   1.499024 S    
O6    C4    1.300807 A    
C15   C17   1.401109 A    
C1    C16   1.461534 S    
O7    C3    1.294305 A    
C9    C10   1.406634 A    
C8    C10   1.413762 A    
C2    C15   1.459823 S    
C20   N2    1.366959 A    
Cu2   N2    2.026351 S    
S1    O9    1.503518 D    
S4    O20   1.674080 S    
S2    O13   1.503949 D    
S4    O18   1.503549 D    
C16   C18   1.401863 A    
C21   H7    1.080402 S    
O2    C2    1.304220 A    
S3    O15   1.499363 D    
C13   C16   1.414598 A    
C11   S3    1.804017 S    
S1    O10   1.502841 D    
C14   C15   1.413072 A    
C10   S2    1.771887 S    
O3    Cu2   1.973691 S    
O8    C4    1.297629 A    
C21   N1    1.366889 A    
O1    C1    1.304745 A    
C19   N2    1.368041 A    
Cu1   N1    2.026447 S    
C11   C12   1.533595 S    
S2    O12   1.500124 D    
C22   H8    1.077765 S    
C9    S1    1.760766 S    
O5    C3    1.305587 A    
C20   H6    1.079302 S    
S3    O16   1.504468 D    
C11   H1    1.109351 S    
O4    Cu2   1.972410 S    
O20   H12   0.990586 S    
S1    O11   1.678700 S    
C12   H2    1.110234 S    
S2    O14   1.681522 S    
O4    C2    1.294682 A    
O1    Cu1   1.972284 S    
C17   C18   1.384663 A    
C5    C6    1.376197 A    
O6    Cu1   1.966953 S    
O5    Cu1   1.958754 S    
O17   H11   0.990599 S    
C22   N1    1.367614 A    
C6    C8    1.391411 A    
O8    Cu2   1.958898 S    
S3    O17   1.676256 S    
C4    C8    1.456327 S    
C5    C7    1.388201 A    
O2    Cu1   1.973568 S    
C14   Br2   1.937340 S    
O11   H9    0.984159 S    
C3    C7    1.462387 S    
C7    C9    1.408512 A    
C13   Br1   1.935087 S    
C19   H5    1.077511 S    
C13   C14   1.389633 A    
Cu1   Cu2   2.696562 S    
S4    O19   1.504377 D    
C5    C12   1.478739 S    
C19   C21   1.420104 A    
O14   H10   0.990619 S    
O3    C1    1.294918 A    
C20   C22   1.418703 A    
