data_mof_unit_30066.cif
_audit_creation_date              2012-12-10T18:04:45-0500
_audit_creation_method            fapswitch 2.2
_symmetry_space_group_name_H-M    P1
_symmetry_Int_Tables_number       1
_space_group_crystal_system       triclinic
_cell_length_a                    19.700528
_cell_length_b                    17.477784
_cell_length_c                    12.645231
_cell_angle_alpha                 90.644521
_cell_angle_beta                  98.969674
_cell_angle_gamma                 89.845543
_cell_volume                      4300.5063893

loop_
_atom_site_label
_atom_site_type_symbol
_atom_type_description
_atom_site_fract_x
_atom_site_fract_y
_atom_site_fract_z
_atom_type_partial_charge
C1    C     C_R   0.411062 0.102945 0.443591 0.889555
C2    C     C_R   0.410912 0.897265 0.443398 0.905702
C3    C     C_R   0.911409 0.603056 0.444065 0.891923
C4    C     C_R   0.910748 0.397211 0.443212 0.903381
C5    C     C_R   0.728221 0.239473 0.537480 0.080960
C6    C     C_R   0.741735 0.779589 0.538087 0.069469
C7    C     C_R   0.241061 0.721005 0.536854 0.078746
C8    C     C_R   0.231216 0.269032 0.521891 0.077921
C9    C     C_R   0.763468 0.237974 0.645098 0.056535
C10   C     C_R   0.778292 0.785240 0.644499 0.057612
C11   C     C_R   0.281392 0.710346 0.639439 0.072618
C12   C     C_R   0.200203 0.202749 0.557497 0.038271
C13   C     C_R   0.351660 0.730184 0.655584 -0.064917
C14   C     C_R   0.209079 0.132048 0.506698 -0.048015
C15   C     C_R   0.833636 0.257454 0.666166 -0.072933
C16   C     C_R   0.847912 0.763108 0.665147 -0.063976
C17   C     C_R   0.379614 0.763466 0.571490 0.076774
C18   C     C_R   0.260373 0.126239 0.440845 0.065760
C19   C     C_R   0.866097 0.278213 0.580186 0.102135
C20   C     C_R   0.878683 0.732795 0.581072 0.109649
C21   C     C_R   0.665287 0.202106 0.513983 -0.231534
C22   C     C_R   0.674810 0.807475 0.517594 -0.201988
C23   C     C_R   0.173520 0.694176 0.519758 -0.194388
C24   C     C_R   0.200830 0.339995 0.536034 -0.217464
C25   C     C_R   0.667964 0.169901 0.699672 -0.193100
C26   C     C_R   0.680534 0.850439 0.700507 -0.174553
C27   C     C_R   0.185338 0.644987 0.698930 -0.190956
C28   C     C_R   0.131522 0.283908 0.655579 -0.161434
C29   C     C_R   0.358343 0.840058 0.406293 -0.096682
C30   C     C_R   0.373729 0.174399 0.415624 -0.066236
C31   C     C_R   0.857145 0.340525 0.406348 -0.090590
C32   C     C_R   0.861652 0.662885 0.408104 -0.091991
C33   C     C_R   0.643674 0.009099 0.134396 -0.297924
C34   C     C_R   0.139784 0.477243 0.131771 -0.287161
C35   C     C_R   0.381663 0.977414 0.769965 0.062907
C36   C     C_R   0.878845 0.504749 0.763769 0.118808
C37   C     C_R   0.364372 0.953683 0.867023 -0.262198
C38   C     C_R   0.853689 0.505378 0.859462 -0.252617
C39   C     C_R   0.591002 0.900059 0.557432 0.882111
C40   C     C_R   0.588631 0.102789 0.556617 0.837687
C41   C     C_R   0.092704 0.401842 0.558450 0.861250
C42   C     C_R   0.091233 0.599869 0.558057 0.858006
C43   C     C_R   0.413512 0.949852 0.955889 0.147720
C44   C     C_R   0.897751 0.500975 0.955362 0.150240
C45   C     C_R   0.477831 0.983307 0.953808 -0.030228
C46   C     C_R   0.970425 0.501011 0.955421 -0.010073
C47   C     C_R   0.496904 0.000589 0.852943 0.207810
C48   C     C_R   0.993981 0.498855 0.854388 0.234747
C49   C     C_R   0.525545 0.993337 0.047588 0.011457
C50   C     C_R   0.020834 0.500420 0.048672 0.006211
C51   C     C_R   0.595619 0.004397 0.040700 0.192608
C52   C     C_R   0.091023 0.486887 0.040052 0.188916
C53   C     C_R   0.616170 0.010393 0.940503 -0.286105
C54   C     C_R   0.112076 0.485200 0.940416 -0.272384
C55   C     C_R   0.567276 0.009600 0.848087 -0.189298
C56   C     C_R   0.064351 0.494373 0.849264 -0.168424
C57   C     C_R   0.504895 0.996580 0.148605 -0.015921
C58   C     C_R   0.005454 0.514712 0.150917 -0.016168
C59   C     C_R   0.620690 0.005412 0.232915 0.010672
C60   C     C_R   0.118443 0.481507 0.230856 0.026121
C61   C     C_R   0.729138 0.209923 0.726497 -0.121678
C62   C     C_R   0.744827 0.816515 0.726091 -0.121295
C63   C     C_R   0.250762 0.676772 0.721611 -0.118114
C64   C     C_R   0.155622 0.211451 0.633664 -0.131627
C65   C     C_R   0.639440 0.161175 0.592029 -0.042719
C66   C     C_R   0.647586 0.849121 0.594515 -0.032495
C67   C     C_R   0.148601 0.650318 0.595725 -0.029816
C68   C     C_R   0.145302 0.344652 0.591673 -0.060693
C69   C     C_R   0.320500 0.849194 0.304166 -0.131600
C70   C     C_R   0.412220 0.236976 0.389784 -0.188531
C71   C     C_R   0.826144 0.340481 0.299322 -0.158243
C72   C     C_R   0.829449 0.661177 0.301090 -0.170959
C73   C     C_R   0.259647 0.809797 0.274078 -0.089649
C74   C     C_R   0.388439 0.311176 0.400741 -0.130005
C75   C     C_R   0.760876 0.310107 0.270078 -0.119190
C76   C     C_R   0.770957 0.704404 0.269687 -0.118091
C77   C     C_R   0.233005 0.765976 0.348711 -0.166354
C78   C     C_R   0.328388 0.323575 0.443812 -0.164037
C79   C     C_R   0.726071 0.280147 0.347906 -0.172776
C80   C     C_R   0.741396 0.744900 0.346024 -0.164968
C81   C     C_R   0.269126 0.757878 0.454433 0.072232
C82   C     C_R   0.288132 0.260964 0.467542 0.062556
C83   C     C_R   0.759313 0.272810 0.455452 0.076158
C84   C     C_R   0.772704 0.746176 0.455250 0.056952
C85   C     C_R   0.336370 0.787475 0.477923 0.042933
C86   C     C_R   0.307732 0.186371 0.441271 0.041348
C87   C     C_R   0.827598 0.298107 0.481366 0.065489
C88   C     C_R   0.838280 0.713476 0.482080 0.039441
H1    H     H_    0.646097 0.141309 0.761982 0.155108
H2    H     H_    0.658518 0.880965 0.762048 0.161265
H3    H     H_    0.165473 0.612500 0.759794 0.152712
H4    H     H_    0.093902 0.289743 0.709005 0.194417
H5    H     H_    0.669995 0.016876 0.933502 0.162375
H6    H     H_    0.165863 0.478436 0.932963 0.157712
H7    H     H_    0.698007 0.015870 0.131510 0.159570
H8    H     H_    0.193227 0.465410 0.126735 0.152356
H9    H     H_    0.451354 0.997860 0.158137 0.156226
H10   H     H_    0.958265 0.539966 0.164898 0.161701
H11   H     H_    0.314476 0.928511 0.870380 0.202465
H12   H     H_    0.798524 0.506517 0.858592 0.179816
H13   H     H_    0.586760 0.011604 0.774415 0.203073
H14   H     H_    0.083858 0.496756 0.775339 0.198041
H15   H     H_    0.751432 0.213367 0.810109 0.171358
H16   H     H_    0.769142 0.818761 0.808814 0.169782
H17   H     H_    0.278088 0.671045 0.802152 0.174043
H18   H     H_    0.135621 0.162809 0.670863 0.197749
H19   H     H_    0.638570 0.197110 0.433277 0.145400
H20   H     H_    0.643274 0.801146 0.440450 0.156691
H21   H     H_    0.139614 0.702486 0.445437 0.153883
H22   H     H_    0.213404 0.389787 0.493049 0.130471
H23   H     H_    0.335677 0.890918 0.250103 0.192101
H24   H     H_    0.463029 0.228706 0.368766 0.145715
H25   H     H_    0.850913 0.367704 0.239789 0.198452
H26   H     H_    0.848016 0.624292 0.242477 0.182918
H27   H     H_    0.673601 0.263602 0.320766 0.129691
H28   H     H_    0.695079 0.775681 0.316123 0.140227
H29   H     H_    0.184467 0.739022 0.320161 0.137251
H30   H     H_    0.316081 0.382095 0.461334 0.133290
H31   H     H_    0.230878 0.816946 0.194568 0.169560
H32   H     H_    0.419324 0.359300 0.383676 0.152138
H33   H     H_    0.735754 0.313409 0.187759 0.163924
H34   H     H_    0.746460 0.703487 0.186849 0.162680
H35   H     H_    0.657125 0.008635 0.306269 0.148534
H36   H     H_    0.154567 0.471424 0.302984 0.133617
N1    N     N_R   0.552340 0.000000 0.237260 -0.109064
N2    N     N_R   0.052340 0.500000 0.237260 -0.109861
N3    N     N_R   0.448170 0.000000 0.762060 -0.159156
N4    N     N_R   0.948170 0.500000 0.762060 -0.157898
O1    O     O_R   0.448200 0.076800 0.373930 -0.616523
O2    O     O_R   0.448200 0.923200 0.373930 -0.595398
O3    O     O_R   0.948200 0.576800 0.373930 -0.618978
O4    O     O_R   0.948200 0.423200 0.373930 -0.598602
O5    O     O_R   0.414750 0.076790 0.542400 -0.553618
O6    O     O_R   0.414750 0.923210 0.542400 -0.590694
O7    O     O_R   0.914750 0.576790 0.542400 -0.584565
O8    O     O_R   0.914750 0.423210 0.542400 -0.575446
O9    O     O_R   0.585240 0.923200 0.457600 -0.613745
O10   O     O_R   0.585240 0.076800 0.457600 -0.623819
O11   O     O_R   0.085240 0.423200 0.457600 -0.607457
O12   O     O_R   0.085240 0.576800 0.457600 -0.622352
O13   O     O_R   0.551780 0.923190 0.626070 -0.611448
O14   O     O_R   0.551780 0.076810 0.626070 -0.646800
O15   O     O_R   0.051780 0.423190 0.626070 -0.629638
O16   O     O_R   0.051780 0.576810 0.626070 -0.617179
Zn1   Zn    Zn3+2 0.522330 0.000000 0.387520 0.959961
Zn2   Zn    Zn3+2 0.022330 0.500000 0.387520 0.965144
Zn3   Zn    Zn3+2 0.477660 0.000000 0.612480 0.990414
Zn4   Zn    Zn3+2 0.977660 0.500000 0.612480 1.005971
C89   C     C_2   0.329081 0.959605 0.677400 1.011901
O17   O     O_2   0.298803 0.898261 0.672818 -0.641524
O18   O     O_R   0.311337 0.012210 0.597317 -0.769288
H37   H     H_    0.278437 0.988241 0.536818 0.344224
C90   C     C_2   0.827053 0.507851 0.666793 0.972768
O19   O     O_2   0.802662 0.448607 0.625123 -0.637715
O20   O     O_R   0.798899 0.578407 0.632340 -0.805248
H38   H     H_    0.761661 0.573388 0.567576 0.340235
I1    I     I_    0.397353 0.859713 0.061125 -0.361690
I2    I     I_    0.839275 0.481313 0.080818 -0.462220
C91   C     C_2   0.397441 0.713649 0.757507 0.949222
O21   O     O_2   0.433538 0.764478 0.803499 -0.572275
O22   O     O_R   0.400508 0.639826 0.799456 -0.812412
H39   H     H_    0.433847 0.635899 0.868866 0.356529
C92   C     C_2   0.160592 0.068129 0.512790 0.932715
O23   O     O_2   0.120593 0.048748 0.433236 -0.565660
O24   O     O_R   0.160331 0.030570 0.609744 -0.792898
H40   H     H_    0.125138 0.987897 0.603698 0.367395
C93   C     C_2   0.876002 0.248085 0.773106 0.935519
O25   O     O_2   0.914814 0.299476 0.810481 -0.603028
O26   O     O_R   0.873648 0.179860 0.829115 -0.796188
H41   H     H_    0.905464 0.180498 0.900335 0.356937
C94   C     C_2   0.890397 0.774874 0.771734 0.934737
O27   O     O_2   0.924066 0.721710 0.814877 -0.598152
O28   O     O_R   0.893295 0.846930 0.821385 -0.794523
H42   H     H_    0.924375 0.847634 0.893281 0.355449
I3    I     I_    0.486548 0.746248 0.567549 -0.314917
I4    I     I_    0.257683 0.038345 0.320949 -0.338868
I5    I     I_    0.967622 0.238871 0.578306 -0.320306
I6    I     I_    0.986349 0.750713 0.587373 -0.285571

loop_
_geom_bond_atom_site_label_1
_geom_bond_atom_site_label_2
_ccdc_geom_bond_type
C83   C87   A    
C94   O27   D    
C39   O9    A    
O11   Zn2   S    
O24   H40   S    
C73   H31   S    
C40   O14   A    
C44   I2    S    
O26   H41   S    
C14   C18   A    
C92   O23   D    
C58   H10   S    
C37   H11   S    
C72   C76   A    
O8    Zn4   S    
O22   H39   S    
N2    Zn2   S    
C28   C68   A    
C93   O26   S    
C10   C62   A    
O28   H42   S    
C15   C19   A    
O6    Zn3   S    
C94   O28   S    
C2    O6    A    
C2    C29   S    
C9    C61   A    
O9    Zn1   S    
C61   H15   S    
C34   H8    S    
C41   O15   A    
C79   H27   S    
C89   O18   S    
C57   N1    A    
C12   C64   A    
C22   H20   S    
C38   C44   A    
O10   Zn1   S    
C6    C22   A    
C72   H26   S    
C11   C13   A    
C49   C57   A    
C71   H25   S    
O3    Zn2   S    
C23   C67   A    
C14   C92   S    
C60   H36   S    
C22   C66   A    
C2    O2    A    
C39   O13   A    
C52   C54   A    
C49   C51   A    
C40   O10   A    
C70   C74   A    
C50   C52   A    
O18   H37   S    
C91   O22   S    
C27   H3    S    
O5    Zn3   S    
C45   C49   A    
C8    C12   A    
C30   C86   A    
C19   I5    S    
C29   C85   A    
O16   Zn4   S    
C4    O8    A    
C21   C65   A    
C45   C47   A    
C33   C59   A    
O2    Zn1   S    
C34   C60   A    
C15   C93   S    
C36   N4    A    
C1    O5    A    
C33   H7    S    
C25   C61   A    
C30   C70   A    
C44   C46   A    
C36   C90   S    
C41   C68   S    
C29   C69   A    
C53   C55   A    
C59   H35   S    
O15   Zn4   S    
C23   H21   S    
C46   C48   A    
C71   C75   A    
C6    C84   A    
C53   H5    S    
C80   C84   A    
C26   C66   A    
C80   H28   S    
C31   C87   A    
C38   H12   S    
O12   Zn2   S    
C93   O25   D    
C24   C68   A    
N4    Zn4   S    
C20   I6    S    
C25   H1    S    
C17   C85   A    
C82   C86   A    
C42   O12   A    
C62   H16   S    
C51   C53   A    
C50   C58   A    
C37   C43   A    
C7    C11   A    
C5    C9    A    
C54   H6    S    
C48   N4    A    
C78   C82   A    
C77   H29   S    
C91   O21   D    
C77   C81   A    
C26   H2    S    
C16   C20   A    
C57   H9    S    
C24   H22   S    
C28   H4    S    
C18   C86   A    
C69   C73   A    
C43   C45   A    
C21   H19   S    
C70   H24   S    
C28   C64   A    
C7    C81   A    
C12   C14   A    
C58   N2    A    
C40   C65   S    
C42   O16   A    
C42   C67   S    
C39   C66   S    
C3    O3    A    
C32   C88   A    
C90   O20   S    
C36   C38   A    
C35   N3    A    
C35   C37   A    
C47   C55   A    
C48   C56   A    
C46   C50   A    
C78   H30   S    
C75   H33   S    
C34   C52   A    
O14   Zn3   S    
C76   C80   A    
C54   C56   A    
C43   I1    S    
C6    C10   A    
C5    C83   A    
C64   H18   S    
C33   C51   A    
C74   H32   S    
C55   H13   S    
C1    O1    A    
C13   C17   A    
C76   H34   S    
C60   N2    A    
C9    C15   A    
C19   C87   A    
O4    Zn2   S    
N1    Zn1   S    
C59   N1    A    
C79   C83   A    
C4    O4    A    
C16   C94   S    
C84   C88   A    
C47   N3    A    
C7    C23   A    
C20   C88   A    
C31   C71   A    
C1    C30   S    
C8    C24   A    
C3    O7    A    
O1    Zn1   S    
C26   C62   A    
C3    C32   S    
C69   H23   S    
C41   O11   A    
C4    C31   S    
C27   C67   A    
C63   H17   S    
O13   Zn3   S    
C56   H14   S    
C8    C82   A    
C5    C21   A    
O7    Zn4   S    
C74   C78   A    
O20   H38   S    
C25   C65   A    
C73   C77   A    
C27   C63   A    
C92   O24   S    
C10   C16   A    
C35   C89   S    
C90   O19   D    
C89   O17   D    
C11   C63   A    
C75   C79   A    
C13   C91   S    
C81   C85   A    
C17   I3    S    
N3    Zn3   S    
C32   C72   A    
C18   I4    S    
