data_mof_unit_51171.cif
_audit_creation_date              2012-12-10T17:34:51-0500
_audit_creation_method            fapswitch 2.2
_symmetry_space_group_name_H-M    P1
_symmetry_Int_Tables_number       1
_space_group_crystal_system       triclinic
_cell_length_a                    12.012425
_cell_length_b                    12.826287
_cell_length_c                    15.728843
_cell_angle_alpha                 90.18775
_cell_angle_beta                  85.988227
_cell_angle_gamma                 93.5571
_cell_volume                      2412.82165084

loop_
_atom_site_label
_atom_site_type_symbol
_atom_type_description
_atom_site_fract_x
_atom_site_fract_y
_atom_site_fract_z
_atom_type_partial_charge
C1    C     C_R   0.522386 0.700309 0.500062 0.888526
C2    C     C_R   0.537560 0.811564 0.499263 -0.092494
C3    C     C_R   0.639407 0.967957 0.446474 0.023669
C4    C     C_R   0.500011 0.500106 0.661635 0.913297
C5    C     C_R   0.631998 0.860430 0.456608 -0.251442
C6    C     C_R   0.454792 0.868677 0.539474 -0.223626
C7    C     C_R   0.459024 0.975812 0.529524 0.041036
C8    C     C_R   0.547482 0.025380 0.476597 0.019209
C9    C     C_R   0.538429 0.129250 0.453200 -0.080506
C10   C     C_R   0.380561 0.140967 0.558415 -0.350036
C11   C     C_R   0.373376 0.033181 0.568168 0.465836
C12   C     C_3   0.427232 0.578243 0.053316 -0.406637
C13   C     C_R   0.957999 0.432899 0.401904 -0.312316
C14   C     C_R   0.841562 0.438871 0.412652 -0.001136
C15   C     C_R   0.856516 0.526028 0.544262 -0.023916
C16   C     C_R   0.477586 0.299654 0.499172 0.916591
C17   C     C_R   0.974387 0.525698 0.534530 0.034788
C18   C     C_R   0.025708 0.476259 0.463576 0.099482
C19   C     C_R   0.143554 0.473953 0.455358 -0.167735
C20   C     C_R   0.158900 0.567790 0.585196 0.647113
C21   C     C_R   0.041608 0.574498 0.593571 -0.460765
C22   C     C_R   0.499943 0.498891 0.338305 0.908915
C23   C     C_3   0.500964 0.492196 0.082671 0.326217
C24   C     C_3   0.428456 0.579662 0.955262 -0.434945
C25   C     C_3   0.623700 0.519358 0.945257 -0.152039
C26   C     C_3   0.622565 0.513959 0.044061 -0.436679
C27   C     C_1   0.499710 0.495451 0.249468 -0.178884
C28   C     C_3   0.502174 0.493615 0.917043 0.272276
C29   C     C_R   0.574615 0.163544 0.364767 0.116762
C30   C     C_R   0.674415 0.223830 0.345888 -0.087455
C31   C     C_R   0.708496 0.250720 0.261474 -0.143319
C32   C     C_R   0.641631 0.219739 0.195676 -0.118015
C33   C     C_R   0.540865 0.161301 0.214054 -0.152884
C34   C     C_3   0.453842 0.384694 0.051376 -0.439209
C35   C     C_R   0.507631 0.132874 0.298192 -0.165806
C36   C     C_R   0.749090 0.017649 0.415498 0.130355
C37   C     C_R   0.810558 0.081721 0.470398 -0.166356
C38   C     C_R   0.915640 0.126839 0.442375 -0.159163
C39   C     C_R   0.960305 0.107592 0.359791 -0.126436
C40   C     C_R   0.900363 0.042560 0.305310 -0.134123
C41   C     C_R   0.795374 0.997004 0.333150 -0.142294
C42   C     C_3   0.185655 0.990017 0.584463 0.069652
C43   C     C_3   0.102830 0.905898 0.624570 -0.334390
C44   C     C_3   0.988320 0.908968 0.588563 -0.954849
C45   C     C_3   0.456748 0.383906 0.952454 -0.121805
C46   C     C_3   0.191249 0.582004 0.728872 0.085455
C47   C     C_3   0.151256 0.674921 0.781516 -0.369949
C48   C     C_3   0.097114 0.639804 0.868239 -0.969440
C49   C     C_R   0.713387 0.456321 0.898550 0.146537
C50   C     C_R   0.773988 0.500275 0.826041 -0.157203
C51   C     C_R   0.850821 0.442741 0.778093 -0.133965
C52   C     C_R   0.868854 0.340906 0.801596 -0.113771
C53   C     C_R   0.811959 0.296914 0.874464 -0.157287
C54   C     C_R   0.734879 0.353990 0.922867 -0.161516
C55   C     C_R   0.347087 0.341924 0.917314 0.148384
C56   C     C_1   0.499951 0.492978 0.174153 -0.099460
C57   C     C_R   0.242131 0.375645 0.947871 -0.167423
C58   C     C_R   0.144013 0.334036 0.914511 -0.149005
C59   C     C_R   0.149181 0.258248 0.850670 -0.123294
C60   C     C_R   0.252360 0.225067 0.818964 -0.134597
C61   C     C_R   0.350611 0.266437 0.851927 -0.164306
C62   C     C_1   0.501202 0.496840 0.825510 -0.109124
C63   C     C_1   0.500285 0.498785 0.750343 -0.190630
C64   C     C_R   0.462818 0.188096 0.501531 -0.150645
H1    H     H_    0.458861 0.656021 0.076284 0.171870
H2    H     H_    0.994658 0.397316 0.344882 0.138301
H3    H     H_    0.003045 0.616610 0.646319 0.153653
H4    H     H_    0.790752 0.413073 0.362139 0.131287
H5    H     H_    0.816108 0.564293 0.598455 0.123343
H6    H     H_    0.645749 0.602871 0.928390 0.129149
H7    H     H_    0.657540 0.589854 0.068490 0.161066
H8    H     H_    0.676460 0.453773 0.066261 0.166304
H9    H     H_    0.519099 0.327700 0.930971 0.126420
H10   H     H_    0.368049 0.367290 0.081081 0.171489
H11   H     H_    0.727051 0.246769 0.396384 0.149918
H12   H     H_    0.342226 0.569620 0.934521 0.177288
H13   H     H_    0.787241 0.294690 0.246771 0.116688
H14   H     H_    0.668277 0.240548 0.130485 0.109319
H15   H     H_    0.488972 0.137289 0.163055 0.126342
H16   H     H_    0.429954 0.086472 0.311559 0.127967
H17   H     H_    0.776863 0.096951 0.534605 0.136215
H18   H     H_    0.962356 0.176773 0.484639 0.135425
H19   H     H_    0.041496 0.142815 0.338110 0.120570
H20   H     H_    0.935281 0.027432 0.241489 0.125473
H21   H     H_    0.749638 0.946773 0.290447 0.125255
H22   H     H_    0.193404 0.976194 0.514161 0.137108
H23   H     H_    0.339792 0.564181 0.081010 0.168249
H24   H     H_    0.152511 0.068108 0.597171 0.140241
H25   H     H_    0.135669 0.827794 0.611783 0.241810
H26   H     H_    0.093673 0.917624 0.694711 0.221817
H27   H     H_    0.952284 0.985238 0.603057 0.263013
H28   H     H_    0.931004 0.845796 0.617978 0.261004
H29   H     H_    0.995263 0.897065 0.518438 0.277272
H30   H     H_    0.264461 0.552877 0.758675 0.178835
H31   H     H_    0.126387 0.515545 0.732874 0.122504
H32   H     H_    0.223668 0.731035 0.790864 0.231329
H33   H     H_    0.089388 0.716246 0.747254 0.217356
H34   H     H_    0.505106 0.321978 0.073120 0.152723
H35   H     H_    0.021154 0.587854 0.860071 0.273631
H36   H     H_    0.072428 0.709119 0.905822 0.264406
H37   H     H_    0.156401 0.597244 0.904081 0.259493
H38   H     H_    0.759931 0.578497 0.805249 0.115623
H39   H     H_    0.895689 0.476659 0.722124 0.126793
H40   H     H_    0.926543 0.296145 0.762899 0.114997
H41   H     H_    0.826737 0.218049 0.893033 0.125451
H42   H     H_    0.691444 0.316876 0.978296 0.107462
H43   H     H_    0.235159 0.432762 0.998282 0.122228
H44   H     H_    0.063780 0.359906 0.938769 0.143909
H45   H     H_    0.322110 0.187587 0.594997 0.166033
H46   H     H_    0.073357 0.224412 0.826105 0.117179
H47   H     H_    0.256233 0.166738 0.769099 0.150638
H48   H     H_    0.429695 0.239406 0.826152 0.124954
H49   H     H_    0.699673 0.814878 0.430921 0.165546
H50   H     H_    0.385205 0.828605 0.576178 0.211052
H51   H     H_    0.184008 0.435279 0.401407 0.151021
H52   H     H_    0.461773 0.657926 0.931407 0.170014
N1    N     N_R   0.207800 0.519340 0.515510 -0.130848
N2    N     N_R   0.792190 0.480660 0.484490 -0.100186
O1    O     O_R   0.421690 0.658830 0.504140 -0.592030
O2    O     O_3   0.226268 0.614776 0.644407 -0.629880
O3    O     O_R   0.609320 0.646410 0.494190 -0.626599
O4    O     O_R   0.406150 0.506210 0.627840 -0.583391
O5    O     O_R   0.593770 0.493790 0.617880 -0.621613
O6    O     O_R   0.390680 0.353590 0.505810 -0.630818
O7    O     O_R   0.578310 0.341170 0.495860 -0.621667
O8    O     O_R   0.406230 0.506210 0.382120 -0.623960
O9    O     O_R   0.593850 0.493790 0.372160 -0.624869
O10   O     O_3   0.289172 0.984427 0.621321 -0.658277
Zn1   Zn    Zn3+2 0.374720 0.508290 0.506640 0.972566
Zn2   Zn    Zn3+2 0.625280 0.491710 0.493360 0.941316

loop_
_geom_bond_atom_site_label_1
_geom_bond_atom_site_label_2
_ccdc_geom_bond_type
O1    Zn1   S    
C9    C64   A    
C26   H8    S    
C40   H20   S    
O3    Zn2   S    
C22   O9    A    
C7    C8    A    
C53   C54   A    
C25   C28   S    
C7    C11   A    
C12   C23   S    
C62   C63   T    
C13   C18   A    
C36   C37   A    
C18   C19   A    
C30   C31   A    
C22   O8    A    
C51   H39   S    
C49   C54   A    
C35   H16   S    
C59   H46   S    
C10   H45   S    
C45   H9    S    
C1    C2    S    
C1    O1    A    
C23   C26   S    
C6    H50   S    
C44   H29   S    
C34   H34   S    
O7    Zn2   S    
C46   H31   S    
C47   C48   S    
C8    C9    A    
C14   N2    A    
C47   H32   S    
C42   H22   S    
C29   C30   A    
N1    Zn1   S    
C16   O7    A    
O4    Zn1   S    
C44   H28   S    
C42   O10   S    
C59   C60   A    
C13   C14   A    
C21   H3    S    
C26   H7    S    
C37   H17   S    
C36   C41   A    
C2    C6    A    
C15   H5    S    
C20   N1    A    
C31   H13   S    
C1    O3    A    
C13   H2    S    
C48   H36   S    
C28   C45   S    
C43   H26   S    
C54   H42   S    
C4    O4    A    
C51   C52   A    
C23   C56   S    
C3    C8    A    
C39   C40   A    
C27   C56   T    
C24   H12   S    
O8    Zn1   S    
C50   C51   A    
C25   C26   S    
C17   C21   A    
C4    O5    A    
C60   C61   A    
C43   C44   S    
C37   C38   A    
N2    Zn2   S    
C31   C32   A    
C46   H30   S    
C19   H51   S    
C23   C34   S    
C17   C18   A    
C46   O2    S    
C34   C45   S    
C43   H25   S    
C45   C55   S    
C44   H27   S    
C34   H10   S    
C4    C63   S    
C40   C41   A    
C57   H43   S    
C24   H52   S    
C22   C27   S    
C55   C57   A    
O5    Zn2   S    
C2    C5    A    
C42   H24   S    
C42   C43   S    
C20   O2    S    
C52   C53   A    
C15   C17   A    
C48   H35   S    
C12   C24   S    
C46   C47   S    
C52   H40   S    
C12   H23   S    
C5    H49   S    
C10   C64   A    
C24   C28   S    
C33   H15   S    
C3    C5    A    
C50   H38   S    
C6    C7    A    
C9    C29   S    
C41   H21   S    
C12   H1    S    
C29   C35   A    
C47   H33   S    
C15   N2    A    
C32   C33   A    
C11   O10   S    
C58   C59   A    
O9    Zn2   S    
C39   H19   S    
C60   H47   S    
C30   H11   S    
C57   C58   A    
C38   C39   A    
C3    C36   S    
C48   H37   S    
C55   C61   A    
C33   C35   A    
O6    Zn1   S    
C58   H44   S    
C16   O6    A    
C25   C49   S    
C10   C11   A    
C32   H14   S    
C53   H41   S    
C20   C21   A    
C19   N1    A    
C49   C50   A    
C14   H4    S    
C25   H6    S    
C16   C64   S    
C61   H48   S    
C38   H18   S    
C28   C62   S    
