data_mof_unit_64583.cif
_audit_creation_date              2012-12-10T19:02:00-0500
_audit_creation_method            fapswitch 2.2
_symmetry_space_group_name_H-M    P1
_symmetry_Int_Tables_number       1
_space_group_crystal_system       triclinic
_cell_length_a                    43.981246
_cell_length_b                    30.286886
_cell_length_c                    31.81926
_cell_angle_alpha                 90.000234
_cell_angle_beta                  136.573465
_cell_angle_gamma                 89.999769
_cell_volume                      29136.4659544

loop_
_atom_site_label
_atom_site_type_symbol
_atom_type_description
_atom_site_fract_x
_atom_site_fract_y
_atom_site_fract_z
_atom_type_partial_charge
C1    C     C_R   0.586275 0.999929 0.087359 0.902106
C2    C     C_3   0.525270 0.033569 0.789533 -0.177194
C3    C     C_R   0.975217 0.297198 0.445102 -0.187815
C4    C     C_R   0.524890 0.842986 0.555236 0.352196
C5    C     C_R   0.475109 0.842985 0.444766 0.352121
C6    C     C_R   0.024878 0.342987 0.555232 0.352188
C7    C     C_R   0.975122 0.342986 0.444769 0.352181
C8    C     C_R   0.500000 0.866031 0.500001 -0.225498
C9    C     C_R   1.000000 0.366032 0.500000 -0.225568
C10   C     C_R   0.500000 0.774256 0.500001 -0.039719
C11   C     C_R   0.000000 0.274257 0.500000 -0.039757
C12   C     C_R   0.005490 0.203200 0.467696 -0.150626
C13   C     C_3   0.974651 0.533511 0.210388 -0.177184
C14   C     C_R   0.994511 0.203200 0.532305 -0.150621
C15   C     C_R   0.505473 0.703200 0.467677 -0.150694
C16   C     C_R   0.494528 0.703200 0.532326 -0.150628
C17   C     C_R   0.005404 0.157447 0.467584 -0.181216
C18   C     C_R   0.994596 0.157447 0.532417 -0.181212
C19   C     C_R   0.505387 0.657447 0.467565 -0.181240
C20   C     C_R   0.494613 0.657447 0.532437 -0.181222
C21   C     C_R   0.000000 0.134376 0.500000 -0.038634
C22   C     C_R   0.500000 0.634376 0.500001 -0.038621
C23   C     C_3   0.541600 0.005460 0.277692 -0.233626
C24   C     C_3   0.025274 0.533566 0.789538 -0.177199
C25   C     C_3   0.458291 0.004582 0.722199 -0.233530
C26   C     C_3   0.041698 0.504680 0.277790 -0.233545
C27   C     C_3   0.958291 0.504588 0.722200 -0.233538
C28   C     C_R   0.000000 0.226200 0.500001 0.152082
C29   C     C_R   0.500001 0.726200 0.500002 0.152115
C30   C     C_R   0.459180 0.203187 0.459815 -0.026665
C31   C     C_R   0.540819 0.203187 0.540181 -0.026616
C32   C     C_R   0.959180 0.703187 0.459817 -0.026660
C33   C     C_R   0.040819 0.703187 0.540181 -0.026650
C34   C     C_R   0.459935 0.157265 0.460522 -0.259854
C35   C     C_3   0.515446 0.038054 0.279246 0.401413
C36   C     C_R   0.540065 0.157265 0.539475 -0.260010
C37   C     C_R   0.959935 0.657265 0.460524 -0.260007
C38   C     C_R   0.040065 0.657265 0.539475 -0.260026
C39   C     C_R   0.500000 0.134319 0.499999 -0.009741
C40   C     C_R   1.000000 0.634319 0.500000 -0.009777
C41   C     C_R   0.500000 0.226294 0.499998 0.023889
C42   C     C_R   1.000000 0.726294 0.499999 0.023870
C43   C     C_R   0.001362 0.796720 0.539558 -0.055130
C44   C     C_R   0.998637 0.796720 0.460440 -0.055115
C45   C     C_R   0.501361 0.296720 0.539557 -0.055157
C46   C     C_3   0.483754 0.037716 0.719950 0.401390
C47   C     C_R   0.498638 0.296720 0.460440 -0.055034
C48   C     C_R   0.001370 0.842469 0.539599 -0.126418
C49   C     C_R   0.998630 0.842469 0.460400 -0.126419
C50   C     C_R   0.501369 0.342469 0.539598 -0.126407
C51   C     C_R   0.498630 0.342469 0.460400 -0.126409
C52   C     C_R   1.000000 0.865550 0.499999 -0.045954
C53   C     C_R   0.500000 0.365550 0.499999 -0.045969
C54   C     C_R   1.000000 0.774082 0.499999 0.199828
C55   C     C_R   0.499999 0.274082 0.499998 0.199776
C56   C     C_1   0.499962 0.999950 0.125730 -0.138448
C57   C     C_3   0.016157 0.537755 0.279961 0.401390
C58   C     C_1   0.500039 0.999949 0.874271 -0.138449
C59   C     C_1   0.999962 0.499949 0.125729 -0.138449
C60   C     C_1   0.000039 0.499949 0.874271 -0.138448
C61   C     C_1   0.499684 0.999812 0.373907 -0.094664
C62   C     C_1   0.500316 0.999814 0.626093 -0.094717
C63   C     C_1   0.999684 0.499814 0.373907 -0.094705
C64   C     C_1   0.000316 0.499814 0.626093 -0.094711
C65   C     C_3   0.483792 0.960956 0.219522 -0.159277
C66   C     C_3   0.517021 0.961299 0.781295 -0.159312
C67   C     C_3   0.983069 0.461260 0.218796 -0.159305
C68   C     C_3   0.983759 0.537718 0.719955 0.401388
C69   C     C_3   0.017016 0.461296 0.781289 -0.159301
C70   C     C_3   0.499898 0.999849 0.208653 0.043607
C71   C     C_3   0.500102 0.999846 0.791347 0.043619
C72   C     C_3   0.999898 0.499847 0.208653 0.043617
C73   C     C_3   0.000102 0.499846 0.791347 0.043618
C74   C     C_3   0.458047 0.994164 0.221665 -0.254609
C75   C     C_3   0.542062 0.995038 0.778444 -0.254890
C76   C     C_3   0.957949 0.494940 0.221567 -0.254856
C77   C     C_3   0.042062 0.495032 0.778443 -0.254883
C78   C     C_2   0.414835 0.224784 0.416228 0.424892
C79   C     C_1   0.499938 0.999907 0.163241 0.030938
C80   C     C_2   0.585164 0.224784 0.583768 0.424755
C81   C     C_2   0.914835 0.724784 0.416232 0.424770
C82   C     C_2   0.085164 0.724784 0.583766 0.424745
C83   C     C_1   0.500063 0.999904 0.836760 0.030917
C84   C     C_1   0.999937 0.499905 0.163240 0.030920
C85   C     C_R   0.413725 0.999929 0.912641 0.902120
C86   C     C_1   0.000063 0.499904 0.836760 0.030919
C87   C     C_1   0.499570 0.999761 0.336264 0.095436
C88   C     C_1   0.500430 0.999764 0.663737 0.095363
C89   C     C_1   0.999570 0.499763 0.336263 0.095376
C90   C     C_1   0.000430 0.499764 0.663737 0.095369
C91   C     C_R   0.702895 0.035548 0.185970 -0.126121
C92   C     C_R   0.297105 0.035548 0.814031 -0.126083
C93   C     C_R   0.202895 0.535547 0.185969 -0.126120
C94   C     C_R   0.797105 0.535547 0.814032 -0.126099
C95   C     C_R   0.657044 0.035103 0.140553 -0.233208
C96   C     C_R   0.086275 0.499929 0.087359 0.902107
C97   C     C_R   0.342956 0.035103 0.859448 -0.233175
C98   C     C_R   0.157044 0.535102 0.140552 -0.233199
C99   C     C_R   0.842956 0.535102 0.859449 -0.233195
C100  C     C_R   0.634384 0.999955 0.136853 -0.130972
C101  C     C_R   0.365616 0.999955 0.863147 -0.130971
C102  C     C_R   0.134384 0.499955 0.136853 -0.130959
C103  C     C_R   0.865616 0.499955 0.863147 -0.130956
C104  C     C_R   0.658246 0.965595 0.180503 0.381421
C105  C     C_R   0.341754 0.965596 0.819496 0.381404
C106  C     C_R   0.158246 0.465595 0.180503 0.381408
C107  C     C_R   0.913725 0.499929 0.912641 0.902111
C108  C     C_R   0.841754 0.465596 0.819495 0.381405
C109  C     C_R   0.704143 0.966265 0.225567 -0.126326
C110  C     C_R   0.295857 0.966267 0.774432 -0.126355
C111  C     C_R   0.204143 0.466266 0.225567 -0.126337
C112  C     C_R   0.795857 0.466267 0.774431 -0.126355
C113  C     C_R   0.499977 0.999964 0.081242 0.898126
C114  C     C_R   0.500024 0.999964 0.918758 0.898127
C115  C     C_R   0.999977 0.499964 0.081242 0.898125
C116  C     C_R   0.000023 0.499964 0.918758 0.898126
C117  C     C_R   0.726218 0.000838 0.227754 0.091074
C118  C     C_3   0.499568 0.999753 0.290780 0.003918
C119  C     C_R   0.273782 0.000839 0.772246 0.091075
C120  C     C_R   0.226218 0.500838 0.227753 0.091084
C121  C     C_R   0.773783 0.500839 0.772246 0.091084
C122  C     C_R   0.795929 0.971750 0.267811 0.373486
C123  C     C_R   0.204072 0.971751 0.732190 0.373496
C124  C     C_R   0.295929 0.471747 0.267813 0.373482
C125  C     C_R   0.704072 0.471751 0.732190 0.373489
C126  C     C_R   0.842162 0.970779 0.313897 0.325415
C127  C     C_R   0.157839 0.970780 0.686104 0.325418
C128  C     C_R   0.342162 0.470776 0.313899 0.325406
C129  C     C_3   0.500433 0.999755 0.709221 0.003972
C130  C     C_R   0.657839 0.470780 0.686104 0.325415
C131  C     C_R   0.865730 0.998474 0.365261 -0.186858
C132  C     C_R   0.134270 0.998474 0.634739 -0.186861
C133  C     C_R   0.365730 0.498474 0.365261 -0.186864
C134  C     C_R   0.634270 0.498474 0.634739 -0.186858
C135  C     C_R   0.843356 0.026336 0.370663 -0.231710
C136  C     C_R   0.156643 0.026336 0.629336 -0.231707
C137  C     C_R   0.343356 0.526339 0.370661 -0.231715
C138  C     C_R   0.656643 0.526336 0.629336 -0.231715
C139  C     C_R   0.797609 0.027397 0.324842 -0.202407
C140  C     C_3   0.999567 0.499755 0.290779 0.003967
C141  C     C_R   0.202391 0.027397 0.675157 -0.202403
C142  C     C_R   0.297609 0.527399 0.324839 -0.202412
C143  C     C_R   0.702391 0.527396 0.675157 -0.202415
C144  C     C_R   0.774008 0.000222 0.273761 -0.056770
C145  C     C_R   0.225992 0.000222 0.726239 -0.056775
C146  C     C_R   0.274008 0.500221 0.273760 -0.056780
C147  C     C_R   0.725992 0.500222 0.726239 -0.056775
C148  C     C_R   0.500000 0.913751 0.500000 0.986209
C149  C     C_R   1.000000 0.413751 0.500000 0.986279
C150  C     C_R   0.499877 0.999888 0.418593 0.911253
C151  C     C_3   0.000433 0.499755 0.709221 0.003972
C152  C     C_R   0.500123 0.999889 0.581407 0.911219
C153  C     C_R   0.999877 0.499888 0.418593 0.911258
C154  C     C_R   0.000123 0.499889 0.581407 0.911254
C155  C     C_R   0.500000 0.086239 0.500000 0.871125
C156  C     C_R   1.000000 0.586239 0.500000 0.871062
C157  C     C_3   0.525062 0.967069 0.288864 0.409082
C158  C     C_3   0.475631 0.966545 0.711833 0.409218
C159  C     C_3   0.024446 0.466603 0.288245 0.409204
C160  C     C_3   0.975627 0.466548 0.711828 0.409218
C161  C     C_R   1.000000 0.086400 0.500000 0.855211
C162  C     C_3   0.474027 0.033038 0.209760 -0.177092
C163  C     C_R   0.500000 0.586400 0.500000 0.855207
C164  C     C_R   0.913622 0.999118 0.413491 0.944127
C165  C     C_R   0.086378 0.999118 0.586509 0.944128
C166  C     C_R   0.413622 0.499119 0.413491 0.944128
C167  C     C_R   0.586378 0.499118 0.586509 0.944128
C168  C     C_R   1.000000 0.913518 0.500000 0.913163
C169  C     C_R   0.500000 0.413518 0.500000 0.913173
C170  C     C_R   0.524795 0.797198 0.554903 -0.187825
C171  C     C_R   0.475205 0.797197 0.445099 -0.187901
C172  C     C_R   0.024783 0.297198 0.554899 -0.187796
Cl1   Cl    Cl    0.765506 0.937629 0.202642 -0.484467
Cl2   Cl    Cl    0.444850 0.870184 0.374695 -0.560371
Cl3   Cl    Cl    0.055121 0.370187 0.625297 -0.559667
Cl4   Cl    Cl    0.944879 0.370186 0.374704 -0.559764
Cl5   Cl    Cl    0.558777 0.923222 0.341743 -0.522876
Cl6   Cl    Cl    0.442846 0.922002 0.659886 -0.522474
Cl7   Cl    Cl    0.057336 0.422136 0.340296 -0.522502
Cl8   Cl    Cl    0.942835 0.422009 0.659875 -0.522471
Cl9   Cl    Cl    0.536298 0.089245 0.319251 -0.556459
Cl10  Cl    Cl    0.461830 0.088459 0.678871 -0.556361
Cl11  Cl    Cl    0.037962 0.588549 0.320922 -0.556377
Cl12  Cl    Cl    0.234494 0.937630 0.797359 -0.484488
Cl13  Cl    Cl    0.961842 0.588464 0.678883 -0.556366
Cl14  Cl    Cl    0.632676 0.922238 0.182737 -0.537850
Cl15  Cl    Cl    0.367324 0.922240 0.817260 -0.537913
Cl16  Cl    Cl    0.132676 0.422240 0.182739 -0.537868
Cl17  Cl    Cl    0.867324 0.422241 0.817259 -0.537899
Cl18  Cl    Cl    0.265507 0.437623 0.202647 -0.484419
Cl19  Cl    Cl    0.734495 0.437631 0.797360 -0.484474
Cl20  Cl    Cl    0.869941 0.933211 0.308353 -0.490052
Cl21  Cl    Cl    0.130060 0.933212 0.691648 -0.490062
Cl22  Cl    Cl    0.369942 0.433205 0.308359 -0.489997
Cl23  Cl    Cl    0.630060 0.433213 0.691649 -0.490063
Cl24  Cl    Cl    0.555148 0.870186 0.625306 -0.559665
H1    H     H_    0.575817 0.010086 0.300172 0.196152
H2    H     H_    0.138624 0.047685 0.589939 0.179313
H3    H     H_    0.361375 0.547690 0.410055 0.179309
H4    H     H_    0.638624 0.547685 0.589939 0.179307
H5    H     H_    0.780501 0.049105 0.329324 0.178251
H6    H     H_    0.219498 0.049104 0.670675 0.178266
H7    H     H_    0.280501 0.549109 0.329319 0.178260
H8    H     H_    0.719498 0.549103 0.670674 0.178260
H9    H     H_    0.544241 0.779493 0.597541 0.183673
H10   H     H_    0.455759 0.779492 0.402462 0.183631
H11   H     H_    0.044219 0.279493 0.597534 0.183682
H12   H     H_    0.423985 0.008491 0.699631 0.196275
H13   H     H_    0.955782 0.279492 0.402467 0.183671
H14   H     H_    0.010299 0.220632 0.443147 0.154172
H15   H     H_    0.989701 0.220632 0.556854 0.154181
H16   H     H_    0.510269 0.720632 0.443113 0.154083
H17   H     H_    0.489733 0.720632 0.556890 0.154180
H18   H     H_    0.009851 0.140211 0.442523 0.169581
H19   H     H_    0.990149 0.140212 0.557478 0.169584
H20   H     H_    0.509820 0.640212 0.442488 0.169558
H21   H     H_    0.490181 0.640211 0.557514 0.169589
H22   H     H_    0.428943 0.139266 0.430015 0.161325
H23   H     H_    0.075995 0.508669 0.300350 0.196261
H24   H     H_    0.571057 0.139266 0.569983 0.161288
H25   H     H_    0.928943 0.639266 0.430017 0.161316
H26   H     H_    0.071057 0.639266 0.569982 0.161311
H27   H     H_    0.002427 0.778915 0.570144 0.140646
H28   H     H_    0.997572 0.778915 0.429854 0.140660
H29   H     H_    0.502426 0.278915 0.570143 0.140645
H30   H     H_    0.497573 0.278915 0.429854 0.140773
H31   H     H_    0.002485 0.859679 0.570535 0.173942
H32   H     H_    0.997514 0.859679 0.429464 0.173943
H33   H     H_    0.502484 0.359679 0.570534 0.173940
H34   H     H_    0.923986 0.508501 0.699631 0.196272
H35   H     H_    0.497515 0.359679 0.429465 0.173971
H36   H     H_    0.453237 0.060426 0.176749 0.180921
H37   H     H_    0.545480 0.061386 0.821962 0.180864
H38   H     H_    0.954376 0.561281 0.177894 0.180870
H39   H     H_    0.045488 0.561380 0.821970 0.180862
H40   H     H_    0.423899 0.989543 0.199428 0.194507
H41   H     H_    0.576299 0.991133 0.800770 0.194311
H42   H     H_    0.923721 0.490956 0.199249 0.194332
H43   H     H_    0.076298 0.491122 0.800770 0.194315
H44   H     H_    0.471039 0.929053 0.194546 0.187582
H45   H     H_    0.722744 0.939892 0.259012 0.187630
H46   H     H_    0.530443 0.929669 0.806941 0.187566
H47   H     H_    0.969722 0.429600 0.193223 0.187569
H48   H     H_    0.030433 0.429665 0.806932 0.187573
H49   H     H_    0.720200 0.062427 0.188024 0.160973
H50   H     H_    0.279800 0.062426 0.811978 0.160995
H51   H     H_    0.220200 0.562425 0.188022 0.160967
H52   H     H_    0.779800 0.562425 0.811979 0.160976
H53   H     H_    0.639274 0.061809 0.107611 0.180016
H54   H     H_    0.360726 0.061808 0.892392 0.180041
H55   H     H_    0.139274 0.561808 0.107608 0.180010
H56   H     H_    0.277256 0.939894 0.740986 0.187616
H57   H     H_    0.860726 0.561808 0.892393 0.180015
H58   H     H_    0.385255 0.204452 0.386765 0.083863
H59   H     H_    0.614744 0.204452 0.613232 0.083810
H60   H     H_    0.885255 0.704452 0.386769 0.083838
H61   H     H_    0.114744 0.704452 0.613229 0.083831
H62   H     H_    0.222744 0.439893 0.259013 0.187623
H63   H     H_    0.777257 0.439894 0.740985 0.187614
H64   H     H_    0.861375 0.047686 0.410060 0.179308
O1    O     O_R   0.565460 0.963010 0.065460 -0.561133
O2    O     O_R   0.065510 0.999950 0.600300 -0.574396
O3    O     O_R   0.434490 0.499950 0.399700 -0.574410
O4    O     O_R   0.565510 0.499950 0.600300 -0.574401
O5    O     O_R   0.000010 0.934490 0.534800 -0.610593
O6    O     O_R   0.999990 0.934490 0.465200 -0.610594
O7    O     O_R   0.500010 0.434490 0.534800 -0.610595
O8    O     O_R   0.499990 0.434490 0.465200 -0.610585
O9    O     O_R   0.565400 0.036920 0.065400 -0.632812
O10   O     O_R   0.434600 0.036920 0.934600 -0.632789
O11   O     O_R   0.065400 0.536920 0.065400 -0.632811
O12   O     O_R   0.434540 0.963010 0.934540 -0.561138
O13   O     O_R   0.934600 0.536920 0.934600 -0.632807
O14   O     O_R   0.499990 0.963010 0.061610 -0.588971
O15   O     O_R   0.500010 0.963010 0.938390 -0.588906
O16   O     O_R   0.999990 0.463010 0.061610 -0.588912
O17   O     O_R   0.000010 0.463010 0.938390 -0.588902
O18   O     O_R   0.499940 0.036920 0.061550 -0.619087
O19   O     O_R   0.500060 0.036920 0.938450 -0.619146
O20   O     O_R   0.999940 0.536920 0.061550 -0.619143
O21   O     O_R   0.000060 0.536920 0.938450 -0.619150
O22   O     O_R   0.536910 0.934410 0.536900 -0.581270
O23   O     O_R   0.065460 0.463010 0.065460 -0.561123
O24   O     O_R   0.463090 0.934410 0.463100 -0.581238
O25   O     O_R   0.036910 0.434410 0.536900 -0.581272
O26   O     O_R   0.963090 0.434410 0.463100 -0.581273
O27   O     O_R   0.536920 0.999880 0.475310 -0.606591
O28   O     O_R   0.463080 0.999880 0.524690 -0.606579
O29   O     O_R   0.036920 0.499880 0.475310 -0.606574
O30   O     O_R   0.963080 0.499880 0.524690 -0.606576
O31   O     O_R   0.463000 0.999950 0.401380 -0.599984
O32   O     O_R   0.537000 0.999950 0.598620 -0.600059
O33   O     O_R   0.963000 0.499950 0.401380 -0.600054
O34   O     O_R   0.934540 0.463010 0.934540 -0.561127
O35   O     O_R   0.037000 0.499950 0.598620 -0.600060
O36   O     O_R   0.536940 0.065340 0.536940 -0.628856
O37   O     O_R   0.463060 0.065340 0.463060 -0.628780
O38   O     O_R   0.036940 0.565340 0.536940 -0.628831
O39   O     O_R   0.963060 0.565340 0.463060 -0.628823
O40   O     O_R   0.999920 0.065420 0.534690 -0.629306
O41   O     O_R   0.000080 0.065420 0.465310 -0.629309
O42   O     O_R   0.499920 0.565420 0.534690 -0.629309
O43   O     O_R   0.500080 0.565420 0.465310 -0.629322
O44   O     O_2   0.410276 0.264810 0.412237 -0.535463
O45   O     O_R   0.934500 0.999950 0.469270 -0.627219
O46   O     O_2   0.589723 0.264810 0.587758 -0.535488
O47   O     O_2   0.910276 0.764810 0.412240 -0.535481
O48   O     O_2   0.089723 0.764810 0.587757 -0.535491
O49   O     O_R   0.065500 0.999950 0.530730 -0.627224
O50   O     O_R   0.434500 0.499950 0.469270 -0.627216
O51   O     O_R   0.565500 0.499950 0.530730 -0.627223
O52   O     O_R   0.934490 0.999950 0.399700 -0.574404
Zn1   Zn    Zn3+2 0.500000 0.950610 0.000000 1.125176
Zn2   Zn    Zn3+2 0.000030 0.999950 0.453590 1.040272
Zn3   Zn    Zn3+2 0.499970 0.499950 0.546410 1.040274
Zn4   Zn    Zn3+2 0.500030 0.499950 0.453590 1.040261
Zn5   Zn    Zn3+2 0.000000 0.450610 0.000000 1.125257
Zn6   Zn    Zn3+2 0.500000 0.049320 0.000000 1.002689
Zn7   Zn    Zn3+2 0.000000 0.549320 0.000000 1.002620
Zn8   Zn    Zn3+2 0.549320 0.999860 0.549320 1.061109
Zn9   Zn    Zn3+2 0.450680 0.999860 0.450680 1.061209
Zn10  Zn    Zn3+2 0.049320 0.499860 0.549320 1.061101
Zn11  Zn    Zn3+2 0.950680 0.499860 0.450680 1.061103
Zn12  Zn    Zn3+2 0.999970 0.999950 0.546410 1.040288

loop_
_geom_bond_atom_site_label_1
_geom_bond_atom_site_label_2
_ccdc_geom_bond_type
C99   C103  A    
C105  C110  A    
C133  C137  A    
C96   C102  S    
O42   Zn3   S    
C18   C21   A    
C5    Cl2   S    
C142  C146  A    
C46   C129  S    
O15   Zn1   S    
C120  C146  S    
C32   C81   S    
C9    C149  S    
C135  H64   S    
C56   C79   T    
C62   C152  S    
C92   C119  A    
C138  C143  A    
C140  C159  S    
C98   H55   S    
O31   Zn9   S    
C100  C104  A    
C69   C160  S    
C50   H33   S    
C27   C68   S    
O43   Zn4   S    
C123  C145  A    
C121  C147  S    
C93   C120  A    
C161  O41   A    
C136  H2    S    
C141  C145  A    
O34   Zn5   S    
O2    Zn12  S    
C116  O21   A    
C130  C134  A    
O7    Zn3   S    
C70   C162  S    
C114  O15   A    
C95   H53   S    
O41   Zn2   S    
C50   C53   A    
C59   C84   T    
C63   C153  S    
C170  H9    S    
C130  Cl23  S    
C92   H50   S    
O37   Zn9   S    
C10   C171  A    
C98   C102  A    
C62   C88   T    
C17   C21   A    
C57   C140  S    
C85   O10   A    
C135  C139  A    
C136  C141  A    
O18   Zn6   S    
O14   Zn1   S    
C16   C20   A    
C165  O49   A    
C125  Cl19  S    
C45   H29   S    
C141  H6    S    
C171  H10   S    
C126  Cl20  S    
C72   C84   S    
C10   C170  A    
C2    C71   S    
C4    Cl24  S    
C169  O8    A    
C70   C79   S    
O27   Zn8   S    
O30   Zn11  S    
C5    C8    A    
C152  O28   A    
C69   H48   S    
C13   C72   S    
C35   Cl9   S    
C104  Cl14  S    
C33   C38   A    
O36   Zn8   S    
C155  O36   A    
O24   Zn9   S    
C27   C160  S    
C37   H25   S    
C112  H63   S    
C68   C151  S    
C133  C166  S    
C47   H30   S    
C45   C50   A    
O12   Zn1   S    
C158  Cl6   S    
C107  O13   A    
C26   C57   S    
C3    C11   A    
O25   Zn10  S    
O8    Zn4   S    
C24   C77   S    
C48   C52   A    
O11   Zn7   S    
C31   C36   A    
C67   C159  S    
C27   C73   S    
C113  O18   A    
C42   C54   S    
C2    C75   S    
C115  O20   A    
C137  C142  A    
C20   H21   S    
C69   C77   S    
C6    C9    A    
C107  O34   A    
C6    C172  A    
C4    C170  A    
C14   H15   S    
C33   C42   A    
C131  C164  S    
C85   O12   A    
C58   C114  S    
C37   C40   A    
C127  Cl21  S    
C13   C57   S    
C65   C70   S    
C67   C72   S    
O21   Zn7   S    
O22   Zn8   S    
C160  Cl8   S    
C93   H51   S    
C137  H3    S    
C30   C41   A    
C25   C71   S    
C25   H12   S    
C111  H62   S    
C23   C70   S    
C152  O32   A    
C88   C129  S    
C129  C158  S    
C92   C97   A    
C71   C83   S    
C106  C111  A    
C74   C118  S    
C30   C34   A    
C51   H35   S    
C34   C39   A    
C117  C144  S    
C132  C165  S    
C74   C162  S    
C110  H56   S    
C124  C146  A    
C65   C74   S    
C39   C155  S    
C51   C53   A    
O13   Zn7   S    
C43   H27   S    
C15   H16   S    
C123  C127  A    
C132  C136  A    
C89   C140  S    
C7    Cl4   S    
C63   C89   T    
C32   C37   A    
C114  O19   A    
C60   C116  S    
C17   H18   S    
C81   O47   D    
C82   O48   D    
C31   C41   A    
C26   H23   S    
C172  H11   S    
C80   O46   D    
C110  C119  A    
C103  C107  S    
C164  O52   A    
C166  O50   A    
C46   Cl10  S    
O5    Zn12  S    
C112  C121  A    
C58   C83   T    
C23   C157  S    
O40   Zn12  S    
C91   C95   A    
C44   C54   A    
C45   C55   A    
C25   C158  S    
O38   Zn10  S    
C165  O2    A    
C35   C118  S    
C161  O40   A    
C94   H52   S    
C162  H36   S    
O28   Zn9   S    
C3    H13   S    
C26   C72   S    
C149  O26   A    
C156  O39   A    
C64   C90   T    
C168  O5    A    
C124  Cl18  S    
C109  C117  A    
C31   C80   S    
C96   O11   A    
C15   C19   A    
C12   C28   A    
C47   C55   A    
C80   H59   S    
C3    C7    A    
C24   C73   S    
C6    Cl3   S    
O10   Zn6   S    
C76   H42   S    
O16   Zn5   S    
C41   C55   S    
C163  O42   A    
C115  O16   A    
O19   Zn6   S    
C164  O45   A    
C153  O29   A    
C12   C17   A    
C56   C113  S    
C91   C117  A    
C65   H44   S    
C69   C73   S    
C44   H28   S    
C33   C82   S    
O26   Zn11  S    
C53   C169  S    
C124  C128  A    
C11   C172  A    
C77   C151  S    
C8    C148  S    
C1    C100  S    
C15   C29   A    
O50   Zn3   S    
C36   C39   A    
C154  O35   A    
C169  O7    A    
C96   O23   A    
C65   C157  S    
C125  C147  A    
C67   H47   S    
C95   C100  A    
C2    H37   S    
C47   C51   A    
C167  O51   A    
C108  C112  A    
C123  Cl12  S    
C27   H34   S    
C66   C71   S    
C109  H45   S    
C49   C52   A    
C26   C159  S    
C166  O3    A    
C66   C158  S    
C87   C118  S    
C20   C22   A    
O20   Zn7   S    
C23   C35   S    
C75   H41   S    
C60   C86   T    
C159  Cl7   S    
C90   C151  S    
O49   Zn2   S    
C34   H22   S    
C97   H54   S    
C119  C145  S    
C155  O37   A    
C38   H26   S    
C12   H14   S    
C151  C160  S    
C38   C40   A    
C10   C29   S    
C11   C28   S    
C66   C75   S    
O33   Zn11  S    
O52   Zn2   S    
C24   C68   S    
C94   C121  A    
C1    O9    A    
C77   H43   S    
C32   C42   A    
C118  C157  S    
O32   Zn8   S    
C138  H4    S    
C44   C49   A    
C91   H49   S    
O45   Zn12  S    
C14   C18   A    
C18   H19   S    
C122  C144  A    
C4    C8    A    
C36   H24   S    
C2    C46   S    
C143  C147  A    
C148  O22   A    
C126  C131  A    
C156  O38   A    
C116  O17   A    
O6    Zn2   S    
C128  Cl22  S    
C131  C135  A    
O4    Zn3   S    
C104  C109  A    
C78   O44   D    
C64   C154  S    
C19   H20   S    
C127  C132  A    
C43   C54   A    
C125  C130  A    
O9    Zn6   S    
C103  C108  A    
O23   Zn5   S    
C43   C48   A    
O17   Zn5   S    
C163  O43   A    
C143  H8    S    
O51   Zn4   S    
C82   H61   S    
C150  O31   A    
O29   Zn10  S    
C76   C140  S    
C101  C105  A    
C35   C162  S    
C21   C161  S    
C78   H58   S    
C19   C22   A    
C139  H5    S    
C48   H31   S    
C66   H46   S    
C153  O33   A    
C16   C29   A    
C154  O30   A    
C111  C120  A    
C49   H32   S    
C122  C126  A    
C139  C144  A    
C13   C76   S    
C5    C171  A    
C157  Cl5   S    
C1    O1    A    
O39   Zn11  S    
C68   Cl13  S    
O35   Zn10  S    
C108  Cl17  S    
C150  O27   A    
C74   H40   S    
O3    Zn4   S    
C57   Cl11  S    
C85   C101  S    
C61   C87   T    
C61   C150  S    
C7    C9    A    
C148  O24   A    
C149  O25   A    
C168  O6    A    
C113  O14   A    
C134  C138  A    
C122  Cl1   S    
C23   H1    S    
O1    Zn1   S    
C142  H7    S    
C105  Cl15  S    
C106  Cl16  S    
C99   H57   S    
C24   H39   S    
C128  C133  A    
C52   C168  S    
C22   C163  S    
C94   C99   A    
C93   C98   A    
C102  C106  A    
C167  O4    A    
C81   H60   S    
C16   H17   S    
C73   C86   S    
C30   C78   S    
C59   C115  S    
C134  C167  S    
C40   C156  S    
C67   C76   S    
C14   C28   A    
C25   C46   S    
C97   C101  A    
C75   C129  S    
C13   H38   S    
