data_mof_unit_20133.cif
_audit_creation_date              2013-03-05T16:43:03-0500
_audit_creation_method            fapswitch 2.2
_symmetry_space_group_name_H-M    P1
_symmetry_Int_Tables_number       1
_space_group_crystal_system       triclinic
_cell_length_a                    10.726125
_cell_length_b                    10.68928
_cell_length_c                    9.844556
_cell_angle_alpha                 90.567442
_cell_angle_beta                  90.299257
_cell_angle_gamma                 90.255104
_cell_volume                      1128.64097269

loop_
_atom_site_label
_atom_site_type_symbol
_atom_site_description
_atom_site_fract_x
_atom_site_fract_y
_atom_site_fract_z
_atom_type_partial_charge
O1    O     O_R   0.500020 0.316790 0.614690 -0.624394
O2    O     O_R   0.500000 0.316760 0.385350 -0.583713
C1    C     C_R   0.509992 0.260215 0.499041 0.905906
O3    O     O_R   0.314800 0.500000 0.614670 -0.595595
O4    O     O_R   0.314790 0.499960 0.385330 -0.587500
C2    C     C_R   0.257602 0.503300 0.500122 0.868137
Zn1   Zn    Zn3+2 0.500010 0.500020 0.653130 0.965785
Zn2   Zn    Zn3+2 0.499990 0.499980 0.346870 1.014720
O5    O     O_R   0.500000 0.683240 0.614650 -0.633587
O6    O     O_R   0.499980 0.683210 0.385310 -0.603889
O7    O     O_R   0.685210 0.500040 0.614670 -0.604774
O8    O     O_R   0.685200 0.500000 0.385330 -0.620430
C3    C     C_R   0.506274 0.740401 0.500667 0.905603
C4    C     C_R   0.742356 0.501196 0.500973 0.898195
C5    C     C_3   0.070990 0.491223 0.651634 0.259429
H1    H     H_    0.093870 0.392740 0.678111 0.085308
C6    C     C_3   0.927858 0.494480 0.654365 0.296703
H2    H     H_    0.893052 0.402647 0.693643 0.032047
H3    H     H_    0.101300 0.711714 0.489391 0.052969
H4    H     H_    0.893142 0.708729 0.502507 0.175068
C7    C     C_3   0.068892 0.627816 0.433290 0.195483
C8    C     C_3   0.071229 0.389875 0.421522 -0.466559
C9    C     C_3   0.121214 0.506151 0.501632 -0.127884
H5    H     H_    0.107127 0.385946 0.316123 0.252449
H6    H     H_    0.104153 0.301972 0.469461 0.157550
C10   C     C_3   0.878517 0.504065 0.504475 -0.033211
C11   C     C_3   0.925115 0.627443 0.440486 -0.446775
C12   C     C_3   0.927952 0.391202 0.419909 -0.433673
H7    H     H_    0.891793 0.301839 0.461880 0.183337
H8    H     H_    0.894880 0.397011 0.312783 0.262150
H9    H     H_    0.883204 0.639418 0.337822 0.211915
C13   C     C_R   0.535278 0.066324 0.620311 0.065353
C14   C     C_R   0.540022 0.129626 0.498107 -0.240458
C15   C     C_R   0.572254 0.062797 0.378604 0.300100
C16   C     C_R   0.564861 0.932423 0.380807 -0.228981
H10   H     H_    0.578721 0.879901 0.287445 0.216232
C17   C     C_R   0.533814 0.871508 0.502095 -0.222536
C18   C     C_R   0.537613 0.938653 0.624178 0.098514
C19   C     C_3   0.451999 0.937388 0.744580 0.145415
C20   C     C_3   0.446224 0.078340 0.734918 -0.480067
H11   H     H_    0.362260 0.888479 0.724756 0.076752
H12   H     H_    0.353285 0.112134 0.701153 0.154835
H13   H     H_    0.488627 0.129246 0.822846 0.252591
C21   C     C_R   0.457170 0.398233 0.070642 0.301183
N1    N     N_R   0.499150 0.499140 0.142800 -0.118612
C22   C     C_R   0.550201 0.596613 0.073080 -0.066778
H14   H     H_    0.589498 0.675532 0.128175 0.173062
C23   C     C_R   0.549522 0.596516 0.929096 -0.129242
H15   H     H_    0.587928 0.674041 0.874513 0.203698
N2    N     N_R   0.499150 0.499180 0.857150 -0.128052
C24   C     C_R   0.456213 0.398428 0.927668 0.215875
C25   C     C_3   0.325519 0.348972 0.925113 -0.513000
C26   C     C_3   0.328879 0.346201 0.078637 -0.488112
H16   H     H_    0.258189 0.417594 0.885781 0.275335
H17   H     H_    0.316611 0.254590 0.879193 0.203020
H18   H     H_    0.262163 0.412214 0.126577 0.248558
H19   H     H_    0.327979 0.249983 0.120465 0.229557
O9    O     O_3   0.129041 0.558508 0.761106 -0.606876
C27   C     C_3   0.146609 0.688107 0.744415 0.101384
H20   H     H_    0.058234 0.736944 0.720910 0.186595
H21   H     H_    0.217452 0.707535 0.665889 0.128875
C28   C     C_3   0.199863 0.740480 0.876822 -0.685448
H22   H     H_    0.297681 0.708882 0.888429 0.271218
H23   H     H_    0.196534 0.844252 0.877014 0.208503
H24   H     H_    0.147436 0.705434 0.965272 0.296638
N3    N     N_R   0.111664 0.642836 0.292467 0.226834
O10   O     O_R   0.190474 0.731606 0.264055 -0.386697
O11   O     O_R   0.064577 0.576008 0.193405 -0.457749
N4    N     N_R   0.607664 0.124314 0.255571 0.216626
O12   O     O_R   0.694132 0.210108 0.258615 -0.414043
O13   O     O_R   0.568136 0.082050 0.138616 -0.339148
N5    N     N_R   0.514294 0.900426 0.870408 0.219438
O14   O     O_R   0.633605 0.918951 0.886040 -0.390157
O15   O     O_R   0.447110 0.879099 0.977329 -0.387715
O16   O     O_3   0.884517 0.595884 0.735742 -0.602317
C29   C     C_3   0.867622 0.558024 0.872011 0.147343
H25   H     H_    0.947586 0.502334 0.910655 0.188712
H26   H     H_    0.781885 0.499928 0.879571 0.145555
C30   C     C_3   0.854444 0.672935 0.963281 -0.722733
H27   H     H_    0.828802 0.644155 0.067557 0.212299
H28   H     H_    0.942642 0.726408 0.968113 0.264692
H29   H     H_    0.782510 0.736171 0.922767 0.273159

loop_
_geom_bond_atom_site_label_1
_geom_bond_atom_site_label_2
_geom_bond_distance
_ccdc_geom_bond_type
N3    O11   1.301641 A    
C7    N3    1.472612 S    
C16   H10   1.083515 S    
C29   C30   1.522188 S    
C19   H11   1.108807 S    
N1    C22   1.367312 A    
C21   N1    1.359389 A    
Zn1   O7    2.024179 S    
C10   C11   1.549134 S    
C28   H22   1.109352 S    
C6    C10   1.569491 S    
C12   H7    1.113458 S    
C16   C17   1.406488 A    
C29   H26   1.110603 S    
O4    C2    1.288896 A    
O7    C4    1.279091 A    
C1    C14   1.433928 S    
C5    H1    1.115096 S    
Zn1   O5    1.998469 S    
C15   C16   1.395892 A    
N4    O13   1.300923 A    
O5    C3    1.284915 A    
Zn2   N1    2.008883 S    
C28   H23   1.109971 S    
C21   C26   1.484684 S    
C20   H13   1.112024 S    
C8    H6    1.113693 S    
C19   N5    1.463016 S    
C13   C18   1.365954 A    
C3    C17   1.430861 S    
C25   H17   1.104982 S    
C5    C9    1.583833 S    
C20   H12   1.112140 S    
N3    O10   1.301458 A    
C7    C11   1.544149 S    
C27   H20   1.108661 S    
C8    C12   1.536934 S    
O3    Zn1   2.020401 S    
C25   H16   1.103152 S    
N2    C24   1.366611 A    
C22   C23   1.417424 A    
C27   H21   1.107271 S    
C11   H9    1.112775 S    
C24   C25   1.496007 S    
C29   H25   1.113727 S    
N5    O15   1.300159 A    
C19   C20   1.512140 S    
C30   H28   1.103676 S    
C26   H19   1.111661 S    
O9    C27   1.408588 S    
O1    C1    1.289025 A    
O16   C29   1.417359 S    
C17   C18   1.394061 A    
O4    Zn2   2.024181 S    
Zn2   O8    2.020398 S    
C6    H2    1.121718 S    
C4    C10   1.460891 S    
C15   N4    1.435981 S    
C21   C24   1.407524 A    
O3    C2    1.281809 A    
C23   H15   1.073905 S    
O8    C4    1.290128 A    
C7    C9    1.574424 S    
C5    O9    1.428324 S    
C8    H5    1.109103 S    
C25   C26   1.512208 S    
C26   H18   1.110933 S    
C5    C6    1.536171 S    
C22   H14   1.081147 S    
C27   C28   1.521081 S    
C28   H24   1.106557 S    
H3    C7    1.102518 S    
O1    Zn1   1.991137 S    
O2    Zn2   1.998469 S    
Zn1   N2    2.008664 S    
N5    O14   1.302197 A    
O6    C3    1.285703 A    
C30   H29   1.103672 S    
H4    C11   1.113422 S    
C10   C12   1.555677 S    
C13   C14   1.387163 A    
C12   H8    1.113310 S    
O2    C1    1.281497 A    
C18   C19   1.503321 S    
C2    C9    1.463517 S    
C23   N2    1.361071 A    
C14   C15   1.415507 A    
C13   C20   1.487070 S    
N4    O12   1.301428 A    
C30   H27   1.110205 S    
Zn2   O6    1.991138 S    
C6    O16   1.422675 S    
C8    C9    1.557080 S    
