data_mof_unit_6345.cif
_audit_creation_date              2012-12-10T18:15:22-0500
_audit_creation_method            fapswitch 2.2
_symmetry_space_group_name_H-M    P1
_symmetry_Int_Tables_number       1
_space_group_crystal_system       triclinic
_cell_length_a                    23.473048
_cell_length_b                    21.620822
_cell_length_c                    14.655804
_cell_angle_alpha                 89.940764
_cell_angle_beta                  90.31085
_cell_angle_gamma                 89.988241
_cell_volume                      7437.8035442

loop_
_atom_site_label
_atom_site_type_symbol
_atom_type_description
_atom_site_fract_x
_atom_site_fract_y
_atom_site_fract_z
_atom_type_partial_charge
C1    C     C_R   0.079803 0.419741 0.500455 0.837139
C2    C     C_R   0.077261 0.582958 0.500111 0.837642
C3    C     C_R   0.580478 0.920623 0.500465 0.824032
C4    C     C_R   0.579629 0.080468 0.499877 0.828438
C5    C     C_1   0.154261 0.670973 0.495616 -0.058884
C6    C     C_1   0.160904 0.336393 0.508766 -0.048476
C7    C     C_1   0.660336 0.164223 0.492325 -0.044944
C8    C     C_1   0.663804 0.839989 0.505698 -0.030919
C9    C     C_1   0.836726 0.339578 0.489286 0.032147
C10   C     C_1   0.842590 0.667405 0.499736 0.027066
C11   C     C_1   0.346934 0.826661 0.496649 0.010125
C12   C     C_1   0.336997 0.160719 0.509124 0.030665
C13   C     C_1   0.875036 0.376060 0.496503 -0.101715
C14   C     C_1   0.878411 0.627753 0.498407 -0.064939
C15   C     C_1   0.382604 0.866819 0.499089 -0.089396
C16   C     C_1   0.375143 0.124057 0.502141 -0.105148
C17   C     C_3   0.970313 0.561701 0.054208 -0.205588
C18   C     C_3   0.974172 0.564475 0.946315 -0.210489
C19   C     C_3   0.959903 0.444828 0.944989 -0.202235
C20   C     C_3   0.963156 0.441371 0.052986 -0.205398
C21   C     C_3   0.467073 0.060320 0.055315 -0.202520
C22   C     C_3   0.470598 0.064058 0.947349 -0.216229
C23   C     C_3   0.460095 0.944720 0.944637 -0.198629
C24   C     C_3   0.466701 0.939778 0.052338 -0.198172
C25   C     C_3   0.995819 0.499445 0.092268 0.050208
C26   C     C_3   0.995889 0.500665 0.907479 0.049595
C27   C     C_3   0.496033 0.999718 0.092365 0.045152
C28   C     C_3   0.495012 0.001543 0.907594 0.055404
C29   C     C_3   0.057209 0.491828 0.947043 -0.425051
C30   C     C_3   0.057525 0.495113 0.053490 -0.415539
C31   C     C_3   0.556717 0.995266 0.946856 -0.416520
C32   C     C_3   0.557613 0.999853 0.053098 -0.429011
C33   C     C_1   0.998780 0.500197 0.804653 0.160395
C34   C     C_1   0.998770 0.499648 0.195273 0.151380
C35   C     C_1   0.498354 0.001048 0.804667 0.191183
C36   C     C_1   0.499026 0.999716 0.195301 0.155097
C37   C     C_R   0.920222 0.419686 0.499536 0.834919
C38   C     C_R   0.920817 0.580956 0.499597 0.829900
C39   C     C_R   0.422688 0.916778 0.499865 0.840588
C40   C     C_R   0.420203 0.080282 0.500086 0.838018
C41   C     C_3   0.786242 0.262858 0.580916 -0.219102
C42   C     C_3   0.796018 0.246449 0.401134 -0.196418
C43   C     C_3   0.802431 0.760877 0.423356 -0.245965
C44   C     C_3   0.794790 0.748493 0.601044 -0.228290
C45   C     C_3   0.283649 0.760579 0.592394 -0.241988
C46   C     C_3   0.306894 0.726156 0.426295 -0.231081
C47   C     C_3   0.286186 0.238544 0.418824 -0.219612
C48   C     C_3   0.296927 0.253008 0.599410 -0.197782
C49   C     C_3   0.251523 0.681448 0.422994 -0.106276
C50   C     C_3   0.227934 0.718504 0.598997 -0.081519
C51   C     C_3   0.256659 0.312218 0.585844 -0.089443
C52   C     C_3   0.233087 0.284796 0.408488 -0.103840
C53   C     C_3   0.755663 0.187433 0.415577 -0.087440
C54   C     C_3   0.732995 0.216999 0.592170 -0.105960
C55   C     C_3   0.744804 0.799935 0.605642 -0.111574
C56   C     C_3   0.752380 0.811047 0.419056 -0.080477
C57   C     C_1   0.117897 0.631787 0.499665 -0.168657
C58   C     C_1   0.123909 0.374800 0.503043 -0.205470
C59   C     C_1   0.623485 0.125699 0.498007 -0.197715
C60   C     C_1   0.625992 0.877509 0.502651 -0.185396
C61   C     C_3   0.788884 0.295143 0.483314 0.023767
C62   C     C_3   0.796024 0.713338 0.504662 0.013681
C63   C     C_3   0.297339 0.783682 0.492526 0.019047
C64   C     C_3   0.289336 0.205279 0.515836 0.025744
C65   C     C_3   0.202947 0.713735 0.491653 0.047833
C66   C     C_3   0.205794 0.289094 0.513029 0.042482
C67   C     C_3   0.705179 0.211511 0.487493 0.043824
C68   C     C_3   0.709510 0.793726 0.506538 0.046458
C69   C     C_3   0.184980 0.782534 0.446846 -0.094153
C70   C     C_3   0.179014 0.221507 0.552148 -0.105570
C71   C     C_3   0.678373 0.278751 0.446643 -0.108492
C72   C     C_3   0.681760 0.722106 0.498814 -0.094031
C73   C     C_3   0.728757 0.332296 0.466356 -0.181855
C74   C     C_3   0.737393 0.673825 0.489606 -0.177326
C75   C     C_3   0.244069 0.826071 0.454743 -0.179500
C76   C     C_3   0.229285 0.168071 0.531841 -0.168346
Cu1   Cu    Cu3+1 0.999990 0.500000 0.589920 1.007489
Cu2   Cu    Cu3+1 0.999990 0.500000 0.410080 1.002169
Cu3   Cu    Cu3+1 0.499990 0.000000 0.589920 1.003922
Cu4   Cu    Cu3+1 0.499990 0.000000 0.410080 1.008590
H1    H     H_    0.774150 0.271386 0.347097 0.154213
H2    H     H_    0.776620 0.302632 0.621216 0.121651
H3    H     H_    0.778362 0.710668 0.641329 0.179447
H4    H     H_    0.793965 0.730703 0.367810 0.150490
H5    H     H_    0.306987 0.750864 0.362830 0.182298
H6    H     H_    0.270279 0.803548 0.619154 0.154247
H7    H     H_    0.275527 0.227539 0.653007 0.155461
H8    H     H_    0.276170 0.199201 0.377607 0.122825
H9    H     H_    0.991125 0.401038 0.068932 0.089061
H10   H     H_    0.981827 0.402330 0.920117 0.117436
H11   H     H_    0.008761 0.598221 0.931009 0.095854
H12   H     H_    0.999221 0.598906 0.079648 0.117532
H13   H     H_    0.498320 0.902046 0.064103 0.099079
H14   H     H_    0.480558 0.902275 0.916715 0.094546
H15   H     H_    0.503471 0.099742 0.931960 0.093504
H16   H     H_    0.493717 0.099353 0.081120 0.117438
H17   H     H_    0.082834 0.535969 0.075432 0.166995
H18   H     H_    0.086335 0.527841 0.919486 0.170743
H19   H     H_    0.074760 0.446432 0.925025 0.168930
H20   H     H_    0.079718 0.453674 0.081499 0.170045
H21   H     H_    0.580337 0.042738 0.074128 0.170824
H22   H     H_    0.584639 0.031970 0.918111 0.172098
H23   H     H_    0.575341 0.950156 0.925825 0.171714
H24   H     H_    0.582558 0.960473 0.081296 0.162354
N1    N     N_1   0.000150 0.500000 0.724970 -0.137962
N2    N     N_1   0.000150 0.500000 0.275030 -0.138712
N3    N     N_1   0.500150 1.000000 0.724970 -0.133510
N4    N     N_1   0.500150 1.000000 0.275030 -0.136976
O1    O     O_R   0.060270 0.439640 0.575970 -0.585807
O2    O     O_R   0.060270 0.439640 0.424030 -0.577626
O3    O     O_R   0.060270 0.560360 0.424030 -0.583113
O4    O     O_R   0.060270 0.560360 0.575970 -0.581777
O5    O     O_R   0.560270 0.939640 0.575970 -0.577917
O6    O     O_R   0.560270 0.939640 0.424030 -0.596094
O7    O     O_R   0.560270 0.060360 0.424030 -0.589897
O8    O     O_R   0.560270 0.060360 0.575970 -0.578527
O9    O     O_R   0.939710 0.439640 0.575970 -0.549243
O10   O     O_R   0.939710 0.439640 0.424030 -0.564860
O11   O     O_R   0.939710 0.560360 0.424030 -0.556506
O12   O     O_R   0.939710 0.560360 0.575970 -0.550764
O13   O     O_R   0.439710 0.939640 0.575970 -0.557048
O14   O     O_R   0.439710 0.939640 0.424030 -0.537126
O15   O     O_R   0.439710 0.060360 0.424030 -0.542623
O16   O     O_R   0.439710 0.060360 0.575970 -0.564876
C77   C     C_2   0.242449 0.655465 0.645492 0.855526
O17   O     O_2   0.222007 0.606846 0.618452 -0.582735
O18   O     O_R   0.266387 0.655549 0.733398 -0.753914
H25   H     H_    0.269993 0.612573 0.760616 0.336115
C78   C     C_2   0.265645 0.614662 0.455933 0.897763
O19   O     O_2   0.308668 0.602802 0.499551 -0.618912
O20   O     O_R   0.227875 0.565861 0.438660 -0.748454
H26   H     H_    0.241515 0.524774 0.463743 0.383594
C79   C     C_2   0.253253 0.348712 0.369786 0.894628
O21   O     O_2   0.234695 0.397366 0.400099 -0.602514
O22   O     O_R   0.284257 0.351828 0.288832 -0.765472
H27   H     H_    0.292181 0.395800 0.268384 0.337446
C80   C     C_2   0.293162 0.365858 0.547852 0.854442
O23   O     O_2   0.336644 0.355397 0.505418 -0.627263
O24   O     O_R   0.279615 0.427803 0.565167 -0.755328
H28   H     H_    0.308977 0.457695 0.540230 0.353669
C81   C     C_2   0.753171 0.153594 0.632886 0.891797
O25   O     O_2   0.733726 0.104654 0.604833 -0.590030
O26   O     O_R   0.785223 0.151546 0.713411 -0.765147
H29   H     H_    0.793037 0.107858 0.735400 0.337509
C82   C     C_2   0.791665 0.133791 0.455446 0.846711
O27   O     O_2   0.836043 0.144088 0.496266 -0.629285
O28   O     O_R   0.775913 0.071853 0.443176 -0.735171
H30   H     H_    0.804023 0.041687 0.471440 0.362783
C83   C     C_2   0.778038 0.877472 0.420756 0.854016
O29   O     O_2   0.754371 0.919581 0.461005 -0.577090
O30   O     O_R   0.819486 0.893817 0.356611 -0.747017
H31   H     H_    0.830043 0.939272 0.358965 0.338159
C84   C     C_2   0.769083 0.866156 0.618939 0.883925
O31   O     O_2   0.819874 0.877171 0.614388 -0.632856
O32   O     O_R   0.732634 0.915963 0.637047 -0.738763
H32   H     H_    0.753528 0.956659 0.645252 0.367837
C85   C     C_R   0.843076 0.248453 0.631856 0.178504
C86   C     C_R   0.894939 0.235648 0.587131 -0.048657
C87   C     C_R   0.945364 0.226650 0.636698 -0.168877
C88   C     C_R   0.945446 0.230781 0.731524 -0.127658
C89   C     C_R   0.895742 0.246798 0.776989 -0.066015
C90   C     C_R   0.845519 0.256860 0.727801 -0.063926
H33   H     H_    0.897465 0.233780 0.513946 0.165284
H34   H     H_    0.984703 0.217164 0.601585 0.150074
H35   H     H_    0.984159 0.222364 0.769811 0.135749
H36   H     H_    0.896085 0.251686 0.850495 0.146184
H37   H     H_    0.807808 0.269785 0.765293 0.130338
C91   C     C_R   0.854462 0.238979 0.349417 0.077143
C92   C     C_R   0.881857 0.292158 0.313196 -0.163983
C93   C     C_R   0.927703 0.288113 0.253144 -0.127815
C94   C     C_R   0.946317 0.230875 0.222719 -0.122305
C95   C     C_R   0.920225 0.177524 0.254613 -0.171472
C96   C     C_R   0.874965 0.181229 0.315973 -0.106881
H38   H     H_    0.866579 0.337955 0.325679 0.215264
H39   H     H_    0.947736 0.329790 0.227924 0.143874
H40   H     H_    0.980931 0.227841 0.174533 0.129144
H41   H     H_    0.934082 0.132877 0.229754 0.140227
H42   H     H_    0.854441 0.137877 0.328560 0.149873
C97   C     C_R   0.863425 0.781061 0.396376 0.134512
C98   C     C_R   0.896907 0.820472 0.450766 -0.099546
C99   C     C_R   0.948245 0.844638 0.419075 -0.136432
C100  C     C_R   0.967987 0.829196 0.332712 -0.114993
C101  C     C_R   0.936647 0.788668 0.278320 -0.109556
C102  C     C_R   0.885444 0.764111 0.310052 -0.100395
H43   H     H_    0.882788 0.834883 0.516093 0.193847
H44   H     H_    0.971758 0.876896 0.460685 0.146825
H45   H     H_    0.007426 0.848776 0.307930 0.144954
H46   H     H_    0.951689 0.776633 0.210950 0.139191
H47   H     H_    0.862478 0.733016 0.265454 0.116732
C103  C     C_R   0.851635 0.761005 0.656964 0.167077
C104  C     C_R   0.906627 0.741112 0.629591 -0.105786
C105  C     C_R   0.952444 0.738524 0.690538 -0.157811
C106  C     C_R   0.946987 0.761543 0.778442 -0.091238
C107  C     C_R   0.895978 0.788407 0.804613 -0.127556
C108  C     C_R   0.849331 0.788336 0.745121 -0.118412
H48   H     H_    0.917019 0.728968 0.561111 0.112976
H49   H     H_    0.992815 0.719781 0.668333 0.121018
H50   H     H_    0.982642 0.760309 0.825341 0.128404
H51   H     H_    0.892226 0.808900 0.871679 0.140935
H52   H     H_    0.812183 0.812046 0.769071 0.140639
C109  C     C_R   0.334159 0.747958 0.658931 0.122910
C110  C     C_R   0.365639 0.692434 0.659391 -0.072148
C111  C     C_R   0.405218 0.679462 0.728353 -0.147206
C112  C     C_R   0.414610 0.721936 0.798246 -0.140707
C113  C     C_R   0.386449 0.778478 0.797030 -0.076787
C114  C     C_R   0.347208 0.791779 0.727809 -0.122519
H53   H     H_    0.357739 0.657289 0.609806 0.197705
H54   H     H_    0.427588 0.635681 0.728702 0.137658
H55   H     H_    0.443581 0.711134 0.853642 0.122304
H56   H     H_    0.394232 0.811500 0.851015 0.161795
H57   H     H_    0.325735 0.835949 0.729931 0.121856
C115  C     C_R   0.366468 0.693061 0.419512 0.167831
C116  C     C_R   0.414463 0.707598 0.474330 -0.136324
C117  C     C_R   0.462207 0.668916 0.476713 -0.149626
C118  C     C_R   0.465045 0.616811 0.421947 -0.086467
C119  C     C_R   0.421994 0.605324 0.359445 -0.115543
C120  C     C_R   0.373910 0.643115 0.357276 -0.109671
H58   H     H_    0.415434 0.745449 0.521247 0.126151
H59   H     H_    0.496450 0.677785 0.523538 0.152432
H60   H     H_    0.500496 0.585190 0.428326 0.123378
H61   H     H_    0.424505 0.565280 0.315348 0.125445
H62   H     H_    0.340537 0.627137 0.313401 0.127891
C121  C     C_R   0.342672 0.253299 0.368143 0.184567
C122  C     C_R   0.395094 0.264607 0.412999 -0.047990
C123  C     C_R   0.445222 0.273409 0.363447 -0.173848
C124  C     C_R   0.444381 0.271069 0.268501 -0.113865
C125  C     C_R   0.393966 0.257069 0.222747 -0.067902
C126  C     C_R   0.344105 0.246728 0.271890 -0.083089
H63   H     H_    0.398266 0.265393 0.486237 0.163889
H64   H     H_    0.485055 0.281320 0.398612 0.148469
H65   H     H_    0.482935 0.279248 0.230334 0.134629
H66   H     H_    0.393538 0.253628 0.149063 0.149313
H67   H     H_    0.305877 0.234995 0.234207 0.132424
C127  C     C_R   0.355839 0.260367 0.650904 0.075983
C128  C     C_R   0.384608 0.207039 0.684147 -0.160857
C129  C     C_R   0.432157 0.210851 0.741552 -0.132196
C130  C     C_R   0.450244 0.267726 0.774461 -0.120211
C131  C     C_R   0.422380 0.321139 0.746555 -0.171015
C132  C     C_R   0.375984 0.317785 0.686594 -0.106520
H68   H     H_    0.369286 0.161237 0.671387 0.218952
H69   H     H_    0.453919 0.169189 0.763061 0.149754
H70   H     H_    0.485906 0.270438 0.821274 0.132913
H71   H     H_    0.435884 0.365496 0.773243 0.139398
H72   H     H_    0.354424 0.360946 0.677020 0.152032
C133  C     C_R   0.232120 0.668876 0.318727 0.054656
C134  C     C_R   0.182758 0.632960 0.297697 -0.009687
C135  C     C_R   0.166697 0.617308 0.208846 -0.125912
C136  C     C_R   0.199312 0.635914 0.135388 -0.114432
C137  C     C_R   0.248393 0.669951 0.150891 -0.117635
C138  C     C_R   0.264792 0.685945 0.239693 -0.217577
H73   H     H_    0.155756 0.614111 0.348335 0.178056
H74   H     H_    0.128599 0.590191 0.197436 0.117638
H75   H     H_    0.186728 0.623681 0.066572 0.124929
H76   H     H_    0.274334 0.683989 0.093611 0.141210
H77   H     H_    0.304529 0.710533 0.241418 0.132031
C139  C     C_R   0.183803 0.741900 0.674369 0.104346
C140  C     C_R   0.138295 0.701838 0.701877 -0.159664
C141  C     C_R   0.101636 0.715935 0.773554 -0.171812
C142  C     C_R   0.109092 0.769838 0.823261 -0.139987
C143  C     C_R   0.154176 0.808795 0.802934 -0.112472
C144  C     C_R   0.191761 0.794551 0.732302 -0.004172
H78   H     H_    0.131106 0.657945 0.669472 0.167974
H79   H     H_    0.067754 0.684221 0.791305 0.130524
H80   H     H_    0.080958 0.780609 0.879296 0.121718
H81   H     H_    0.161256 0.849637 0.844179 0.135498
H82   H     H_    0.227123 0.825654 0.729810 0.129959
C145  C     C_R   0.234315 0.338112 0.681282 0.075422
C146  C     C_R   0.198097 0.390928 0.685666 -0.021052
C147  C     C_R   0.178937 0.415412 0.768155 -0.137187
C148  C     C_R   0.196777 0.389923 0.850363 -0.126818
C149  C     C_R   0.234468 0.340465 0.850113 -0.101129
C150  C     C_R   0.253221 0.315189 0.767780 -0.147667
H83   H     H_    0.186197 0.416695 0.626044 0.187619
H84   H     H_    0.151018 0.455296 0.768101 0.136970
H85   H     H_    0.182188 0.409147 0.914271 0.122804
H86   H     H_    0.249093 0.321086 0.914238 0.131708
H87   H     H_    0.282015 0.276943 0.775675 0.135003
C151  C     C_R   0.188802 0.266762 0.329695 0.076937
C152  C     C_R   0.148613 0.312206 0.298594 -0.146577
C153  C     C_R   0.110445 0.301409 0.226997 -0.153982
C154  C     C_R   0.111860 0.245868 0.180030 -0.126046
C155  C     C_R   0.152185 0.201653 0.203476 -0.098713
C156  C     C_R   0.190747 0.212127 0.274915 -0.077043
H88   H     H_    0.145699 0.357079 0.329937 0.170568
H89   H     H_    0.079968 0.336706 0.207484 0.122262
H90   H     H_    0.082624 0.237630 0.124010 0.111141
H91   H     H_    0.154379 0.159064 0.164837 0.130252
H92   H     H_    0.221146 0.175551 0.282029 0.121832
C157  C     C_R   0.733108 0.160667 0.320302 0.073414
C158  C     C_R   0.696824 0.107850 0.316295 -0.029798
C159  C     C_R   0.677857 0.082429 0.233982 -0.140144
C160  C     C_R   0.695756 0.107075 0.151583 -0.117906
C161  C     C_R   0.733218 0.156700 0.151481 -0.101175
C162  C     C_R   0.751863 0.182836 0.233602 -0.145431
H93   H     H_    0.684582 0.082770 0.376088 0.188530
H94   H     H_    0.650017 0.042488 0.234379 0.126315
H95   H     H_    0.681364 0.087123 0.087813 0.121469
H96   H     H_    0.747795 0.175510 0.087216 0.132621
H97   H     H_    0.780427 0.221159 0.225258 0.137341
C163  C     C_R   0.689202 0.236181 0.670321 0.081190
C164  C     C_R   0.648641 0.191498 0.701730 -0.148780
C165  C     C_R   0.611346 0.202966 0.773622 -0.152604
C166  C     C_R   0.614072 0.258445 0.820628 -0.123277
C167  C     C_R   0.654669 0.302025 0.796668 -0.101417
C168  C     C_R   0.692325 0.290896 0.724889 -0.075194
H98   H     H_    0.644884 0.146616 0.670636 0.169735
H99   H     H_    0.580610 0.168175 0.793470 0.121067
H100  H     H_    0.585645 0.267134 0.877063 0.111387
H101  H     H_    0.657827 0.344599 0.835216 0.125724
H102  H     H_    0.723017 0.327093 0.717373 0.114562
C169  C     C_R   0.707429 0.792899 0.697071 0.057348
C170  C     C_R   0.659263 0.831569 0.713811 -0.025407
C171  C     C_R   0.628588 0.830095 0.795214 -0.133393
C172  C     C_R   0.644877 0.790907 0.865444 -0.119034
C173  C     C_R   0.692080 0.753221 0.854483 -0.116745
C174  C     C_R   0.722679 0.753885 0.772861 -0.207163
H103  H     H_    0.644906 0.865860 0.666967 0.182225
H104  H     H_    0.592243 0.860327 0.804052 0.118265
H105  H     H_    0.621107 0.789976 0.928494 0.111404
H106  H     H_    0.705144 0.722873 0.909576 0.133080
H107  H     H_    0.758336 0.722748 0.773515 0.135637
C175  C     C_R   0.721624 0.815687 0.321623 0.091131
C176  C     C_R   0.684883 0.867140 0.302675 -0.144882
C177  C     C_R   0.657969 0.875675 0.218539 -0.150934
C178  C     C_R   0.668370 0.835276 0.147225 -0.135463
C179  C     C_R   0.707321 0.787635 0.159254 -0.107516
C180  C     C_R   0.734775 0.778990 0.243342 -0.011566
H108  H     H_    0.676421 0.902179 0.352751 0.174566
H109  H     H_    0.629305 0.914330 0.208878 0.123556
H110  H     H_    0.647586 0.842029 0.081878 0.118692
H111  H     H_    0.717449 0.757849 0.102225 0.127289
H112  H     H_    0.766908 0.744026 0.240888 0.130952
C181  C     C_2   0.718017 0.376859 0.549026 0.859380
O33   O     O_2   0.756069 0.412258 0.572841 -0.578259
O34   O     O_R   0.665828 0.382197 0.593631 -0.742544
H113  H     H_    0.665680 0.415462 0.642382 0.341120
C182  C     C_2   0.734727 0.382438 0.391170 0.811119
O35   O     O_2   0.777035 0.385242 0.343212 -0.621883
O36   O     O_R   0.694949 0.430461 0.383811 -0.747304
H114  H     H_    0.704692 0.461451 0.334313 0.352036
C183  C     C_2   0.742537 0.639090 0.395447 0.802093
O37   O     O_2   0.722970 0.660177 0.324671 -0.623782
O38   O     O_R   0.773081 0.583336 0.390157 -0.717311
H115  H     H_    0.774566 0.565900 0.326007 0.351260
C184  C     C_2   0.735337 0.616412 0.554118 0.824302
O39   O     O_2   0.697555 0.577890 0.545608 -0.579715
O40   O     O_R   0.777564 0.605021 0.620122 -0.764312
H116  H     H_    0.771023 0.565344 0.655504 0.366691
C185  C     C_2   0.238898 0.883872 0.520212 0.814417
O41   O     O_2   0.208780 0.883434 0.587901 -0.621812
O42   O     O_R   0.271491 0.937220 0.503941 -0.704583
H117  H     H_    0.265690 0.970558 0.551576 0.363875
C186  C     C_2   0.260053 0.860066 0.364837 0.828856
O43   O     O_2   0.227961 0.899142 0.332821 -0.582292
O44   O     O_R   0.312535 0.851344 0.321622 -0.777326
H118  H     H_    0.316975 0.877847 0.265063 0.368926
C187  C     C_2   0.218124 0.124043 0.448507 0.843766
O45   O     O_2   0.256146 0.089021 0.424028 -0.566553
O46   O     O_R   0.165597 0.118661 0.404048 -0.747452
H119  H     H_    0.165220 0.085731 0.354806 0.342651
C188  C     C_2   0.235650 0.117485 0.606377 0.782747
O47   O     O_2   0.278421 0.114049 0.654003 -0.621205
O48   O     O_R   0.195394 0.070039 0.613901 -0.768767
H120  H     H_    0.205153 0.038973 0.663466 0.347393
C189  C     C_R   0.134477 0.820154 0.491773 0.155758
C190  C     C_R   0.120738 0.880087 0.457552 -0.102670
C191  C     C_R   0.083531 0.919576 0.503389 -0.113180
C192  C     C_R   0.055270 0.898724 0.580508 -0.113311
C193  C     C_R   0.060120 0.836924 0.605527 -0.109274
C194  C     C_R   0.096559 0.797342 0.557824 -0.131755
H121  H     H_    0.139868 0.897715 0.396787 0.181080
H122  H     H_    0.076641 0.966244 0.478856 0.145945
H123  H     H_    0.026787 0.929181 0.617022 0.131940
H124  H     H_    0.034980 0.819672 0.661260 0.144692
H125  H     H_    0.092491 0.749119 0.570575 0.118675
C195  C     C_R   0.156182 0.771189 0.348966 0.075562
C196  C     C_R   0.179126 0.786632 0.261997 -0.069496
C197  C     C_R   0.148189 0.779138 0.180870 -0.100032
C198  C     C_R   0.094452 0.752517 0.181759 -0.130826
C199  C     C_R   0.071274 0.733805 0.264012 -0.155895
C200  C     C_R   0.100383 0.744634 0.345665 -0.143961
H126  H     H_    0.222595 0.798332 0.250800 0.140626
H127  H     H_    0.167479 0.791041 0.116239 0.132762
H128  H     H_    0.071511 0.744793 0.118526 0.126085
H129  H     H_    0.030260 0.711069 0.264993 0.153899
H130  H     H_    0.077920 0.732055 0.406805 0.126871
C201  C     C_R   0.120238 0.197154 0.513248 0.169201
C202  C     C_R   0.085917 0.227396 0.447851 -0.122798
C203  C     C_R   0.035070 0.201892 0.415801 -0.146224
C204  C     C_R   0.015357 0.145876 0.449750 -0.107997
C205  C     C_R   0.044898 0.117379 0.520486 -0.134903
C206  C     C_R   0.095167 0.143758 0.553813 -0.056412
H131  H     H_    0.094636 0.272279 0.424033 0.136609
H132  H     H_    0.010198 0.227203 0.366624 0.159621
H133  H     H_    0.975654 0.126510 0.425116 0.153575
H134  H     H_    0.027871 0.076032 0.551891 0.132608
H135  H     H_    0.112589 0.123887 0.614928 0.174877
C207  C     C_R   0.159004 0.232862 0.655415 0.072903
C208  C     C_R   0.110300 0.271333 0.670217 -0.110443
C209  C     C_R   0.088058 0.282690 0.756652 -0.139770
C210  C     C_R   0.110972 0.253434 0.832536 -0.112592
C211  C     C_R   0.156719 0.213529 0.821956 -0.114687
C212  C     C_R   0.180662 0.203754 0.735883 -0.169837
H136  H     H_    0.086742 0.291157 0.614270 0.122088
H137  H     H_    0.051821 0.313215 0.764240 0.135814
H138  H     H_    0.093305 0.261655 0.899508 0.115403
H139  H     H_    0.175044 0.191208 0.881437 0.134663
H140  H     H_    0.217755 0.175971 0.738942 0.161255
C213  C     C_R   0.619820 0.303666 0.484434 0.168047
C214  C     C_R   0.594862 0.356880 0.442719 -0.058204
C215  C     C_R   0.544726 0.383714 0.475002 -0.116926
C216  C     C_R   0.515232 0.355829 0.545793 -0.104844
C217  C     C_R   0.534837 0.299942 0.580707 -0.152101
C218  C     C_R   0.585563 0.274019 0.549837 -0.123172
H141  H     H_    0.612258 0.376203 0.381491 0.168464
H142  H     H_    0.527736 0.424883 0.442711 0.132759
H143  H     H_    0.475570 0.375430 0.569609 0.155906
H144  H     H_    0.509874 0.274953 0.629481 0.160820
H145  H     H_    0.594194 0.229239 0.574418 0.135328
C219  C     C_R   0.657968 0.266413 0.343482 0.073834
C220  C     C_R   0.679363 0.294737 0.262636 -0.175638
C221  C     C_R   0.655114 0.284187 0.176561 -0.116672
C222  C     C_R   0.609192 0.244379 0.166435 -0.112815
C223  C     C_R   0.586446 0.215955 0.242733 -0.138795
C224  C     C_R   0.609135 0.227928 0.329087 -0.110489
H146  H     H_    0.716437 0.322483 0.259428 0.157016
H147  H     H_    0.673267 0.305903 0.116783 0.132363
H148  H     H_    0.591225 0.235636 0.099502 0.117074
H149  H     H_    0.550009 0.185611 0.235496 0.142383
H150  H     H_    0.585792 0.208643 0.385260 0.121553
C225  C     C_R   0.638426 0.708446 0.417004 0.155579
C226  C     C_R   0.611811 0.753225 0.360438 -0.132045
C227  C     C_R   0.577708 0.737056 0.285670 -0.107139
C228  C     C_R   0.566599 0.675353 0.266869 -0.086457
C229  C     C_R   0.586214 0.630301 0.326743 -0.113459
C230  C     C_R   0.617981 0.647101 0.403740 -0.105937
H151  H     H_    0.613523 0.801099 0.373891 0.132884
H152  H     H_    0.559261 0.772774 0.242911 0.132499
H153  H     H_    0.540671 0.662695 0.208528 0.121252
H154  H     H_    0.575354 0.582276 0.315168 0.123922
H155  H     H_    0.628003 0.610869 0.450593 0.181734
C231  C     C_R   0.639703 0.711932 0.583034 0.088153
C232  C     C_R   0.585830 0.742707 0.582777 -0.161433
C233  C     C_R   0.546667 0.736434 0.653686 -0.160889
C234  C     C_R   0.557920 0.696468 0.725549 -0.103695
C235  C     C_R   0.609178 0.665042 0.728831 -0.104242
C236  C     C_R   0.649873 0.674139 0.661119 -0.073244
H156  H     H_    0.572500 0.771599 0.526782 0.121686
H157  H     H_    0.506703 0.761424 0.651197 0.141157
H158  H     H_    0.527910 0.690848 0.780251 0.118888
H159  H     H_    0.619078 0.636285 0.787350 0.128568
H160  H     H_    0.690576 0.656526 0.679963 0.135913
C237  C     C_2   0.923207 0.594278 0.898669 0.894255
O49   O     O_2   0.899202 0.569278 0.834342 -0.548352
O50   O     O_R   0.905547 0.653041 0.926519 -0.777858
H161  H     H_    0.871287 0.668472 0.890735 0.340370
C238  C     C_2   0.912976 0.578410 0.094994 0.946152
O51   O     O_2   0.868824 0.556232 0.065117 -0.510642
O52   O     O_R   0.910983 0.620452 0.167357 -0.782541
H162  H     H_    0.870758 0.627851 0.189726 0.331659
C239  C     C_2   0.907892 0.422714 0.099647 0.873938
O53   O     O_2   0.888622 0.452354 0.163393 -0.547504
O54   O     O_R   0.880615 0.368278 0.072077 -0.776382
H163  H     H_    0.845037 0.359295 0.108727 0.342499
C240  C     C_2   0.900730 0.440048 0.903107 0.943102
O55   O     O_2   0.861280 0.471247 0.931590 -0.511557
O56   O     O_R   0.891409 0.398447 0.831552 -0.773062
H164  H     H_    0.850521 0.398787 0.808881 0.336576
C241  C     C_2   0.417629 0.090946 0.901733 0.848862
O57   O     O_2   0.394104 0.064960 0.837859 -0.553918
O58   O     O_R   0.397239 0.148289 0.931331 -0.777055
H165  H     H_    0.362007 0.162158 0.896576 0.342176
C242  C     C_2   0.409006 0.072351 0.097074 0.945249
O59   O     O_2   0.366167 0.047486 0.066989 -0.506918
O60   O     O_R   0.404881 0.112734 0.171202 -0.772925
H166  H     H_    0.364418 0.116921 0.194263 0.339423
C243  C     C_2   0.415275 0.914310 0.102523 0.906404
O61   O     O_2   0.392731 0.942984 0.164414 -0.551864
O62   O     O_R   0.394711 0.855785 0.078537 -0.783035
H167  H     H_    0.360599 0.842808 0.116100 0.332768
C244  C     C_2   0.399891 0.942782 0.904988 0.908080
O63   O     O_2   0.357947 0.952607 0.951713 -0.517938
O64   O     O_R   0.392812 0.930824 0.811885 -0.763015
H168  H     H_    0.351579 0.933989 0.791521 0.340876

loop_
_geom_bond_atom_site_label_1
_geom_bond_atom_site_label_2
_ccdc_geom_bond_type
C95   H41   S    
O52   H162  S    
C85   C86   A    
C52   C79   S    
C79   O21   D    
C238  O51   D    
C6    C58   T    
C159  C160  A    
C24   C27   S    
C41   C61   S    
C133  C138  A    
C82   O27   D    
C171  H104  S    
C181  O33   D    
C98   C99   A    
Cu3   O13   S    
C30   H17   S    
C155  C156  A    
C187  O45   D    
C130  H70   S    
C18   H11   S    
C219  C220  A    
O26   H29   S    
C220  H146  S    
C168  H102  S    
C9    C13   T    
C153  H89   S    
C44   C103  S    
C19   C240  S    
C11   C15   T    
C12   C16   T    
C177  C178  A    
C51   C145  S    
C92   H38   S    
C32   H24   S    
C179  C180  A    
C69   C195  S    
C25   C34   S    
C203  H132  S    
C235  C236  A    
C21   C22   S    
C160  H95   S    
C226  H151  S    
C7    C59   T    
C192  C193  A    
C186  O44   S    
C228  C229  A    
C74   C183  S    
C175  C180  A    
C223  H149  S    
C2    O3    A    
C110  C111  A    
C29   H19   S    
C104  C105  A    
C34   N2    T    
C198  C199  A    
C22   C241  S    
C47   C64   S    
C71   C73   S    
C25   C30   S    
Cu4   O14   S    
C172  C173  A    
C135  H74   S    
C51   C66   S    
Cu1   O4    S    
C101  C102  A    
C209  H137  S    
C1    O2    A    
C14   C38   S    
C80   O24   S    
C145  C150  A    
C125  C126  A    
C218  H145  S    
C68   C72   S    
C43   C97   S    
C48   H7    S    
C184  O39   D    
C15   C39   S    
C204  C205  A    
C16   C40   S    
C38   O11   A    
C226  C227  A    
C86   C87   A    
C201  C202  A    
C54   C163  S    
C222  C223  A    
C163  C164  A    
C154  H90   S    
C47   C121  S    
C156  H92   S    
C117  C118  A    
C69   C189  S    
C104  H48   S    
O24   H28   S    
C47   C52   S    
C123  H64   S    
Cu2   N2    S    
C17   C25   S    
C19   C20   S    
C154  C155  A    
C144  H82   S    
C243  O62   S    
C122  H63   S    
C44   C55   S    
C198  H128  S    
C66   C70   S    
C45   C50   S    
C41   H2    S    
Cu2   O11   S    
C234  C235  A    
C70   C207  S    
C35   N3    T    
C71   C219  S    
C193  H124  S    
C196  H126  S    
C54   C81   S    
C37   O9    A    
C115  C116  A    
C106  C107  A    
C20   C25   S    
C188  O47   D    
O46   H119  S    
C77   O18   S    
C197  C198  A    
C101  H46   S    
C85   C90   A    
C149  C150  A    
C199  C200  A    
Cu4   O15   S    
C163  C168  A    
C185  O41   D    
C36   N4    T    
C128  H68   S    
C4    O7    A    
O28   H30   S    
C44   H3    S    
C210  C211  A    
C2    C57   S    
C239  O53   D    
C72   C231  S    
C137  C138  A    
C161  C162  A    
C39   O14   A    
C147  H84   S    
C9    C61   S    
C216  C217  A    
Cu2   O10   S    
C11   C63   S    
C83   O30   S    
C42   C53   S    
C12   C64   S    
C93   C94   A    
C227  H152  S    
C30   H20   S    
C197  H127  S    
C129  C130  A    
C140  C141  A    
C161  H96   S    
C190  C191  A    
C200  H130  S    
C225  C226  A    
C28   C35   S    
C202  C203  A    
C224  H150  S    
C69   C75   S    
Cu2   O3    S    
C155  H91   S    
C130  C131  A    
C91   C96   A    
C87   C88   A    
C219  C224  A    
C42   H1    S    
C241  O57   D    
C70   C201  S    
C244  O63   D    
C134  H73   S    
C183  O38   S    
C149  H86   S    
C40   O16   A    
C153  C154  A    
C229  C230  A    
C10   C14   T    
C55   C68   S    
C136  H75   S    
C177  H109  S    
C56   C68   S    
C131  H71   S    
C170  H103  S    
O34   H113  S    
C233  C234  A    
C129  H69   S    
C29   C30   S    
C26   C33   S    
C31   C32   S    
C87   H34   S    
O48   H120  S    
C17   C18   S    
C126  H67   S    
C50   C77   S    
C23   C28   S    
Cu1   O1    S    
C214  C215  A    
C191  H122  S    
C103  C108  A    
C86   H33   S    
C74   C184  S    
C223  C224  A    
C24   C243  S    
C151  C156  A    
Cu3   O5    S    
C221  C222  A    
C84   O32   S    
C182  O36   S    
C71   C213  S    
O32   H32   S    
C167  H101  S    
C79   O22   S    
C97   C102  A    
C172  H105  S    
C55   C84   S    
C134  C135  A    
C215  H142  S    
C148  H85   S    
C194  H125  S    
C133  C134  A    
C143  C144  A    
C3    O6    A    
C233  H157  S    
C99   H44   S    
C166  H100  S    
C242  O60   S    
C206  H135  S    
Cu3   O16   S    
Cu4   N4    S    
C46   C63   S    
C110  H53   S    
C45   H6    S    
C213  C214  A    
C162  H97   S    
C19   H10   S    
C24   H13   S    
C63   C75   S    
C96   H42   S    
C190  H121  S    
C240  O56   S    
C107  C108  A    
C53   C67   S    
C50   C65   S    
C50   C139  S    
C230  H155  S    
C7    C67   S    
C173  C174  A    
C112  C113  A    
C124  C125  A    
C111  H54   S    
C32   H21   S    
C231  C232  A    
C139  C144  A    
C49   C133  S    
C217  C218  A    
O62   H167  S    
C18   C26   S    
O38   H115  S    
Cu1   O12   S    
C122  C123  A    
C18   C237  S    
C89   C90   A    
C128  C129  A    
O22   H27   S    
C186  O43   D    
C116  C117  A    
C95   C96   A    
C17   C238  S    
C188  O48   S    
C46   C49   S    
C2    O4    A    
C103  C104  A    
C29   H18   S    
C123  C124  A    
C211  C212  A    
C81   O26   S    
C48   C64   S    
C115  C120  A    
C106  H50   S    
C75   C185  S    
C158  C159  A    
C22   H15   S    
C213  C218  A    
C237  O50   S    
C19   C26   S    
C55   C169  S    
C119  H61   S    
C1    O1    A    
C234  H158  S    
O42   H117  S    
C112  H55   S    
O30   H31   S    
C47   H8    S    
C184  O40   S    
C210  H138  S    
C46   H5    S    
C38   O12   A    
C3    C60   S    
C241  O58   S    
C175  C176  A    
C21   C27   S    
C137  H76   S    
C187  O46   S    
C22   C28   S    
C147  C148  A    
C238  O52   S    
C10   C62   S    
C82   O28   S    
C42   C91   S    
C93   H39   S    
C181  O34   S    
C182  O35   D    
C208  H136  S    
C140  H78   S    
C31   H22   S    
C33   N1    T    
C121  C122  A    
C72   C74   S    
C142  H80   S    
O40   H116  S    
C195  C200  A    
C209  C210  A    
C61   C73   S    
C202  H131  S    
C113  C114  A    
C165  H99   S    
O54   H163  S    
O58   H165  S    
C243  O61   D    
C76   C188  S    
O36   H114  S    
Cu4   O7    S    
C116  H58   S    
C53   C82   S    
C173  H106  S    
Cu3   N3    S    
C178  H110  S    
C105  H49   S    
C232  H156  S    
C41   C85   S    
C51   C80   S    
C174  H107  S    
C77   O17   D    
C127  C128  A    
O18   H25   S    
C204  H133  S    
C52   C66   S    
C136  C137  A    
C52   C151  S    
C229  H154  S    
C20   H9    S    
O50   H161  S    
C120  H62   S    
C131  C132  A    
C27   C32   S    
C207  C212  A    
C4    O8    A    
C28   C31   S    
C164  C165  A    
C189  C190  A    
C225  C230  A    
C27   C36   S    
C157  C162  A    
C39   O13   A    
C5    C57   T    
C145  C146  A    
Cu1   N1    S    
C159  H94   S    
C78   O19   D    
C152  C153  A    
C214  H141  S    
C83   O29   D    
C8    C60   T    
C171  C172  A    
C180  H112  S    
C164  H98   S    
C65   C69   S    
C73   C182  S    
C23   C244  S    
C141  C142  A    
C109  C114  A    
C67   C71   S    
C220  C221  A    
C178  C179  A    
C108  H52   S    
C23   C24   S    
C97   C98   A    
C146  C147  A    
C215  C216  A    
C148  C149  A    
C62   C74   S    
C143  H81   S    
C1    C58   S    
C217  H144  S    
C102  H47   S    
C48   C127  S    
C100  C101  A    
C43   C62   S    
C94   C95   A    
C150  H87   S    
C109  C110  A    
C141  H79   S    
C118  C119  A    
C205  C206  A    
C183  O37   D    
C170  C171  A    
C49   C65   S    
O64   H168  S    
C113  H56   S    
C160  C161  A    
Cu1   O9    S    
C117  H59   S    
C192  H123  S    
C124  H65   S    
C92   C93   A    
C99   C100  A    
C76   C187  S    
C176  H108  S    
C231  C236  A    
C114  H57   S    
C48   C51   S    
C37   O10   A    
O44   H118  S    
C146  H83   S    
C132  H72   S    
C13   C37   S    
C228  H153  S    
Cu1   Cu2   S    
C100  H45   S    
C125  H66   S    
C185  O42   S    
C166  C167  A    
C169  C174  A    
C43   H4    S    
C17   H12   S    
C56   C175  S    
C239  O54   S    
C205  H134  S    
C211  H139  S    
C158  H93   S    
C119  C120  A    
C5    C65   S    
C201  C206  A    
C3    O5    A    
O60   H166  S    
C73   C181  S    
C121  C126  A    
C54   C67   S    
C169  C170  A    
C44   C62   S    
C242  O59   D    
C88   H35   S    
C49   C78   S    
C45   C63   S    
Cu3   Cu4   S    
C31   H23   S    
C94   H40   S    
C191  C192  A    
O56   H164  S    
C6    C66   S    
C236  H160  S    
C53   C157  S    
C139  C140  A    
C152  H88   S    
C240  O55   D    
C64   C76   S    
Cu2   O2    S    
C42   C61   S    
C196  C197  A    
C189  C194  A    
C167  C168  A    
Cu4   O6    S    
C216  H143  S    
C8    C68   S    
C118  H60   S    
C70   C76   S    
C142  C143  A    
C75   C186  S    
C195  C196  A    
C157  C158  A    
C193  C194  A    
C72   C225  S    
C138  H77   S    
C40   O15   A    
C165  C166  A    
C91   C92   A    
C151  C152  A    
C89   H36   S    
C135  C136  A    
C222  H148  S    
C21   H16   S    
C80   O23   D    
C23   H14   S    
C105  C106  A    
C56   C83   S    
C232  C233  A    
C21   C242  S    
C81   O25   D    
C203  C204  A    
C20   C239  S    
C46   C115  S    
C4    C59   S    
C244  O64   S    
C199  H129  S    
C176  C177  A    
C127  C132  A    
C237  O49   D    
C88   C89   A    
C41   C54   S    
C98   H43   S    
C90   H37   S    
C107  H51   S    
C235  H159  S    
C43   C56   S    
C221  H147  S    
C26   C29   S    
C45   C109  S    
C227  C228  A    
C212  H140  S    
C179  H111  S    
C207  C208  A    
C208  C209  A    
C111  C112  A    
C84   O31   D    
Cu3   O8    S    
O20   H26   S    
C78   O20   S    
