data_mof_unit_66757.cif
_audit_creation_date              2013-03-05T15:40:48-0500
_audit_creation_method            fapswitch 2.2
_symmetry_space_group_name_H-M    P1
_symmetry_Int_Tables_number       1
_space_group_crystal_system       triclinic
_cell_length_a                    8.22864
_cell_length_b                    12.627304
_cell_length_c                    15.13586
_cell_angle_alpha                 95.426112
_cell_angle_beta                  98.790909
_cell_angle_gamma                 97.795806
_cell_volume                      1529.1475568

loop_
_atom_site_label
_atom_site_type_symbol
_atom_site_description
_atom_site_fract_x
_atom_site_fract_y
_atom_site_fract_z
_atom_type_partial_charge
P1    P     P_3+3 0.998660 0.747790 0.570900 0.449793
O1    O     O_2   0.168170 0.764170 0.543850 -0.356853
O2    O     O_3   0.898670 0.629780 0.545890 -0.408262
O3    O     O_3   0.365980 0.695510 0.380810 -0.381432
O4    O     O_2   0.296834 0.883971 0.441698 -0.345912
O5    O     O_3   0.046513 0.778446 0.687975 -0.585363
O6    O     O_3   0.326015 0.865026 0.273229 -0.495296
H1    H     H_    0.326627 0.706866 0.218271 0.096174
C1    C     C_3   0.284537 0.806884 0.112706 0.577196
H2    H     H_    0.158880 0.758301 0.096775 0.145189
P2    P     P_3+3 0.306970 0.411860 0.294270 0.464236
P3    P     P_3+3 0.890053 0.626702 0.218761 0.518876
O7    O     O_2   0.136040 0.444100 0.280280 -0.376455
O8    O     O_3   0.934510 0.640480 0.335500 -0.381961
O9    O     O_2   0.019599 0.566027 0.180490 -0.353707
O10   O     O_3   0.264653 0.272557 0.261559 -0.624783
O11   O     O_3   0.932486 0.755028 0.186901 -0.498268
C2    C     C_3   0.869830 0.828473 0.243384 0.480698
H3    H     H_    0.972451 0.869796 0.296979 0.129402
H4    H     H_    0.767346 0.791555 0.276033 0.014725
C3    C     C_3   0.802865 0.910005 0.186510 -1.006031
H5    H     H_    0.751397 0.970363 0.228169 0.237633
H6    H     H_    0.903864 0.949627 0.154689 0.302414
C4    C     C_3   0.645848 0.267796 0.270082 0.342642
H7    H     H_    0.534561 0.204749 0.257458 0.138774
H8    H     H_    0.621079 0.338930 0.311923 0.117543
C5    C     C_3   0.682264 0.305075 0.180698 -0.676989
H9    H     H_    0.566648 0.325484 0.143126 0.187790
H10   H     H_    0.776692 0.378546 0.196754 0.212219
Ba1   Ba    Ba6+2 0.153570 0.551840 0.456200 1.579709
C6    C     C_3   0.075926 0.686029 0.727962 0.338538
H11   H     H_    0.184209 0.655957 0.705211 0.111015
H12   H     H_    0.966168 0.622064 0.711217 0.136438
C7    C     C_3   0.111653 0.715537 0.829494 -0.842533
H13   H     H_    0.226222 0.775902 0.848388 0.294648
H14   H     H_    0.128872 0.643243 0.863872 0.234249
H15   H     H_    0.005831 0.750097 0.852316 0.262791
C8    C     C_3   0.173151 0.220261 0.319398 0.869795
H16   H     H_    0.090061 0.270986 0.348894 0.077545
C9    C     C_3   0.072493 0.116151 0.269547 -0.917732
H17   H     H_    0.982233 0.132764 0.212497 0.241969
H18   H     H_    0.002938 0.073652 0.316446 0.221623
H19   H     H_    0.156401 0.062424 0.243659 0.313675
P4    P     P_3+3 0.811620 0.252200 0.429030 0.472069
O12   O     O_2   0.642110 0.235770 0.456130 -0.317229
O13   O     O_3   0.911620 0.370210 0.454030 -0.382541
O14   O     O_3   0.444310 0.304480 0.619110 -0.313877
O15   O     O_3   0.780749 0.223964 0.311376 -0.605966
P5    P     P_3+3 0.916759 0.361515 0.781626 0.532004
O16   O     O_3   0.400800 0.556680 0.607590 -0.381294
O17   O     O_3   0.875770 0.359510 0.664420 -0.413466
O18   O     O_2   0.795805 0.428860 0.821179 -0.251590
O19   O     O_3   0.859734 0.231797 0.809118 -0.463566
Ba2   Ba    Ba6+2 0.656590 0.448150 0.543720 1.608500
P6    P     P_3+3 0.407694 0.834765 0.380319 0.493033
C10   C     C_3   0.368368 0.791664 0.207659 0.207948
H20   H     H_    0.504817 0.803792 0.211620 0.053135
O20   O     O_3   0.409490 0.443300 0.392340 -0.370720
C11   C     C_3   0.626189 0.779838 0.684566 0.397355
H21   H     H_    0.756446 0.800357 0.720266 0.103734
H22   H     H_    0.624018 0.727779 0.620631 0.097759
C12   C     C_3   0.562937 0.883065 0.660668 -0.923857
H23   H     H_    0.540926 0.931037 0.721823 0.272402
H24   H     H_    0.654291 0.931923 0.628371 0.220194
H25   H     H_    0.444498 0.863567 0.612929 0.283200
P7    P     P_3+3 0.498101 0.592073 0.720037 0.469718
O21   O     O_2   0.674250 0.555830 0.719690 -0.372268
O22   O     O_3   0.528999 0.732470 0.743342 -0.561028
H26   H     H_    0.703533 0.868414 0.131734 0.300604
C13   C     C_3   0.892232 0.157002 0.741712 0.542996
H27   H     H_    0.789072 0.144511 0.683554 0.143043
H28   H     H_    0.010404 0.183297 0.717904 -0.047885
C14   C     C_3   0.905738 0.050683 0.779233 -1.071673
H29   H     H_    0.927188 0.989781 0.726149 0.239271
H30   H     H_    0.011648 0.061429 0.835821 0.247912
H31   H     H_    0.789916 0.021892 0.804346 0.285233
P8    P     P_3+3 0.399067 0.165929 0.622726 0.535169
C15   C     C_3   0.340674 0.152806 0.782214 0.233981
H32   H     H_    0.241936 0.082066 0.761077 0.005059
O23   O     O_2   0.515733 0.113381 0.566753 -0.347137
O24   O     O_3   0.470048 0.143078 0.732917 -0.492648
H33   H     H_    0.289242 0.228953 0.773171 0.070042
H34   H     H_    0.301878 0.155357 0.920459 0.059174
C16   C     C_3   0.405812 0.154013 0.881597 0.099420
H35   H     H_    0.463176 0.080716 0.892450 0.134853
C17   C     C_R   0.076199 0.186381 0.540470 -0.411557
C18   C     C_R   0.728103 0.814986 0.465008 -0.492774
C19   C     C_R   0.694411 0.995121 0.430769 -0.206468
C20   C     C_R   0.629469 0.886054 0.426440 0.207656
C21   C     C_R   0.888017 0.850958 0.513692 0.255315
C22   C     C_R   0.952713 0.963699 0.522114 -0.044183
C23   C     C_R   0.854874 0.036865 0.479374 -0.074228
C24   C     C_R   0.919430 0.149810 0.488599 0.235295
C25   C     C_R   0.176628 0.114739 0.576550 0.232506
C26   C     C_R   0.113176 0.005315 0.570354 -0.213782
H36   H     H_    0.615766 0.046411 0.397838 0.206185
H37   H     H_    0.192344 0.953855 0.602485 0.176771
H38   H     H_    0.126697 0.270983 0.546666 0.170989
H39   H     H_    0.676420 0.730812 0.460561 0.174332
C27   C     C_R   0.232739 0.459352 0.767207 -0.486333
C28   C     C_R   0.134759 0.418624 0.827183 0.188756
C29   C     C_R   0.201071 0.427197 0.919493 -0.237226
C30   C     C_R   0.360947 0.487764 0.953899 0.194654
C31   C     C_R   0.442433 0.543160 0.891849 -0.086678
C32   C     C_R   0.385336 0.523038 0.799270 0.269375
C33   C     C_R   0.612548 0.536595 0.083511 0.383768
C34   C     C_R   0.673268 0.564406 0.176080 0.138831
C35   C     C_R   0.411662 0.483898 0.211923 0.327047
C36   C     C_R   0.342116 0.470469 0.119833 -0.326423
C37   C     C_R   0.438982 0.499267 0.053076 0.003239
C38   C     C_R   0.571935 0.539243 0.239419 -0.570481
H40   H     H_    0.125111 0.387846 0.962434 0.146069
H41   H     H_    0.214226 0.433897 0.101687 0.168504
H42   H     H_    0.547525 0.605610 0.914129 0.194501
H43   H     H_    0.623360 0.553775 0.310439 0.191051
H44   H     H_    0.184477 0.448899 0.695786 0.159336
C39   C     C_R   0.743244 0.223305 0.120132 0.316305
C40   C     C_R   0.894000 0.249538 0.088370 -0.054376
C41   C     C_R   0.950338 0.173820 0.031591 -0.046903
C42   C     C_R   0.854251 0.072767 0.004189 -0.039467
C43   C     C_R   0.699849 0.048647 0.031075 -0.150554
C44   C     C_R   0.645183 0.123131 0.089612 -0.092166
H45   H     H_    0.968975 0.327537 0.109070 0.137990
H46   H     H_    0.068837 0.193159 0.009539 0.116413
H47   H     H_    0.899361 0.012669 0.962665 0.148929
H48   H     H_    0.623517 0.971529 0.007514 0.199293
H49   H     H_    0.526126 0.103722 0.110511 0.184053
Cl1   Cl    Cl    0.313355 0.180676 0.404229 -0.630712
Cl2   Cl    Cl    0.400827 0.761035 0.031049 -0.775513
Cl3   Cl    Cl    0.262548 0.943318 0.100090 -0.687145
Cl4   Cl    Cl    0.555468 0.270950 0.919969 -0.554267
Cl5   Cl    Cl    0.763357 0.528109 0.012221 -0.582716

loop_
_geom_bond_atom_site_label_1
_geom_bond_atom_site_label_2
_geom_bond_distance
_ccdc_geom_bond_type
P7    O22   1.750436 S    
C19   H36   1.078359 S    
C28   C29   1.408523 A    
C5    H10   1.107965 S    
C2    C3    1.510344 S    
C14   H29   1.109704 S    
C29   H40   1.077516 S    
C27   H44   1.082266 S    
C4    C5    1.532255 S    
O6    P6    1.754669 S    
H1    C10   1.113528 S    
C41   H46   1.082647 S    
C10   H20   1.103967 S    
C33   Cl5   1.771787 S    
Ba1   Ba2   4.552381 S    
C27   C32   1.387421 A    
O16   Ba2   2.897720 S    
C30   C37   1.524999 S    
C23   C24   1.438687 A    
C4    H8    1.109488 S    
P1    O1    1.506083 D    
P5    C28   1.841277 S    
C8    H16   1.111336 S    
O2    Ba2   2.820564 S    
C33   C34   1.407644 A    
C7    H15   1.111087 S    
P8    C25   1.859871 S    
C35   C36   1.408637 A    
C7    H13   1.110407 S    
C44   H49   1.078952 S    
C40   C41   1.397957 A    
C27   C28   1.392158 A    
C12   H24   1.108248 S    
P4    C24   1.886450 S    
C17   C25   1.399219 A    
C9    H19   1.118038 S    
C19   C23   1.415435 A    
P2    Ba1   3.384729 S    
P5    O17   1.751521 S    
P3    O11   1.739519 S    
C6    H12   1.107123 S    
C13   H27   1.108761 S    
P2    O20   1.577207 S    
C1    H2    1.107859 S    
C2    H4    1.112193 S    
C36   H41   1.073310 S    
C9    H18   1.110122 S    
P7    O21   1.578689 D    
Ba1   O16   2.812102 S    
C11   H21   1.108658 S    
C3    H5    1.111818 S    
C14   H30   1.108743 S    
C29   C30   1.424471 A    
O6    C10   1.408547 S    
O8    Ba1   2.786951 S    
O19   C13   1.405028 S    
C31   C32   1.395652 A    
P4    O13   1.583151 S    
C18   H39   1.081766 S    
C5    C39   1.503473 S    
C11   H22   1.113608 S    
P1    O5    1.749465 S    
C4    O15   1.396156 S    
O7    Ba1   2.847087 S    
C4    H7    1.108548 S    
C22   C23   1.440783 A    
C15   H32   1.109057 S    
C2    H3    1.111050 S    
Ba2   O21   2.847299 S    
C1    Cl3   1.781406 S    
C3    H26   1.106956 S    
P1    O2    1.583133 S    
O2    Ba1   2.896306 S    
C39   C44   1.401138 A    
C12   H23   1.109728 S    
C17   C24   1.397853 A    
P4    Ba2   3.388795 S    
C11   O22   1.406101 S    
C38   H43   1.082054 S    
P2    O10   1.754131 S    
C15   H33   1.113530 S    
H34   C16   1.110644 S    
P3    O9    1.544420 D    
P8    O24   1.745015 S    
P5    O18   1.545186 D    
O13   Ba2   2.897205 S    
C13   C14   1.517447 S    
O11   C2    1.404022 S    
C6    C7    1.520156 S    
C1    C10   1.537363 S    
C16   H35   1.109054 S    
O16   P7    1.755013 S    
C43   C44   1.396775 A    
O14   Ba2   2.790266 S    
C31   H42   1.076557 S    
C9    H17   1.105332 S    
P3    O8    1.735866 S    
O12   Ba2   2.855943 S    
C18   C20   1.398819 A    
O3    P6    1.746261 S    
C14   H31   1.108081 S    
O14   P8    1.746445 S    
P7    C32   1.837820 S    
P1    C21   1.889426 S    
P2    C35   1.858252 S    
C42   C43   1.396092 A    
Ba2   O20   2.811337 S    
P8    O23   1.547490 D    
C11   C12   1.521990 S    
C12   H25   1.103894 S    
C42   H47   1.079910 S    
C34   C38   1.394785 A    
O4    P6    1.544318 D    
C6    H11   1.103421 S    
P4    O12   1.506428 D    
P3    C34   1.840980 S    
C8    Cl1   1.747727 S    
C41   C42   1.396920 A    
C26   H37   1.077451 S    
C1    Cl2   1.776209 S    
C16   Cl4   1.777657 S    
C35   C38   1.388554 A    
Ba1   O13   2.819929 S    
O1    Ba1   2.855562 S    
O17   Ba2   2.787546 S    
C3    H6    1.108202 S    
C43   H48   1.081610 S    
P6    C20   1.855131 S    
C36   C37   1.423229 A    
C8    C9    1.519737 S    
P2    O7    1.506481 D    
C15   O24   1.402168 S    
C21   C22   1.437239 A    
P5    O19   1.748267 S    
Ba1   O20   2.898628 S    
P1    Ba1   3.388326 S    
O5    C6    1.397200 S    
C7    H14   1.107500 S    
C40   H45   1.080072 S    
C25   C26   1.398362 A    
C17   H38   1.082331 S    
C22   C26   1.413233 A    
C15   C16   1.515685 S    
C19   C20   1.399700 A    
C33   C37   1.431561 A    
C18   C21   1.399644 A    
C30   C31   1.417918 A    
C13   H28   1.108058 S    
C39   C40   1.407352 A    
O3    Ba1   2.790907 S    
P4    O15   1.754985 S    
O10   C8    1.394745 S    
C5    H9    1.106232 S    
