data_mof_unit_45948.cif
_audit_creation_date              2012-12-10T17:32:34-0500
_audit_creation_method            fapswitch 2.2
_symmetry_space_group_name_H-M    P1
_symmetry_Int_Tables_number       1
_space_group_crystal_system       triclinic
_cell_length_a                    12.267258
_cell_length_b                    12.88015
_cell_length_c                    14.099642
_cell_angle_alpha                 95.500399
_cell_angle_beta                  85.783384
_cell_angle_gamma                 92.954901
_cell_volume                      2209.31792402

loop_
_atom_site_label
_atom_site_type_symbol
_atom_type_description
_atom_site_fract_x
_atom_site_fract_y
_atom_site_fract_z
_atom_type_partial_charge
C1    C     C_R   0.521023 0.700140 0.500383 0.923647
C2    C     C_R   0.143624 0.450721 0.456372 0.450566
C3    C     C_R   0.974989 0.513921 0.546014 -0.355080
C4    C     C_R   0.024180 0.452643 0.468521 -0.299859
C5    C     C_R   0.499268 0.500495 0.670399 0.896040
C6    C     C_R   0.500976 0.500901 0.329687 0.929532
C7    C     C_1   0.498088 0.500722 0.772056 -0.077402
C8    C     C_1   0.502307 0.500912 0.228005 -0.074595
C9    C     C_1   0.498448 0.500857 0.857444 0.056749
C10   C     C_1   0.502148 0.500869 0.142607 0.047290
C11   C     C_1   0.499740 0.500896 0.957358 0.057899
C12   C     C_R   0.478784 0.300261 0.503741 0.933975
C13   C     C_1   0.501012 0.500876 0.042681 0.056210
C14   C     C_R   0.465875 0.190137 0.515136 -0.145478
C15   C     C_R   0.531986 0.812416 0.510748 -0.168918
C16   C     C_R   0.641526 0.970440 0.544243 0.452937
C17   C     C_R   0.349321 0.034161 0.521917 0.394919
C18   C     C_R   0.632583 0.862733 0.528430 -0.195839
C19   C     C_R   0.361740 0.141166 0.518635 -0.247335
C20   C     C_R   0.438201 0.868843 0.511290 -0.130970
C21   C     C_R   0.558346 0.134659 0.525085 -0.160115
C22   C     C_3   0.930700 0.214486 0.414028 0.067650
C23   C     C_R   0.444282 0.976630 0.523423 -0.016206
C24   C     C_3   0.006102 0.447170 0.741012 -0.108162
C25   C     C_R   0.548840 0.028345 0.533271 -0.031248
C26   C     C_R   0.949870 0.390513 0.411740 0.444213
C27   C     C_R   0.044066 0.549099 0.618891 0.492217
C28   C     C_R   0.841177 0.418568 0.409288 0.324590
C29   C     C_R   0.156390 0.568193 0.597712 0.361964
C30   C     C_R   0.858103 0.528438 0.554096 0.465554
H1    H     H_    0.638125 0.173858 0.520728 0.218069
H2    H     H_    0.818172 0.285450 0.166561 0.385674
H3    H     H_    0.840113 0.209436 0.412284 0.140779
H4    H     H_    0.954277 0.222003 0.489304 0.150474
H5    H     H_    0.961835 0.140097 0.378732 0.245816
H6    H     H_    0.088988 0.414808 0.729888 0.129603
H7    H     H_    0.946165 0.394864 0.701708 0.143824
H8    H     H_    0.980809 0.448652 0.818269 0.216327
H9    H     H_    0.360877 0.827893 0.498792 0.241078
H10   H     H_    0.290242 0.186083 0.516321 0.232710
H11   H     H_    0.704440 0.818160 0.531673 0.248648
H12   H     H_    0.892322 0.969711 0.664989 0.416141
H13   H     H_    0.121221 0.095004 0.606720 0.350443
H14   H     H_    0.337368 0.275701 0.290197 0.378581
H15   H     H_    0.673650 0.712531 0.708977 0.381605
H16   H     H_    0.170727 0.761215 0.803014 0.390308
N1    N     N_R   0.207800 0.519340 0.515940 -0.246358
N2    N     N_R   0.792200 0.480660 0.484060 -0.229919
O1    O     O_R   0.421690 0.658830 0.504250 -0.584059
O2    O     O_2   0.762232 0.132652 0.630089 -0.337734
O3    O     O_3   0.814766 0.946542 0.658390 -0.484683
O4    O     O_2   0.199992 0.913474 0.428685 -0.234499
O5    O     O_2   0.196880 0.905227 0.601433 -0.251866
O6    O     O_3   0.120191 0.067946 0.538570 -0.498557
O7    O     O_2   0.162800 0.247736 0.401348 -0.283317
O8    O     O_2   0.151863 0.364521 0.275021 -0.212504
O9    O     O_3   0.333699 0.336650 0.338685 -0.536753
O10   O     O_2   0.786222 0.550700 0.739118 -0.286893
O11   O     O_2   0.888819 0.700565 0.676831 -0.184788
O12   O     O_R   0.578310 0.341170 0.495750 -0.602525
O13   O     O_3   0.689576 0.674079 0.645589 -0.543478
O14   O     O_2   0.249937 0.571995 0.764256 -0.324298
O15   O     O_2   0.324487 0.703646 0.659977 -0.274186
O16   O     O_3   0.135183 0.730055 0.745464 -0.430701
O17   O     O_2   0.674000 0.313392 0.319730 -0.313953
O18   O     O_2   0.757154 0.470899 0.251083 -0.287797
O19   O     O_3   0.860124 0.302104 0.223903 -0.465781
O20   O     O_3   0.978150 0.296778 0.363328 -0.500938
O21   O     O_3   0.006619 0.550030 0.714041 -0.486776
O22   O     O_R   0.609320 0.646410 0.494030 -0.567409
O23   O     O_R   0.390680 0.353590 0.505970 -0.579488
O24   O     O_R   0.406170 0.506210 0.631400 -0.558268
O25   O     O_R   0.593830 0.493790 0.368600 -0.524662
O26   O     O_R   0.593790 0.493790 0.621170 -0.552578
O27   O     O_R   0.406210 0.506210 0.378830 -0.552226
O28   O     O_2   0.848786 0.023171 0.495543 -0.316810
S1    S     S_3+6 0.769206 0.023866 0.581580 0.013776
S2    S     S_3+6 0.214528 0.976399 0.522653 0.062934
S3    S     S_3+6 0.200658 0.351583 0.367779 0.100410
S4    S     S_3+6 0.804949 0.613934 0.654672 0.110571
S5    S     S_3+6 0.223228 0.643270 0.691637 0.110699
S6    S     S_3+6 0.778357 0.376424 0.300652 0.074104
Zn1   Zn    Zn3+2 0.374720 0.508290 0.506830 1.077561
Zn2   Zn    Zn3+2 0.625280 0.491710 0.493170 1.088928

loop_
_geom_bond_atom_site_label_1
_geom_bond_atom_site_label_2
_ccdc_geom_bond_type
C15   C18   A    
C27   C29   A    
O12   Zn2   S    
O9    S3    S    
C6    O27   A    
C22   H5    S    
C21   H1    S    
C24   H6    S    
O8    S3    D    
C29   N1    A    
C14   C21   A    
C30   N2    A    
C5    O24   A    
O13   S4    S    
C16   S1    S    
C5    O26   A    
C2    S3    S    
C24   H8    S    
C1    C15   S    
N1    Zn1   S    
O22   Zn2   S    
O25   Zn2   S    
C27   O21   S    
O10   S4    D    
H12   O3    S    
C30   S4    S    
O4    S2    D    
C24   O21   S    
O23   Zn1   S    
C15   C20   A    
C22   H4    S    
C28   S6    S    
O28   S1    D    
C18   H11   S    
C5    C7    S    
C20   H9    S    
C6    C8    S    
N2    Zn2   S    
H16   O16   S    
C3    C30   A    
C2    C4    A    
O3    S1    S    
C29   S5    S    
O18   S6    D    
O7    S3    D    
H13   O6    S    
C20   C23   A    
H14   O9    S    
C24   H7    S    
C17   C23   A    
C9    C11   S    
C22   O20   S    
H2    O19   S    
C16   C18   A    
O14   S5    D    
C12   C14   S    
C3    C4    A    
O2    S1    D    
C6    O25   A    
C16   C25   A    
C7    C9    T    
C22   H3    S    
C21   C25   A    
C28   N2    A    
O15   S5    D    
C14   C19   A    
C12   O23   A    
O26   Zn2   S    
C10   C13   S    
O11   S4    D    
C4    C26   A    
C2    N1    A    
C26   C28   A    
C1    O22   A    
C26   O20   S    
O1    Zn1   S    
C3    C27   A    
O5    S2    D    
C11   C13   T    
O27   Zn1   S    
O17   S6    D    
H15   O13   S    
C17   S2    S    
C17   C19   A    
C23   C25   A    
O16   S5    S    
O24   Zn1   S    
C19   H10   S    
C12   O12   A    
O19   S6    S    
C8    C10   T    
C1    O1    A    
O6    S2    S    
