data_mof_unit_11157.cif
_audit_creation_date              2013-03-05T16:05:30-0500
_audit_creation_method            fapswitch 2.2
_symmetry_space_group_name_H-M    P1
_symmetry_Int_Tables_number       1
_space_group_crystal_system       triclinic
_cell_length_a                    10.833854
_cell_length_b                    9.543367
_cell_length_c                    10.701762
_cell_angle_alpha                 90.766704
_cell_angle_beta                  89.544308
_cell_angle_gamma                 90.936198
_cell_volume                      1106.19077617

loop_
_atom_site_label
_atom_site_type_symbol
_atom_site_description
_atom_site_fract_x
_atom_site_fract_y
_atom_site_fract_z
_atom_type_partial_charge
O1    O     O_R   0.319640 0.618740 0.499990 -0.563252
O2    O     O_R   0.680360 0.381260 0.500010 -0.559728
O3    O     O_R   0.680360 0.618740 0.500010 -0.562725
O4    O     O_R   0.319640 0.381260 0.499990 -0.564305
C1    C     C_R   0.871586 0.502180 0.498951 -0.369862
C2    C     C_R   0.128464 0.497884 0.500590 -0.369013
C3    C     C_R   0.262431 0.499102 0.498610 0.932458
C4    C     C_R   0.737584 0.500900 0.501290 0.939230
O5    O     O_R   0.499970 0.618770 0.316850 -0.608681
O6    O     O_R   0.500030 0.381230 0.683150 -0.613406
O7    O     O_R   0.500030 0.618770 0.683150 -0.566555
O8    O     O_R   0.499970 0.381230 0.316850 -0.573417
C5    C     C_R   0.498258 0.498913 0.259496 0.854549
C6    C     C_R   0.499221 0.501214 0.740709 0.857580
Cu1   Cu    Cu3+1 0.500000 0.640660 0.500000 1.009205
Cu2   Cu    Cu3+1 0.500000 0.359340 0.500000 1.007788
H1    H     H_    0.362002 0.125284 0.362033 0.161052
H2    H     H_    0.639675 0.874461 0.636044 0.177985
H3    H     H_    0.640677 0.134595 0.635877 0.126527
H4    H     H_    0.359751 0.865342 0.363696 0.124648
N1    N     N_R   0.500000 0.852070 0.500000 -0.175892
N2    N     N_R   0.500000 0.147930 0.500000 -0.173958
C7    C     C_3   0.420936 0.599838 0.045325 0.165851
C8    C     C_3   0.571522 0.401510 0.956214 0.144380
C9    C     C_3   0.536981 0.627438 0.963964 0.126279
C10   C     C_3   0.455382 0.374361 0.036825 0.141172
C11   C     C_3   0.380863 0.476989 0.957655 -0.153263
C12   C     C_3   0.611757 0.524409 0.042886 -0.210319
H5    H     H_    0.286933 0.457332 0.920598 0.200354
H6    H     H_    0.706170 0.545832 0.078416 0.208390
C13   C     C_3   0.498215 0.504127 0.877571 -0.117842
C14   C     C_3   0.495247 0.496956 0.122982 -0.137587
C15   C     C_R   0.422964 0.071670 0.423719 0.010646
C16   C     C_R   0.577952 0.928287 0.575235 0.002743
C17   C     C_R   0.577945 0.076866 0.575455 0.008343
C18   C     C_R   0.422413 0.923106 0.424147 0.017692
C19   C     C_R   0.063335 0.413463 0.414091 0.241094
C20   C     C_R   0.936745 0.586175 0.585652 0.243650
C21   C     C_R   0.934444 0.415201 0.413087 0.252446
C22   C     C_R   0.065570 0.585262 0.586064 0.255238
C23   C     C_3   0.332044 0.704422 0.107108 -0.420365
C24   C     C_3   0.227386 0.746437 0.021543 -0.666846
H7    H     H_    0.263547 0.790042 0.933020 0.281195
H8    H     H_    0.166543 0.654531 0.000582 0.288244
H9    H     H_    0.170898 0.827425 0.069253 0.239322
H10   H     H_    0.289402 0.655578 0.190966 0.225785
H11   H     H_    0.384709 0.798708 0.139012 0.194579
C25   C     C_3   0.656830 0.290873 0.899149 -0.430783
C26   C     C_3   0.744049 0.229980 0.994485 -0.645940
H12   H     H_    0.813653 0.310490 0.023107 0.294471
H13   H     H_    0.692767 0.192429 0.077958 0.264614
H14   H     H_    0.793439 0.140171 0.951512 0.239616
H15   H     H_    0.599205 0.205589 0.857837 0.197741
H16   H     H_    0.712908 0.338899 0.823132 0.229628
C27   C     C_3   0.599056 0.766221 0.926393 -0.338879
C28   C     C_3   0.508621 0.875565 0.884386 -0.839169
H17   H     H_    0.444315 0.832459 0.813063 0.295862
H18   H     H_    0.456501 0.915420 0.965954 0.253400
H19   H     H_    0.560633 0.965079 0.843879 0.225937
H20   H     H_    0.651510 0.809747 0.007261 0.211047
H21   H     H_    0.665598 0.745577 0.849610 0.265379
C29   C     C_3   0.403966 0.232484 0.080584 -0.370247
C30   C     C_3   0.321968 0.161625 0.982313 -0.770937
H22   H     H_    0.238302 0.224232 0.966286 0.279491
H23   H     H_    0.373148 0.148269 0.892765 0.249658
H24   H     H_    0.290552 0.057678 0.016325 0.244882
H25   H     H_    0.480839 0.162585 0.104222 0.197261
H26   H     H_    0.347675 0.248899 0.166105 0.260488
N3    N     N_R   0.128054 0.337851 0.318407 0.139134
O9    O     O_R   0.142789 0.203535 0.328274 -0.340827
O10   O     O_R   0.154521 0.399004 0.213431 -0.408904
N4    N     N_R   0.872259 0.659547 0.682813 0.136050
O11   O     O_R   0.856265 0.793818 0.674659 -0.343522
O12   O     O_R   0.850091 0.597238 0.788185 -0.411105
N5    N     N_R   0.867914 0.333598 0.321188 0.161281
O13   O     O_R   0.783372 0.391382 0.254621 -0.423662
O14   O     O_R   0.887889 0.200266 0.307171 -0.291319
N6    N     N_R   0.131936 0.668389 0.677010 0.162119
O15   O     O_R   0.215736 0.611642 0.745206 -0.429899
O16   O     O_R   0.112194 0.802007 0.688792 -0.294271

loop_
_geom_bond_atom_site_label_1
_geom_bond_atom_site_label_2
_geom_bond_distance
_ccdc_geom_bond_type
C9    C13   1.541741 S    
C27   C28   1.517861 S    
C30   H23   1.110249 S    
C10   C14   1.538327 S    
C19   N3    1.430462 S    
C11   H5    1.107349 S    
C23   C24   1.525153 S    
C5    C14   1.461431 S    
C6    C13   1.464515 S    
N1    C18   1.367216 A    
C9    C12   1.547756 S    
C25   H16   1.110865 S    
N2    C17   1.367222 A    
C10   C11   1.545250 S    
C24   H8    1.110092 S    
C29   H25   1.108420 S    
C8    C10   1.540322 S    
O7    C6    1.286941 A    
N6    O16   1.300719 A    
Cu1   Cu2   2.684740 S    
C15   C18   1.417788 A    
C28   H17   1.108096 S    
C16   C17   1.417914 A    
N3    O10   1.300711 A    
O5    C5    1.290788 A    
O7    Cu1   1.973910 S    
O8    Cu2   1.973911 S    
C26   H13   1.108720 S    
C23   H10   1.110697 S    
O1    Cu1   1.961759 S    
C21   N5    1.437243 S    
O2    Cu2   1.961758 S    
C30   H24   1.108635 S    
C27   H20   1.111286 S    
H1    C15   1.077402 S    
O4    C3    1.293243 A    
C25   H15   1.107155 S    
C20   N4    1.429854 S    
C11   C13   1.547842 S    
C8    C25   1.532175 S    
C8    C12   1.544854 S    
C12   C14   1.540996 S    
N4    O12   1.300721 A    
O3    C4    1.293282 A    
O6    C6    1.293065 A    
N6    O15   1.298984 A    
N1    C16   1.365869 A    
C24   H9    1.110181 S    
O4    Cu2   1.968556 S    
N5    O13   1.299193 A    
C29   C30   1.525998 S    
N5    O14   1.300691 A    
C26   H14   1.110368 S    
C23   H11   1.108993 S    
C2    C19   1.405599 A    
H2    C16   1.077779 S    
C25   C26   1.523375 S    
C7    C11   1.550370 S    
C1    C21   1.408991 A    
C22   N6    1.437148 S    
C24   H7    1.106094 S    
O3    Cu1   1.968555 S    
N2    C15   1.366641 A    
Cu2   N2    2.017564 S    
O1    C3    1.290163 A    
O2    C4    1.290252 A    
C9    C27   1.532630 S    
N4    O11   1.300038 A    
C1    C4    1.451628 S    
C2    C3    1.451224 S    
C7    C23   1.537673 S    
C28   H19   1.107029 S    
C29   H26   1.106576 S    
C7    C14   1.536591 S    
C12   H6    1.109005 S    
C10   C29   1.533310 S    
C8    C13   1.534998 S    
C19   C21   1.396885 A    
O6    Cu2   1.968349 S    
C20   C22   1.395890 A    
C27   H21   1.106626 S    
C28   H18   1.102635 S    
C2    C22   1.408757 A    
C7    C9    1.544665 S    
O5    Cu1   1.968351 S    
N3    O9    1.300110 A    
C30   H22   1.109470 S    
H4    C18   1.080967 S    
Cu1   N1    2.017563 S    
O8    C5    1.287529 A    
C26   H12   1.109609 S    
H3    C17   1.081101 S    
C1    C20   1.404925 A    
