data_mof_unit_54954.cif
_audit_creation_date              2013-03-05T15:54:32-0500
_audit_creation_method            fapswitch 2.2
_symmetry_space_group_name_H-M    P1
_symmetry_Int_Tables_number       1
_space_group_crystal_system       triclinic
_cell_length_a                    18.894779
_cell_length_b                    18.756902
_cell_length_c                    12.401978
_cell_angle_alpha                 90.173642
_cell_angle_beta                  130.387558
_cell_angle_gamma                 90.269023
_cell_volume                      3347.70584149

loop_
_atom_site_label
_atom_site_type_symbol
_atom_site_description
_atom_site_fract_x
_atom_site_fract_y
_atom_site_fract_z
_atom_type_partial_charge
O1    O     O_R   0.608610 0.924520 0.551740 -0.572768
O2    O     O_R   0.608610 0.075480 0.551740 -0.595961
O3    O     O_R   0.108610 0.424520 0.551740 -0.586885
O4    O     O_R   0.108610 0.575480 0.551740 -0.599535
O5    O     O_R   0.564110 0.924510 0.685150 -0.552993
O6    O     O_R   0.564110 0.075490 0.685150 -0.566008
O7    O     O_R   0.064110 0.424510 0.685150 -0.549515
O8    O     O_R   0.064110 0.575490 0.685150 -0.557656
C1    C     C_R   0.610547 0.897546 0.650659 0.853117
C2    C     C_R   0.607812 0.104813 0.647726 0.820868
C3    C     C_R   0.108589 0.395997 0.648530 0.831820
C4    C     C_R   0.113647 0.600989 0.654410 0.812752
Cu1   Cu    Cu3+1 0.526340 1.000000 0.421010 0.993404
Cu2   Cu    Cu3+1 0.026340 0.500000 0.421010 0.989388
Cu3   Cu    Cu3+1 0.473640 1.000000 0.578990 0.999312
Cu4   Cu    Cu3+1 0.973640 0.500000 0.578990 1.005240
O9    O     O_R   0.435880 0.075470 0.314850 -0.555536
O10   O     O_R   0.435880 0.924530 0.314850 -0.558406
O11   O     O_R   0.935880 0.575470 0.314850 -0.526304
O12   O     O_R   0.935880 0.424530 0.314850 -0.566934
O13   O     O_R   0.391380 0.075460 0.448260 -0.544410
O14   O     O_R   0.391380 0.924540 0.448260 -0.588788
O15   O     O_R   0.891380 0.575460 0.448260 -0.559254
O16   O     O_R   0.891380 0.424540 0.448260 -0.569485
C5    C     C_R   0.382109 0.097644 0.339958 0.868688
C6    C     C_R   0.380700 0.904045 0.337620 0.888214
C7    C     C_R   0.881603 0.597162 0.338828 0.857642
C8    C     C_R   0.881346 0.402277 0.339203 0.854074
C9    C     C_R   0.670951 0.277365 0.151275 -0.216812
C10   C     C_R   0.668886 0.716040 0.142578 -0.198210
C11   C     C_R   0.132823 0.847802 0.041631 -0.198616
C12   C     C_R   0.184434 0.230281 0.167089 -0.190491
H1    H     H_    0.525303 0.206780 0.920779 0.146830
H2    H     H_    0.526155 0.781296 0.906830 0.133912
H3    H     H_    0.998721 0.777641 0.806086 0.152307
H4    H     H_    0.040826 0.301142 0.942244 0.140393
H5    H     H_    0.627246 0.252352 0.168601 0.176775
H6    H     H_    0.614590 0.730387 0.145450 0.181046
H7    H     H_    0.063282 0.862489 0.997791 0.167028
H8    H     H_    0.141819 0.255291 0.186232 0.170828
C13   C     C_R   0.299800 0.861033 0.225589 -0.151032
C14   C     C_R   0.307817 0.148567 0.239990 -0.148840
C15   C     C_R   0.802977 0.353329 0.235028 -0.151017
C16   C     C_R   0.807640 0.648023 0.237245 -0.180652
C17   C     C_R   0.729603 0.192961 0.716414 -0.145448
C18   C     C_R   0.758646 0.837970 0.760262 -0.137572
C19   C     C_R   0.266433 0.657988 0.771242 -0.154898
C20   C     C_R   0.236052 0.314610 0.723715 -0.149277
C21   C     C_R   0.337467 0.704969 0.870380 -0.135398
C22   C     C_R   0.302647 0.264501 0.816136 -0.111184
C23   C     C_R   0.790135 0.248952 0.800585 -0.119590
C24   C     C_R   0.835281 0.801618 0.874256 -0.114648
C25   C     C_R   0.327864 0.748170 0.951626 -0.110921
C26   C     C_R   0.300834 0.231843 0.914822 -0.128329
C27   C     C_R   0.785109 0.283275 0.895091 -0.154899
C28   C     C_R   0.830580 0.767185 0.968427 -0.105671
C29   C     C_R   0.714984 0.265230 0.900815 0.115460
C30   C     C_R   0.746046 0.762669 0.942758 0.123314
C31   C     C_R   0.246003 0.745659 0.933417 0.104802
C32   C     C_R   0.227762 0.244583 0.916104 0.120803
C33   C     C_R   0.648179 0.212234 0.806585 0.066895
C34   C     C_R   0.668342 0.800677 0.828707 0.099879
C35   C     C_R   0.168668 0.706739 0.816616 0.047408
C36   C     C_R   0.157528 0.293720 0.818311 0.090348
C37   C     C_R   0.236302 0.784450 0.021530 0.014281
C38   C     C_R   0.227636 0.215222 0.021519 0.028717
C39   C     C_R   0.714675 0.293542 0.006980 0.044810
C40   C     C_R   0.739067 0.725331 0.034491 0.016338
C41   C     C_R   0.653709 0.265066 0.024504 0.067339
C42   C     C_R   0.665420 0.740149 0.032913 0.069669
C43   C     C_R   0.145577 0.799303 0.970059 0.058944
C44   C     C_R   0.168638 0.244286 0.042471 0.069545
C45   C     C_R   0.578381 0.223549 0.916447 -0.189132
C46   C     C_R   0.587367 0.775182 0.917273 -0.177917
C47   C     C_R   0.068301 0.766893 0.845799 -0.177725
C48   C     C_R   0.093235 0.285046 0.936232 -0.169019
C49   C     C_R   0.573088 0.200617 0.804475 -0.165239
C50   C     C_R   0.585901 0.799155 0.809908 -0.139685
C51   C     C_R   0.079826 0.719318 0.772491 -0.184874
C52   C     C_R   0.083706 0.304119 0.819331 -0.137688
C53   C     C_R   0.312787 0.807970 0.159778 0.129868
C54   C     C_R   0.283582 0.157820 0.106609 0.153622
C55   C     C_R   0.774142 0.348677 0.098422 0.129007
C56   C     C_R   0.798644 0.669612 0.119236 0.175293
C57   C     C_R   0.208894 0.882518 0.162788 0.220400
C58   C     C_R   0.258227 0.187077 0.270929 0.259705
C59   C     C_R   0.750624 0.315419 0.261884 0.238592
C60   C     C_R   0.742910 0.674284 0.250291 0.238439
C61   C     C_R   0.660437 0.171852 0.721537 -0.113242
C62   C     C_R   0.676906 0.841311 0.741177 -0.075755
C63   C     C_R   0.182195 0.657463 0.745152 -0.092321
C64   C     C_R   0.165511 0.332355 0.727346 -0.107950
H9    H     H_    0.739222 0.164461 0.650696 0.164417
H10   H     H_    0.766185 0.868436 0.694101 0.158024
H11   H     H_    0.277752 0.621496 0.715934 0.147015
H12   H     H_    0.242846 0.342233 0.654222 0.172326
H13   H     H_    0.383387 0.785500 0.024272 0.170430
H14   H     H_    0.359437 0.199050 0.993667 0.172159
H15   H     H_    0.838587 0.322221 0.966643 0.154593
H16   H     H_    0.894192 0.745298 0.063089 0.165246
H17   H     H_    0.401154 0.706677 0.886841 0.141582
H18   H     H_    0.358854 0.253567 0.816115 0.157065
H19   H     H_    0.844342 0.263578 0.797565 0.160452
H20   H     H_    0.899992 0.803035 0.893640 0.135557
H21   H     H_    0.510688 0.172262 0.719780 0.202093
H22   H     H_    0.520256 0.818213 0.715044 0.168067
H23   H     H_    0.017796 0.695737 0.676569 0.174784
H24   H     H_    0.018891 0.328454 0.733219 0.195608
C65   C     C_R   0.678326 0.046509 0.292703 -0.256031
C66   C     C_R   0.171785 0.556583 0.286598 -0.259667
H25   H     H_    0.701083 0.031792 0.483244 0.130971
H26   H     H_    0.197145 0.541292 0.478875 0.129058
H27   H     H_    0.748228 0.067024 0.351931 0.160569
H28   H     H_    0.238121 0.583332 0.342766 0.156187
N1    N     N_R   0.566260 0.000000 0.302220 -0.186653
N2    N     N_R   0.066260 0.500000 0.302220 -0.187585
C67   C     C_R   0.343551 0.984616 0.626021 0.133905
C68   C     C_R   0.843793 0.482727 0.625034 0.169929
C69   C     C_R   0.309826 0.975303 0.696477 -0.224003
C70   C     C_R   0.810251 0.471216 0.695376 -0.187263
C71   C     C_R   0.369183 0.982189 0.842774 -0.140608
C72   C     C_R   0.869433 0.478183 0.841825 -0.137380
C73   C     C_R   0.463448 0.000850 0.921655 -0.051649
C74   C     C_R   0.962806 0.498986 0.920705 -0.053492
C75   C     C_R   0.496865 0.009451 0.846205 0.169449
C76   C     C_R   0.995588 0.509944 0.845220 0.175551
C77   C     C_R   0.525770 0.009689 0.073158 -0.073700
C78   C     C_R   0.024693 0.509391 0.071814 -0.053315
C79   C     C_R   0.614938 0.040233 0.143964 0.101498
C80   C     C_R   0.109857 0.546044 0.139009 0.117307
C81   C     C_R   0.641768 0.060623 0.066768 0.065808
C82   C     C_R   0.134149 0.568178 0.058975 0.052773
C83   C     C_R   0.593230 0.031500 0.930669 0.259294
C84   C     C_R   0.089370 0.535659 0.927003 0.261564
C85   C     C_R   0.503189 0.990747 0.158672 0.094738
C86   C     C_R   0.004902 0.487062 0.159453 0.098066
C87   C     C_R   0.652912 0.025034 0.369477 0.079928
C88   C     C_R   0.149482 0.531672 0.365998 0.081823
N3    N     N_R   0.434410 0.000000 0.697680 -0.202032
N4    N     N_R   0.934410 0.500000 0.697680 -0.204568
H29   H     H_    0.436002 0.969617 0.113796 0.147811
H30   H     H_    0.940831 0.460712 0.115764 0.164398
H31   H     H_    0.297028 0.978221 0.513128 0.187388
H32   H     H_    0.797296 0.476536 0.511255 0.174859
H33   H     H_    0.338692 0.974138 0.890983 0.177773
H34   H     H_    0.839553 0.469950 0.890399 0.209148
H35   H     H_    0.237231 0.962102 0.637301 0.169058
H36   H     H_    0.738061 0.456603 0.636149 0.183273
Br1   Br    Br    0.182504 0.963935 0.224829 -0.518856
Br2   Br    Br    0.282791 0.182339 0.447522 -0.519571
Br3   Br    Br    0.781558 0.312592 0.443031 -0.587903
Br4   Br    Br    0.743804 0.651866 0.402503 -0.481135
C89   C     C_3   0.732758 0.101137 0.139125 -0.766205
H37   H     H_    0.736804 0.124074 0.060866 0.258068
H38   H     H_    0.739212 0.146040 0.203132 0.224817
H39   H     H_    0.792643 0.065014 0.209928 0.256295
C90   C     C_3   0.218278 0.615703 0.123281 -0.724527
H40   H     H_    0.211380 0.665856 0.163474 0.224182
H41   H     H_    0.282961 0.587939 0.210683 0.257965
H42   H     H_    0.225005 0.630107 0.043983 0.262675
Br5   Br    Br    0.687121 0.988834 0.933123 -0.518874
Br6   Br    Br    0.185033 0.488449 0.940051 -0.503080
Br7   Br    Br    0.430716 0.758638 0.275562 -0.521192
Br8   Br    Br    0.289154 0.077854 0.013302 -0.558812
Br9   Br    Br    0.760360 0.435726 0.006923 -0.519865
Br10  Br    Br    0.834680 0.608985 0.034403 -0.480211

loop_
_geom_bond_atom_site_label_1
_geom_bond_atom_site_label_2
_geom_bond_distance
_ccdc_geom_bond_type
C30   C34   1.410415 A    
C39   C55   1.395970 A    
C90   H40   1.110357 S    
C11   C57   1.390754 A    
C15   C55   1.406123 A    
C4    C63   1.468694 S    
O10   C6    1.301110 A    
O3    C3    1.315923 A    
C44   C48   1.390706 A    
C17   H9    1.083210 S    
C19   H11   1.083231 S    
C68   C70   1.387677 A    
C25   C31   1.411462 A    
C19   C21   1.390490 A    
C26   C32   1.412509 A    
C75   N3    1.412837 A    
O7    C3    1.302296 A    
C55   Br9   1.911475 S    
C76   N4    1.404999 A    
C22   C26   1.390333 A    
C54   Br8   1.936179 S    
Cu1   O10   1.925739 S    
C67   H31   1.072581 S    
C77   C85   1.421380 A    
C68   H32   1.080741 S    
C58   Br2   1.924630 S    
C21   H17   1.082587 S    
C21   C25   1.392181 A    
C73   C75   1.437334 A    
C9    H5    1.084033 S    
C17   C23   1.391268 A    
C69   H35   1.082836 S    
C18   C24   1.386571 A    
C10   H6    1.084457 S    
C65   C87   1.375664 A    
O8    Cu4   1.926095 S    
O2    Cu1   1.936183 S    
C86   H30   1.070576 S    
H4    C48   1.084289 S    
O6    Cu3   1.926095 S    
C36   C52   1.417468 A    
C73   C77   1.439977 A    
C3    C64   1.481193 S    
Cu3   O14   1.935864 S    
C38   C44   1.409815 A    
N1    C87   1.348143 A    
C2    C61   1.486456 S    
C70   C72   1.389791 A    
C14   C54   1.413159 A    
C42   C46   1.391933 A    
C20   C64   1.404001 A    
C41   C45   1.392695 A    
C14   C58   1.420398 A    
O15   C7    1.311832 A    
C89   H38   1.106312 S    
O11   C7    1.305428 A    
C66   H28   1.080961 S    
C9    C41   1.401628 A    
C65   H27   1.080906 S    
C74   C78   1.439895 A    
C11   C43   1.395677 A    
C32   C38   1.421562 A    
C90   H41   1.110170 S    
C59   Br3   1.921175 S    
C60   Br4   1.924630 S    
C67   N3    1.355338 A    
C29   C39   1.421751 A    
C68   N4    1.357287 A    
C7    C16   1.479348 S    
C10   C42   1.395406 A    
C33   C61   1.432931 A    
Cu3   N3    2.032280 S    
C69   C71   1.388043 A    
C71   C73   1.409238 A    
C40   C56   1.395910 A    
H26   C88   1.080047 S    
C81   C89   1.524076 S    
O1    C1    1.306929 A    
C12   C44   1.397185 A    
C23   H19   1.082978 S    
C33   C49   1.417815 A    
C35   C51   1.409633 A    
O12   C8    1.314231 A    
C23   C27   1.391916 A    
C25   H13   1.080276 S    
C37   C43   1.418150 A    
C84   Br6   1.927253 S    
C83   Br5   1.931869 S    
C39   C41   1.406718 A    
C27   H15   1.081316 S    
C53   Br7   1.940154 S    
C80   C82   1.399766 A    
C77   C79   1.417230 A    
O5    C1    1.303029 A    
Cu2   O12   1.925739 S    
C38   C54   1.400798 A    
C37   C53   1.414648 A    
C18   H10   1.083358 S    
Cu1   Cu3   2.712654 S    
C66   C88   1.379962 A    
C13   C53   1.404962 A    
O8    C4    1.307486 A    
O5    Cu3   1.943683 S    
C12   C58   1.396162 A    
C51   H23   1.081477 S    
C89   H39   1.110705 S    
C20   C22   1.388920 A    
Cu1   N1    2.044358 S    
O3    Cu2   1.953962 S    
H2    C46   1.083890 S    
C82   C84   1.400453 A    
C18   C62   1.404486 A    
H1    C45   1.083784 S    
O7    Cu4   1.943683 S    
C78   C86   1.422875 A    
C22   H18   1.082750 S    
C90   H42   1.104369 S    
C12   H8    1.084149 S    
C27   C29   1.411752 A    
O14   C6    1.307107 A    
C71   H33   1.076249 S    
H3    C47   1.084269 S    
O4    C4    1.303125 A    
C28   H16   1.081856 S    
C1    C62   1.463030 S    
C10   C60   1.396260 A    
O2    C2    1.318860 A    
N2    C88   1.351945 A    
Cu4   N4    2.032280 S    
C72   C74   1.405863 A    
C17   C61   1.404141 A    
H25   C87   1.081134 S    
O16   C8    1.305055 A    
C74   C76   1.433088 A    
C75   C83   1.449904 A    
O13   C5    1.306553 A    
C24   H20   1.082691 S    
C45   C49   1.392627 A    
C20   H12   1.083119 S    
C70   H36   1.082637 S    
C19   C63   1.403769 A    
Cu2   O11   1.943323 S    
C34   C50   1.417927 A    
C48   C52   1.388452 A    
C81   C83   1.404331 A    
C78   C80   1.415931 A    
C5    C14   1.477948 S    
O6    C2    1.301429 A    
C29   C33   1.420105 A    
N2    C86   1.368423 A    
Cu1   O9    1.943323 S    
Cu4   O15   1.953638 S    
C13   C57   1.412119 A    
C52   H24   1.077958 S    
C8    C15   1.485135 S    
C31   C35   1.416697 A    
C82   C90   1.515583 S    
C16   C56   1.420101 A    
C32   C36   1.419157 A    
O9    C5    1.309704 A    
C67   C69   1.386202 A    
C15   C59   1.420166 A    
C31   C37   1.418867 A    
C43   C47   1.395123 A    
C30   C40   1.414414 A    
Cu3   O13   1.953638 S    
N1    C85   1.366200 A    
Cu2   N2    2.044358 S    
C34   C62   1.420213 A    
C49   H21   1.078008 S    
C28   C30   1.413983 A    
C50   H22   1.079832 S    
C66   C80   1.406654 A    
Cu2   Cu4   2.712654 S    
C72   H34   1.070514 S    
O4    Cu2   1.936183 S    
C57   Br1   1.915723 S    
C9    C59   1.401891 A    
C56   Br10  1.947321 S    
C85   H29   1.075513 S    
O1    Cu1   1.953962 S    
C76   C84   1.435702 A    
Cu4   O16   1.935864 S    
C46   C50   1.389926 A    
C35   C63   1.412772 A    
C11   H7    1.084653 S    
C40   C42   1.407973 A    
C36   C64   1.430051 A    
C26   H14   1.080500 S    
C89   H37   1.109638 S    
C16   C60   1.423495 A    
C65   C79   1.409026 A    
C47   C51   1.387000 A    
C24   C28   1.388334 A    
C6    C13   1.465349 S    
C79   C81   1.396125 A    
