data_mof_unit_50384.cif
_audit_creation_date              2012-12-11T16:26:33-0500
_audit_creation_method            fapswitch 2.2
_symmetry_space_group_name_H-M    P1
_symmetry_Int_Tables_number       1
_space_group_crystal_system       triclinic
_cell_length_a                    6.950383
_cell_length_b                    17.572004
_cell_length_c                    19.361093
_cell_angle_alpha                 108.497889
_cell_angle_beta                  89.221665
_cell_angle_gamma                 90.565233
_cell_volume                      2242.19981723

loop_
_atom_site_label
_atom_site_type_symbol
_atom_type_description
_atom_site_fract_x
_atom_site_fract_y
_atom_site_fract_z
_atom_type_partial_charge
O1    O     O_R   0.494330 0.415720 0.413720 -0.537745
O2    O     O_R   0.819330 0.430070 0.560210 -0.552890
O3    O     O_R   0.994320 0.584280 0.586280 -0.548331
C1    C     C_R   0.649279 0.415289 0.581873 0.725610
O4    O     O_R   0.823730 0.406300 0.412670 -0.538995
O5    O     O_R   0.998760 0.560340 0.437690 -0.543370
C2    C     C_R   0.655379 0.383492 0.385059 0.690427
O6    O     O_R   0.489890 0.439660 0.562310 -0.518156
O7    O     O_3   0.662340 0.550560 0.508380 -0.373031
V1    V     V_3+5 0.935370 0.490620 0.498450 1.410072
O8    O     O_R   0.328750 0.569930 0.439790 -0.547311
C3    C     C_R   0.160912 0.585280 0.418430 0.698887
O9    O     O_R   0.324340 0.593700 0.587330 -0.523511
C4    C     C_R   0.155416 0.614046 0.616618 0.789737
V2    V     V_3+5 0.435940 0.509380 0.501550 1.447154
O10   O     O_3   0.159100 0.449440 0.491620 -0.370101
C5    C     C_R   0.248815 0.597227 0.760793 0.389586
C6    C     C_R   0.305726 0.592675 0.828580 -0.193833
C7    C     C_R   0.290940 0.658438 0.890698 -0.197261
C8    C     C_R   0.225600 0.730905 0.886127 -0.140904
C9    C     C_R   0.180399 0.740503 0.818200 0.021486
C10   C     C_R   0.192387 0.672706 0.753659 -0.024039
C11   C     C_R   0.127919 0.817109 0.814626 -0.155041
C12   C     C_R   0.100925 0.828394 0.745474 0.000930
C13   C     C_R   0.095468 0.759569 0.681926 -0.004430
C14   C     C_R   0.144829 0.682503 0.685449 -0.156391
C15   C     C_R   0.084886 0.906336 0.736898 0.212300
C16   C     C_R   0.031955 0.912386 0.668751 -0.161788
C17   C     C_R   0.007964 0.844412 0.608283 0.298066
C18   C     C_R   0.046776 0.769300 0.614512 -0.229484
H1    H     H_    0.356580 0.536393 0.833132 0.133807
H2    H     H_    0.329742 0.653192 0.942967 0.135429
H3    H     H_    0.215471 0.779750 0.936785 0.109686
H4    H     H_    0.018952 0.970197 0.660725 0.138777
H5    H     H_    0.038021 0.718544 0.565317 0.109591
C19   C     C_R   0.990541 0.630752 0.325575 -0.214460
C20   C     C_R   0.152722 0.635060 0.369489 -0.091282
C21   C     C_R   0.305897 0.686826 0.366182 -0.233438
C22   C     C_R   0.297388 0.734143 0.319923 0.094792
C23   C     C_R   0.135247 0.728576 0.275369 0.051580
C24   C     C_R   0.981556 0.676537 0.278157 0.088414
C25   C     C_R   0.448193 0.786910 0.317317 -0.179522
C26   C     C_R   0.440135 0.832780 0.270098 -0.188376
C27   C     C_R   0.280917 0.826791 0.224780 0.087840
C28   C     C_R   0.126984 0.774940 0.227780 0.050958
C29   C     C_R   0.965004 0.769205 0.183122 0.090639
C30   C     C_R   0.813727 0.716785 0.186025 -0.184661
C31   C     C_R   0.821863 0.670872 0.233164 -0.189679
C32   C     C_R   0.272927 0.871747 0.176576 -0.212813
C33   C     C_R   0.111483 0.866724 0.132103 -0.084295
C34   C     C_R   0.957431 0.815701 0.136169 -0.231878
H6    H     H_    0.872197 0.590721 0.327401 0.125220
H7    H     H_    0.430809 0.690959 0.400158 0.130461
H8    H     H_    0.573278 0.792237 0.351391 0.131631
H9    H     H_    0.559245 0.872545 0.268651 0.127566
H10   H     H_    0.391602 0.911485 0.174393 0.123719
H11   H     H_    0.832709 0.811290 0.102049 0.128987
H12   H     H_    0.688561 0.711503 0.152007 0.132296
H13   H     H_    0.702764 0.631096 0.234603 0.127672
C35   C     C_R   0.655388 0.217545 0.896698 -0.225126
C36   C     C_R   0.623683 0.134314 0.869217 -0.061664
C37   C     C_R   0.589969 0.098150 0.794533 -0.250077
C38   C     C_R   0.592793 0.144018 0.746812 0.097308
C39   C     C_R   0.624275 0.227652 0.774561 0.055883
C40   C     C_R   0.653928 0.264672 0.849904 0.107713
C41   C     C_R   0.564535 0.107776 0.671821 -0.208765
C42   C     C_R   0.570179 0.153689 0.624432 -0.181561
C43   C     C_R   0.600967 0.236968 0.651328 0.106142
C44   C     C_R   0.625880 0.274321 0.726910 0.043189
C45   C     C_R   0.652301 0.358265 0.754902 0.085900
C46   C     C_R   0.678626 0.394601 0.830015 -0.197080
C47   C     C_R   0.680684 0.348191 0.877003 -0.186569
C48   C     C_R   0.608107 0.283501 0.604083 -0.247771
C49   C     C_R   0.636472 0.366907 0.631667 -0.064994
C50   C     C_R   0.653338 0.404199 0.707205 -0.217667
H14   H     H_    0.678692 0.245567 0.954498 0.103094
H15   H     H_    0.565807 0.033914 0.773400 0.115411
H16   H     H_    0.538430 0.043779 0.649810 0.127328
H17   H     H_    0.549824 0.124047 0.566698 0.126993
H18   H     H_    0.591718 0.255023 0.545968 0.107447
H19   H     H_    0.669596 0.468833 0.728638 0.114463
H20   H     H_    0.699378 0.458938 0.852373 0.121436
H21   H     H_    0.702640 0.377702 0.934662 0.123922
H22   H     H_    0.814869 0.131653 0.429614 0.113690
C51   C     C_R   0.553187 0.407639 0.249234 -0.141135
C52   C     C_R   0.502077 0.421254 0.184826 -0.120239
C53   C     C_R   0.488657 0.357451 0.120502 -0.123473
C54   C     C_R   0.526231 0.279560 0.120106 -0.137649
C55   C     C_R   0.577759 0.263762 0.184691 0.070633
C56   C     C_R   0.591286 0.329116 0.250653 0.068677
C57   C     C_R   0.619028 0.184664 0.184062 -0.182650
C58   C     C_R   0.673300 0.170890 0.249470 0.068802
C59   C     C_R   0.686872 0.236248 0.315429 0.071192
C60   C     C_R   0.645598 0.315346 0.316055 -0.182209
C61   C     C_R   0.711355 0.092363 0.250895 -0.142272
C62   C     C_R   0.762469 0.078750 0.315308 -0.118417
C63   C     C_R   0.775981 0.142561 0.379625 -0.122303
C64   C     C_R   0.738471 0.220457 0.380011 -0.139671
H23   H     H_    0.563947 0.459464 0.297579 0.101301
H24   H     H_    0.473647 0.481724 0.184805 0.112848
H25   H     H_    0.449806 0.368361 0.070510 0.111917
H26   H     H_    0.515367 0.232119 0.068570 0.097354
H27   H     H_    0.700564 0.040540 0.202551 0.101073
H28   H     H_    0.790865 0.018279 0.315338 0.114139
H29   H     H_    0.749459 0.267913 0.431532 0.096159
O11   O     O_R   0.775200 0.060470 0.937800 -0.526517
O12   O     O_R   0.441110 0.093720 0.087350 -0.539124
O13   O     O_R   0.266330 0.939630 0.062280 -0.543230
C65   C     C_R   0.609394 0.116536 0.115037 0.692192
O14   O     O_R   0.445750 0.069950 0.939820 -0.543390
O15   O     O_R   0.271000 0.915700 0.913700 -0.544861
C66   C     C_R   0.615165 0.085349 0.918636 0.706382
O16   O     O_R   0.770530 0.084400 0.086380 -0.536762
O17   O     O_3   0.602830 0.949510 0.991680 -0.373459
V3    V     V_3+5 0.329710 0.009370 0.001550 1.421373
O18   O     O_R   0.940990 0.906170 0.912570 -0.532424
C67   C     C_R   0.110841 0.885150 0.883757 0.756472
O19   O     O_R   0.936350 0.929940 0.060100 -0.547186
C68   C     C_R   0.104039 0.915268 0.082052 0.699162
V4    V     V_3+5 0.829160 0.990450 0.998310 1.434865
O20   O     O_3   0.105910 0.050480 0.008320 -0.362082
N1    N     N_2   0.962588 0.851876 0.539068 -0.513864
H30   H     H_    0.984248 0.800664 0.495321 0.258177
C69   C     C_3   0.780882 0.889949 0.535625 -0.552380
H31   H     H_    0.759242 0.891925 0.479482 0.195259
H32   H     H_    0.779826 0.952541 0.573088 0.198849
H33   H     H_    0.660360 0.855409 0.549852 0.196021
O21   O     O_3   0.257388 0.527463 0.702120 -0.563126
C70   C     C_3   0.099864 0.477466 0.706537 0.070179
H34   H     H_    0.971628 0.497228 0.683620 0.129476
H35   H     H_    0.063803 0.478637 0.763205 0.106002
C71   C     C_3   0.144849 0.390749 0.663084 -0.633526
H36   H     H_    0.266710 0.369469 0.688071 0.217105
H37   H     H_    0.020137 0.351417 0.663992 0.176879
H38   H     H_    0.179730 0.385102 0.605665 0.237616
N2    N     N_2   0.147300 0.976465 0.793509 -0.520209
H39   H     H_    0.285881 0.971732 0.809821 0.254235
C72   C     C_3   0.105753 0.055719 0.790102 -0.517385
H40   H     H_    0.138998 0.101203 0.843275 0.213551
H41   H     H_    0.951969 0.060375 0.778803 0.207781
H42   H     H_    0.195038 0.068686 0.747148 0.188926

loop_
_geom_bond_atom_site_label_1
_geom_bond_atom_site_label_2
_ccdc_geom_bond_type
C27   C32   A    
C53   C54   A    
C59   C60   A    
V3    O20   S    
C48   C49   A    
C37   H15   S    
C61   C62   A    
C12   C15   A    
C1    O6    A    
O21   C70   S    
C63   C64   A    
O11   C66   A    
C28   C29   A    
V4    O20   S    
C17   C18   A    
C64   H29   S    
C18   H5    S    
C15   N2    S    
O13   V3    S    
C19   C20   A    
O5    C3    A    
C21   C22   A    
V2    O10   S    
O18   C67   A    
C5    C6    A    
C6    C7    A    
C3    C20   S    
O19   C68   A    
C53   H25   S    
O8    V2    S    
C48   H18   S    
C7    C8    A    
C71   H36   S    
C11   C12   A    
C45   C46   A    
C34   H11   S    
C55   C57   A    
C52   H24   S    
O7    V1    S    
C1    C49   S    
C19   H6    S    
C65   O16   A    
C70   C71   S    
C41   C42   A    
C38   C41   A    
C16   H4    S    
O9    C4    A    
C17   N1    S    
O12   C65   A    
O13   C68   A    
C19   C24   A    
C36   C37   A    
C7    H2    S    
C61   H27   S    
C56   C60   A    
C22   C25   A    
O19   V4    S    
C23   C28   A    
C41   H16   S    
C49   C50   A    
C38   C39   A    
C42   C43   A    
C42   H17   S    
C12   C13   A    
N2    C72   S    
C55   C56   A    
C57   C58   A    
O4    C2    A    
C52   C53   A    
C50   H19   S    
C43   C48   A    
C51   C52   A    
C29   C34   A    
C35   H14   S    
C58   C61   A    
O18   V4    S    
C35   C36   A    
O2    C1    A    
C26   C27   A    
C11   C67   S    
C20   C21   A    
C51   H23   S    
O16   V4    S    
C30   C31   A    
O9    V2    S    
C51   C56   A    
C62   C63   A    
C8    C9    A    
C37   C38   A    
C33   C34   A    
C39   C44   A    
C4    C14   S    
O12   V3    S    
O3    C4    A    
C72   H41   S    
C69   H33   S    
O1    V2    S    
C8    H3    S    
C26   H9    S    
C23   C24   A    
C35   C40   A    
O6    V2    S    
C62   H28   S    
C25   C26   A    
H22   C63   S    
N1    C69   S    
O2    V1    S    
C22   C23   A    
C27   C28   A    
C31   H13   S    
C69   H32   S    
C70   H34   S    
C13   C18   A    
C2    C60   S    
C29   C30   A    
C16   C17   A    
O11   V4    S    
O1    C2    A    
C43   C44   A    
N2    H39   S    
C72   H42   S    
O5    V1    S    
C54   H26   S    
O8    C3    A    
C5    O21   S    
O17   V3    S    
C40   C47   A    
C5    C10   A    
O15   C67   A    
C39   C40   A    
C46   H20   S    
C9    C11   A    
C13   C14   A    
O4    V1    S    
C32   H10   S    
V1    O10   S    
C25   H8    S    
C30   H12   S    
C57   C65   S    
C21   H7    S    
C71   H38   S    
C59   C64   A    
C58   C59   A    
C24   C31   A    
O7    V2    S    
C44   C45   A    
O14   C66   A    
C47   H21   S    
C72   H40   S    
C33   C68   S    
C46   C47   A    
C54   C55   A    
C45   C50   A    
C71   H37   S    
C32   C33   A    
C10   C14   A    
C15   C16   A    
O3    V1    S    
O15   V3    S    
C6    H1    S    
N1    H30   S    
C9    C10   A    
C36   C66   S    
O14   V3    S    
O17   V4    S    
C69   H31   S    
C70   H35   S    
