data_mof_unit_49901.cif
_audit_creation_date              2012-12-11T15:23:39-0500
_audit_creation_method            fapswitch 2.2
_symmetry_space_group_name_H-M    P1
_symmetry_Int_Tables_number       1
_space_group_crystal_system       triclinic
_cell_length_a                    6.929651
_cell_length_b                    17.509157
_cell_length_c                    19.296656
_cell_angle_alpha                 109.511496
_cell_angle_beta                  90.126273
_cell_angle_gamma                 90.556273
_cell_volume                      2206.71688952

loop_
_atom_site_label
_atom_site_type_symbol
_atom_type_description
_atom_site_fract_x
_atom_site_fract_y
_atom_site_fract_z
_atom_type_partial_charge
O1    O     O_R   0.505810 0.439670 0.562310 -0.533086
O2    O     O_R   0.169070 0.404920 0.411210 -0.542435
O3    O     O_R   0.005550 0.560330 0.437690 -0.541154
C1    C     C_R   0.338701 0.381436 0.382970 0.677949
O4    O     O_R   0.175650 0.430000 0.560110 -0.542107
O5    O     O_R   0.012170 0.585580 0.587650 -0.537971
C2    C     C_R   0.344469 0.414818 0.581753 0.709071
O6    O     O_R   0.499180 0.414420 0.412350 -0.539677
O7    O     O_3   0.341430 0.551020 0.508860 -0.369538
V1    V     V_3+5 0.063930 0.490540 0.498360 1.416590
O8    O     O_R   0.682850 0.595080 0.588790 -0.544130
C3    C     C_R   0.852693 0.618431 0.616827 0.693275
O9    O     O_R   0.676280 0.570000 0.439890 -0.544371
C4    C     C_R   0.845366 0.585115 0.418222 0.709593
V2    V     V_3+5 0.564760 0.509460 0.501640 1.417809
O10   O     O_3   0.837130 0.448980 0.491140 -0.364588
C5    C     C_R   0.750190 0.872749 0.178243 0.550619
C6    C     C_R   0.912961 0.867150 0.132806 -0.197058
C7    C     C_R   0.064379 0.815340 0.135937 -0.284602
C8    C     C_R   0.053647 0.768638 0.182525 0.090414
C9    C     C_R   0.890722 0.774569 0.227731 -0.025319
C10   C     C_R   0.738913 0.827025 0.225827 -0.022333
C11   C     C_R   0.202978 0.715808 0.184546 -0.155574
C12   C     C_R   0.192221 0.669844 0.231460 -0.201486
C13   C     C_R   0.031658 0.675691 0.277081 0.093010
C14   C     C_R   0.879654 0.727937 0.274994 0.087400
C15   C     C_R   0.716576 0.733587 0.320079 0.095496
C16   C     C_R   0.567624 0.786568 0.318369 -0.199395
C17   C     C_R   0.578595 0.832829 0.271775 -0.128893
C18   C     C_R   0.020251 0.630051 0.324551 -0.223653
C19   C     C_R   0.857001 0.634593 0.369088 -0.085233
C20   C     C_R   0.705300 0.686312 0.366162 -0.214660
H1    H     H_    0.189877 0.810513 0.101333 0.168939
H2    H     H_    0.328926 0.710361 0.150106 0.130129
H3    H     H_    0.310143 0.629950 0.232288 0.128623
H4    H     H_    0.137469 0.590018 0.325985 0.123543
H5    H     H_    0.579389 0.690595 0.400462 0.133211
H6    H     H_    0.441698 0.791911 0.352807 0.143291
H7    H     H_    0.460299 0.872711 0.271470 0.187040
C21   C     C_3   0.816343 0.816496 0.740530 0.025672
C22   C     C_3   0.985309 0.766825 0.696370 -0.157603
H8    H     H_    0.066493 0.780266 0.652177 0.139590
C23   C     C_3   0.867659 0.688809 0.687238 -0.035905
C24   C     C_3   0.697639 0.738459 0.730261 -0.158650
C25   C     C_3   0.786170 0.733615 0.802646 -0.144881
C26   C     C_3   0.955700 0.683034 0.758734 -0.136660
C27   C     C_3   0.073060 0.761961 0.768876 -0.129361
C28   C     C_3   0.903446 0.811825 0.812177 -0.062110
H9    H     H_    0.543262 0.728902 0.713854 0.118405
H10   H     H_    0.704901 0.720157 0.846800 0.107424
H11   H     H_    0.013123 0.627076 0.765738 0.100630
H12   H     H_    0.227418 0.771787 0.785231 0.128161
C29   C     C_3   0.556791 0.281681 0.277564 -0.111881
C30   C     C_3   0.492463 0.192797 0.263496 -0.121916
H13   H     H_    0.582037 0.145758 0.274363 0.133550
H14   H     H_    0.699483 0.307734 0.300255 0.116737
C31   C     C_3   0.413332 0.189037 0.187888 -0.018475
C32   C     C_3   0.477099 0.277176 0.201238 -0.160083
C33   C     C_3   0.278649 0.307216 0.236487 -0.149703
C34   C     C_3   0.214324 0.218334 0.222423 -0.103622
C35   C     C_3   0.294017 0.222842 0.298751 -0.136728
C36   C     C_3   0.357781 0.310984 0.312096 -0.012955
H15   H     H_    0.553968 0.299337 0.161119 0.101213
H16   H     H_    0.189058 0.354243 0.225612 0.099626
H17   H     H_    0.071632 0.192277 0.199736 0.115201
H18   H     H_    0.217157 0.200683 0.338873 0.115173
C37   C     C_R   0.254537 0.125206 0.821372 -0.197313
C38   C     C_R   0.415670 0.133565 0.867999 -0.098382
C39   C     C_R   0.564262 0.188142 0.866254 -0.218846
C40   C     C_R   0.550104 0.235290 0.820037 0.109625
C41   C     C_R   0.387705 0.226320 0.773281 0.060267
C42   C     C_R   0.241111 0.170347 0.773517 0.064473
C43   C     C_R   0.695365 0.291529 0.820033 -0.206188
C44   C     C_R   0.680130 0.338713 0.774518 -0.172263
C45   C     C_R   0.520761 0.329724 0.727262 0.134650
C46   C     C_R   0.372796 0.273071 0.726187 0.034800
C47   C     C_R   0.212428 0.262491 0.677590 0.019721
C48   C     C_R   0.065852 0.204461 0.677546 -0.028314
C49   C     C_R   0.083036 0.159871 0.725896 -0.212955
C50   C     C_R   0.509592 0.375712 0.680301 -0.145170
C51   C     C_R   0.354037 0.365675 0.631326 -0.102887
C52   C     C_R   0.208227 0.308694 0.629690 -0.194211
H19   H     H_    0.140371 0.082440 0.821488 0.138147
H20   H     H_    0.689083 0.195112 0.901901 0.121920
H21   H     H_    0.821078 0.299067 0.855290 0.128578
H22   H     H_    0.794968 0.381503 0.775423 0.124183
H23   H     H_    0.622939 0.419373 0.681734 0.116271
H24   H     H_    0.096177 0.300011 0.588961 0.174226
H25   H     H_    0.970706 0.116679 0.726937 0.181893
O11   O     O_R   0.271890 0.085690 0.087580 -0.543697
O12   O     O_R   0.595690 0.070020 0.939870 -0.541152
O13   O     O_R   0.758900 0.914390 0.912370 -0.527464
C53   C     C_R   0.426814 0.085002 0.917999 0.727119
O14   O     O_R   0.602020 0.095100 0.088770 -0.540208
O15   O     O_R   0.765280 0.939660 0.062330 -0.502629
C54   C     C_R   0.432390 0.118606 0.116999 0.709955
O16   O     O_R   0.265520 0.060430 0.937620 -0.544860
O17   O     O_3   0.429560 0.949050 0.991100 -0.355765
V3    V     V_3+5 0.707160 0.009450 0.001650 1.481533
O18   O     O_R   0.094540 0.929890 0.060190 -0.541921
C55   C     C_R   0.925325 0.915496 0.082488 0.764235
O19   O     O_R   0.088200 0.904800 0.911290 -0.544935
C56   C     C_R   0.918425 0.881775 0.883010 0.683986
V4    V     V_3+5 0.206300 0.990390 0.998440 1.464430
O20   O     O_3   0.934030 0.050940 0.008900 -0.384634
F1    F     F_    0.604360 0.923899 0.177487 -0.704538
C57   C     C_2   0.735631 0.891072 0.730304 0.725325
O21   O     O_2   0.811349 0.919599 0.687133 -0.549490
O22   O     O_R   0.572986 0.927212 0.769941 -0.667222
H26   H     H_    0.530449 0.976486 0.757723 0.295492
C58   C     C_2   0.891981 0.186986 0.628824 0.760706
O23   O     O_2   0.816552 0.239985 0.610351 -0.576811
O24   O     O_R   0.808462 0.109426 0.606622 -0.646059
H27   H     H_    0.688572 0.105029 0.575241 0.306790

loop_
_geom_bond_atom_site_label_1
_geom_bond_atom_site_label_2
_ccdc_geom_bond_type
C24   H9    S    
C9    C14   A    
C37   H19   S    
C10   C17   A    
C22   C23   S    
C22   H8    S    
C5    F1    S    
C7    C8    A    
C4    C19   S    
C1    O6    A    
C51   C52   A    
C47   C48   A    
C33   H16   S    
C25   H10   S    
C16   C17   A    
C6    C7    A    
C42   C49   A    
O5    C3    A    
C41   C46   A    
O19   V4    S    
C52   H24   S    
C25   C28   S    
V2    O10   S    
C1    C36   S    
O18   V4    S    
C37   C42   A    
C43   C44   A    
C47   C52   A    
O13   C56   A    
C30   H13   S    
O8    V2    S    
C35   H18   S    
C19   C20   A    
C38   C39   A    
C31   C54   S    
C57   O21   D    
C12   C13   A    
C48   C58   S    
O1    V2    S    
C45   C50   A    
C35   C36   S    
C29   C32   S    
C33   C34   S    
O9    C4    A    
C57   O22   S    
O19   C56   A    
O4    V1    S    
V4    O20   S    
V3    O20   S    
C12   H3    S    
C44   C45   A    
C37   C38   A    
C46   C47   A    
C7    H1    S    
O4    C2    A    
C48   C49   A    
C13   C18   A    
C31   C34   S    
C32   C33   S    
C29   C30   S    
C28   C56   S    
C26   H11   S    
C34   C35   S    
C6    C55   S    
O2    C1    A    
C45   C46   A    
O12   C53   A    
C29   C36   S    
C27   C28   S    
C8    C11   A    
C16   H6    S    
C11   C12   A    
C11   H2    S    
O11   V4    S    
C17   H7    S    
C40   C43   A    
C5    C6    A    
C22   C27   S    
C58   O24   S    
C20   H5    S    
C44   H22   S    
O14   C54   A    
C43   H21   S    
C40   C41   A    
O3    C4    A    
C21   C57   S    
C3    C23   S    
C21   C22   S    
C2    C51   S    
C34   H17   S    
O6    V2    S    
O9    V2    S    
C23   C24   S    
C14   C15   A    
O2    V1    S    
C53   O16   A    
C24   C25   S    
O24   H27   S    
O7    V1    S    
C29   H14   S    
C32   H15   S    
C21   C28   S    
C26   C27   S    
C33   C36   S    
C58   O23   D    
C15   C20   A    
O1    C2    A    
C38   C53   S    
C50   C51   A    
O5    V1    S    
O8    C3    A    
O11   C54   A    
C27   H12   S    
C30   C35   S    
C50   H23   S    
C5    C10   A    
C18   H4    S    
C13   C14   A    
C41   C42   A    
O3    V1    S    
V1    O10   S    
O22   H26   S    
C31   C32   S    
C18   C19   A    
O14   V3    S    
O17   V4    S    
O18   C55   A    
O15   V3    S    
O7    V2    S    
C39   C40   A    
C23   C26   S    
C49   H25   S    
O16   V4    S    
C25   C26   S    
C21   C24   S    
C8    C9    A    
O17   V3    S    
C15   C16   A    
C39   H20   S    
O12   V3    S    
C9    C10   A    
O15   C55   A    
O13   V3    S    
C30   C31   S    
