data_mof_unit_38493.cif
_audit_creation_date              2012-12-11T14:35:55-0500
_audit_creation_method            fapswitch 2.2
_symmetry_space_group_name_H-M    P1
_symmetry_Int_Tables_number       1
_space_group_crystal_system       triclinic
_cell_length_a                    14.556594
_cell_length_b                    16.111287
_cell_length_c                    6.949965
_cell_angle_alpha                 90.14464
_cell_angle_beta                  81.157217
_cell_angle_gamma                 90.043918
_cell_volume                      1610.56479191

loop_
_atom_site_label
_atom_site_type_symbol
_atom_type_description
_atom_site_fract_x
_atom_site_fract_y
_atom_site_fract_z
_atom_type_partial_charge
O1    O     O_R   0.337460 0.413110 0.524760 -0.542867
O2    O     O_R   0.662540 0.913110 0.475240 -0.542730
O3    O     O_R   0.348690 0.587910 0.191230 -0.530313
O4    O     O_R   0.651310 0.087910 0.808770 -0.525567
O5    O     O_R   0.166530 0.586890 0.082470 -0.520122
O6    O     O_R   0.833470 0.086890 0.917530 -0.542934
C1    C     C_R   0.369539 0.617216 0.355165 0.762894
C2    C     C_R   0.630698 0.117467 0.645040 0.772020
O7    O     O_R   0.348700 0.413830 0.191250 -0.547767
O8    O     O_R   0.651300 0.913830 0.808750 -0.547297
O9    O     O_R   0.166530 0.411570 0.082490 -0.540036
O10   O     O_R   0.833470 0.911570 0.917510 -0.547053
C3    C     C_R   0.370657 0.386073 0.353346 0.750651
C4    C     C_R   0.629459 0.886094 0.646463 0.752462
O11   O     O_R   0.337460 0.588430 0.524740 -0.533851
O12   O     O_R   0.662540 0.088430 0.475260 -0.532756
O13   O     O_3   0.192230 0.499460 0.407330 -0.364920
O14   O     O_3   0.807770 0.999460 0.592670 -0.383879
V1    V     V_3+5 0.263080 0.500100 0.108540 1.489905
V2    V     V_3+5 0.736920 0.000100 0.891460 1.467696
O15   O     O_R   0.155290 0.412090 0.756570 -0.551373
O16   O     O_R   0.844710 0.912090 0.243430 -0.548439
C5    C     C_R   0.130833 0.384837 0.933479 0.662872
C6    C     C_R   0.867415 0.883409 0.066789 0.683018
O17   O     O_R   0.155290 0.586170 0.756550 -0.549154
O18   O     O_R   0.844710 0.086170 0.243450 -0.544069
C7    C     C_R   0.130195 0.613703 0.933320 0.687369
C8    C     C_R   0.867467 0.115761 0.068446 0.659904
V3    V     V_3+5 0.240910 0.499900 0.616030 1.458460
V4    V     V_3+5 0.759090 0.999900 0.383970 1.451452
O19   O     O_3   0.311760 0.500540 0.867100 -0.356144
O20   O     O_3   0.688240 0.000540 0.132900 -0.352344
C9    C     C_3   0.087935 0.749658 0.109416 -0.360155
C10   C     C_3   0.920096 0.242475 0.863379 -0.329744
H1    H     H_    0.092419 0.720541 0.249907 0.196237
H2    H     H_    0.912348 0.203536 0.736934 0.211000
H3    H     H_    0.158881 0.772938 0.053222 0.140524
H4    H     H_    0.852452 0.275078 0.903052 0.131686
C11   C     C_3   0.020158 0.824467 0.142016 -0.337434
C12   C     C_3   0.997998 0.308001 0.806778 -0.288063
H5    H     H_    0.057689 0.882332 0.091163 0.183418
H6    H     H_    0.965976 0.369206 0.784126 0.133012
H7    H     H_    0.995520 0.831923 0.300835 0.167564
H8    H     H_    0.041399 0.290397 0.667028 0.191959
H9    H     H_    0.866071 0.733121 0.263599 0.158961
H10   H     H_    0.163750 0.223187 0.840789 0.146566
C13   C     C_3   0.955306 0.653157 0.050722 -0.096234
C14   C     C_3   0.041934 0.154920 0.997315 -0.106260
C15   C     C_3   0.051432 0.734841 0.774231 0.030291
C16   C     C_3   0.932404 0.248710 0.218149 0.053413
C17   C     C_3   0.057221 0.684120 0.966521 0.004413
C18   C     C_3   0.939144 0.187449 0.037846 -0.022778
H11   H     H_    0.118984 0.767892 0.732528 0.143599
H12   H     H_    0.858728 0.268101 0.260331 0.165171
C19   C     C_3   0.936496 0.811572 0.031743 0.027412
C20   C     C_3   0.059906 0.314432 0.968570 0.042926
C21   C     C_3   0.888825 0.728848 0.103295 -0.338844
C22   C     C_3   0.111449 0.229918 0.974758 -0.356902
C23   C     C_3   0.974597 0.802120 0.811270 -0.261919
C24   C     C_3   0.992311 0.328008 0.162589 -0.306355
H13   H     H_    0.003170 0.862188 0.750834 0.126845
H14   H     H_    0.945674 0.381468 0.146497 0.132455
H15   H     H_    0.916006 0.786023 0.731973 0.167209
H16   H     H_    0.031200 0.345593 0.282457 0.171664
H17   H     H_    0.927969 0.618264 0.934407 0.081092
H18   H     H_    0.054828 0.118178 0.125588 0.112154
H19   H     H_    0.824762 0.719916 0.036348 0.132745
H20   H     H_    0.151599 0.230398 0.098628 0.131344
H21   H     H_    0.565398 0.805276 0.356061 0.156612
H22   H     H_    0.435549 0.306411 0.643894 0.156292
C25   C     C_2   0.437597 0.685727 0.352033 -0.388118
C26   C     C_2   0.562713 0.186143 0.648477 -0.392294
C27   C     C_2   0.460943 0.720837 0.516487 0.029982
C28   C     C_2   0.541170 0.222587 0.484149 0.029013
H23   H     H_    0.528871 0.802383 0.805533 0.138475
H24   H     H_    0.471655 0.302132 0.194399 0.139124
C29   C     C_2   0.559466 0.820975 0.659746 -0.298402
C30   C     C_2   0.441097 0.321150 0.340087 -0.298056
C31   C     C_2   0.533275 0.785851 0.500577 -0.193711
C32   C     C_2   0.467926 0.286878 0.499446 -0.194711
H25   H     H_    0.471297 0.707191 0.210457 0.156247
H26   H     H_    0.527253 0.206326 0.789927 0.156590
C33   C     C_2   0.416170 0.696992 0.715350 0.816787
O21   O     O_2   0.457201 0.651362 0.813865 -0.559206
O22   O     O_R   0.328210 0.727949 0.789348 -0.680214
H27   H     H_    0.306277 0.708699 0.927420 0.270454
C34   C     C_2   0.589078 0.201119 0.285934 0.818130
O23   O     O_2   0.551310 0.154643 0.182798 -0.559657
O24   O     O_R   0.676065 0.235402 0.217584 -0.681354
H28   H     H_    0.700277 0.217864 0.078947 0.267205
C35   C     C_2   0.943870 0.592087 0.218557 0.710368
O25   O     O_2   0.008990 0.571503 0.298911 -0.562696
O26   O     O_R   0.855913 0.558039 0.280300 -0.663797
H29   H     H_    0.855530 0.517655 0.392105 0.291998
C36   C     C_2   0.061681 0.095211 0.827620 0.739458
O27   O     O_2   0.061852 0.118978 0.661010 -0.579510
O28   O     O_R   0.083976 0.012845 0.862117 -0.687903
H30   H     H_    0.100745 0.979912 0.737235 0.284307
N1    N     N_3   0.035223 0.684423 0.606715 -0.664774
H31   H     H_    0.998697 0.630171 0.648286 0.260457
H32   H     H_    0.099194 0.667404 0.527439 0.260905
N2    N     N_3   0.963238 0.212014 0.390424 -0.690875
H33   H     H_    0.035608 0.207701 0.372914 0.265180
H34   H     H_    0.936635 0.153081 0.422652 0.273632

loop_
_geom_bond_atom_site_label_1
_geom_bond_atom_site_label_2
_ccdc_geom_bond_type
C34   O23   D    
O26   H29   S    
C14   C36   S    
C19   C23   S    
O13   V3    S    
C36   O27   D    
O4    C2    A    
V1    O19   S    
O28   H30   S    
C5    C20   S    
C11   H5    S    
O22   H27   S    
C6    C19   S    
O9    V1    S    
C16   H12   S    
C10   C12   S    
H24   C30   S    
O3    C1    A    
C1    C25   S    
C30   C32   D    
C35   O26   S    
O12   V4    S    
C24   H14   S    
C4    C29   S    
O7    C3    A    
O13   V1    S    
O5    C7    A    
O7    V1    S    
O6    C8    A    
N1    H31   S    
O8    V2    S    
C15   C17   S    
C16   C18   S    
O3    V1    S    
O14   V4    S    
C28   C34   S    
C10   H2    S    
C12   H6    S    
C2    O12   A    
C28   C32   S    
H10   C22   S    
C13   C35   S    
C21   H19   S    
C7    C17   S    
O11   V3    S    
C29   C31   D    
O17   V3    S    
C11   C19   S    
C2    C26   S    
C23   H13   S    
H22   C32   S    
C26   C28   D    
O8    C4    A    
C35   O25   D    
C25   C27   D    
C11   H7    S    
C1    O11   A    
C12   C20   S    
O15   V3    S    
C9    H3    S    
C20   C24   S    
C15   N1    S    
C33   O21   D    
C12   H8    S    
H9    C21   S    
O10   V2    S    
O1    V3    S    
C27   C31   S    
C9    C11   S    
N2    H34   S    
H23   C29   S    
C22   H20   S    
N1    H32   S    
C16   N2    S    
C19   C21   S    
O17   C7    A    
O16   C6    A    
C23   H15   S    
H21   C31   S    
O1    C3    A    
V2    O20   S    
C3    C30   S    
O16   V4    S    
C33   O22   S    
C10   H4    S    
O18   C8    A    
C13   C17   S    
C14   C22   S    
C36   O28   S    
O18   V4    S    
O5    V1    S    
C9    C17   S    
O6    V2    S    
O10   C6    A    
C10   C18   S    
C15   C23   S    
C24   H16   S    
O2    V4    S    
C16   C24   S    
O15   C5    A    
V3    O19   S    
V4    O20   S    
C8    C18   S    
C15   H11   S    
O9    C5    A    
C9    H1    S    
C20   C22   S    
O14   V2    S    
N2    H33   S    
O2    C4    A    
O4    V2    S    
C14   C18   S    
C13   C21   S    
C34   O24   S    
C14   H18   S    
O24   H28   S    
C27   C33   S    
C13   H17   S    
C26   H26   S    
C25   H25   S    
