data_mof_unit_9562.cif
_audit_creation_date              2012-12-11T18:13:22-0500
_audit_creation_method            fapswitch 2.2
_symmetry_space_group_name_H-M    P1
_symmetry_Int_Tables_number       1
_space_group_crystal_system       triclinic
_cell_length_a                    8.163073
_cell_length_b                    12.663024
_cell_length_c                    18.747206
_cell_angle_alpha                 99.777179
_cell_angle_beta                  91.178999
_cell_angle_gamma                 98.525444
_cell_volume                      1886.55238127

loop_
_atom_site_label
_atom_site_type_symbol
_atom_type_description
_atom_site_fract_x
_atom_site_fract_y
_atom_site_fract_z
_atom_type_partial_charge
Ba1   Ba    Ba6+2 0.852780 0.548340 0.465070 1.633443
Ba2   Ba    Ba6+2 0.337060 0.451750 0.534940 1.632012
C1    C     C_3   0.581387 0.899025 0.253115 -0.415076
C2    C     C_3   0.632085 0.817887 0.297240 0.343530
C3    C     C_3   0.460474 0.273576 0.314010 0.311863
C4    C     C_3   0.436864 0.235665 0.232536 -0.402390
C5    C     C_3   0.062082 0.237655 0.735120 0.368563
C6    C     C_3   0.080566 0.212452 0.811104 -0.368406
C7    C     C_3   0.556729 0.180113 0.702321 0.348542
C8    C     C_3   0.608267 0.101010 0.747928 -0.420303
C9    C     C_R   0.997599 0.440313 0.046758 0.007444
C10   C     C_R   0.893975 0.389216 0.094180 0.030673
C11   C     C_R   0.730193 0.344000 0.070847 -0.086547
C12   C     C_3   0.129029 0.758371 0.264677 0.366042
C13   C     C_R   0.669747 0.349532 0.001429 -0.090108
C14   C     C_R   0.772321 0.399449 0.953571 0.031628
C15   C     C_R   0.936882 0.445171 0.976077 0.017872
C16   C     C_R   0.712672 0.403210 0.883535 -0.110407
C17   C     C_R   0.815482 0.450686 0.834149 -0.040916
C18   C     C_R   0.979627 0.501099 0.857371 -0.019170
C19   C     C_R   0.039746 0.496867 0.928440 -0.011934
C20   C     C_R   0.759869 0.447836 0.761874 -0.006834
C21   C     C_R   0.868294 0.490407 0.713589 -0.297047
C22   C     C_R   0.025217 0.548593 0.736089 0.044528
C23   C     C_3   0.107646 0.780597 0.188077 -0.366792
C24   C     C_R   0.081664 0.558150 0.810670 -0.034857
C25   C     C_R   0.161491 0.486457 0.069932 -0.006229
C26   C     C_R   0.219392 0.487434 0.142098 -0.006378
C27   C     C_R   0.112350 0.440587 0.191315 -0.043727
C28   C     C_R   0.953685 0.386017 0.164629 -0.043767
C29   C     C_R   0.234549 0.621128 0.841414 0.075788
C30   C     C_R   0.304266 0.599912 0.906342 0.058763
C31   C     C_R   0.204006 0.542107 0.951499 -0.011774
C32   C     C_R   0.265664 0.535338 0.021658 0.014878
C33   C     C_R   0.471155 0.640041 0.928735 -0.083854
C34   C     C_3   0.235555 0.784608 0.615144 0.279997
C35   C     C_R   0.533855 0.629233 0.996422 -0.098222
C36   C     C_R   0.430598 0.580337 0.044168 0.032601
C37   C     C_R   0.383709 0.536818 0.165027 -0.045121
C38   C     C_R   0.489216 0.578851 0.114609 -0.104936
C39   C     C_R   0.436268 0.545256 0.238232 0.000424
C40   C     C_R   0.326506 0.506218 0.287409 -0.301816
C41   C     C_R   0.167082 0.452211 0.265587 0.043983
C42   C     C_R   0.764936 0.182526 0.529038 -0.277268
C43   C     C_R   0.429871 0.806561 0.468097 -0.285329
C44   C     C_R   0.403120 0.983734 0.443359 -0.106211
C45   C     C_3   0.256655 0.907595 0.630929 -0.358173
C46   C     C_R   0.338808 0.875096 0.438926 -0.013487
C47   C     C_R   0.578583 0.847725 0.508341 0.069852
C48   C     C_R   0.643141 0.959995 0.516219 -0.058520
C49   C     C_R   0.554675 0.027973 0.481920 -0.061614
C50   C     C_R   0.617991 0.139215 0.488684 0.045333
C51   C     C_R   0.856962 0.116324 0.559640 -0.012796
C52   C     C_R   0.794073 0.006488 0.555832 -0.094035
C53   C     C_3   0.961035 0.212794 0.381053 0.279264
C54   C     C_3   0.944993 0.090074 0.364478 -0.353818
C55   C     C_3   0.733525 0.710750 0.683142 0.312313
C56   C     C_3   0.778952 0.755204 0.762898 -0.420937
H1    H     H_    0.724844 0.860674 0.340683 0.078709
H2    H     H_    0.350381 0.938841 0.675979 0.110331
H3    H     H_    0.298155 0.941810 0.582801 0.083971
H4    H     H_    0.136884 0.934287 0.646600 0.145828
H5    H     H_    0.842008 0.236579 0.398540 0.002686
H6    H     H_    0.057343 0.243120 0.425176 0.083510
H7    H     H_    0.848251 0.057580 0.320860 0.114357
H8    H     H_    0.909859 0.055188 0.413196 0.087951
H9    H     H_    0.065008 0.065857 0.346658 0.142191
H10   H     H_    0.841436 0.679231 0.657602 0.020539
H11   H     H_    0.626869 0.644250 0.678832 0.059572
H12   H     H_    0.529908 0.964077 0.288962 0.103920
H13   H     H_    0.896248 0.813520 0.768273 0.127352
H14   H     H_    0.795244 0.688509 0.792486 0.058010
H15   H     H_    0.679384 0.797685 0.788055 0.118808
H16   H     H_    0.520199 0.783995 0.323312 -0.048454
H17   H     H_    0.485672 0.857347 0.210681 0.114494
H18   H     H_    0.342490 0.296741 0.335009 0.017709
H19   H     H_    0.559887 0.345151 0.324545 0.058855
H20   H     H_    0.333548 0.166618 0.220271 0.128536
H21   H     H_    0.407219 0.302670 0.205789 0.057022
H22   H     H_    0.552398 0.209273 0.210558 0.117663
H23   H     H_    0.690108 0.935602 0.226222 0.130776
H24   H     H_    0.147612 0.714636 0.148639 0.070358
H25   H     H_    0.141978 0.315838 0.732703 0.091616
H26   H     H_    0.930785 0.245747 0.724712 -0.075329
H27   H     H_    0.212583 0.209567 0.824818 0.149118
H28   H     H_    0.036823 0.276032 0.851085 0.071513
H29   H     H_    0.005722 0.132892 0.814490 0.110875
H30   H     H_    0.668516 0.213873 0.676000 -0.054010
H31   H     H_    0.465529 0.135485 0.658820 0.081534
H32   H     H_    0.701517 0.144619 0.790880 0.114683
H33   H     H_    0.663131 0.036354 0.713228 0.095025
H34   H     H_    0.048608 0.681136 0.268715 0.094582
H35   H     H_    0.499115 0.063548 0.774156 0.129577
H36   H     H_    0.647950 0.305356 0.106607 0.062099
H37   H     H_    0.542441 0.314495 0.985111 0.071124
H38   H     H_    0.826346 0.482317 0.657528 0.066783
H39   H     H_    0.585507 0.367943 0.868185 0.108915
H40   H     H_    0.872497 0.343474 0.198706 0.098012
H41   H     H_    0.554107 0.679977 0.893780 0.070040
H42   H     H_    0.662162 0.662194 0.012261 0.072654
H43   H     H_    0.616702 0.613618 0.129873 0.108836
H44   H     H_    0.260221 0.749403 0.274248 -0.075140
H45   H     H_    0.367938 0.514985 0.343593 0.073178
H46   H     H_    0.329654 0.032837 0.418389 0.102228
H47   H     H_    0.866664 0.958984 0.582594 0.105075
H48   H     H_    0.813450 0.267695 0.532782 0.064368
H49   H     H_    0.378968 0.721674 0.463616 0.070492
H50   H     H_    0.975589 0.784749 0.175380 0.150927
H51   H     H_    0.184014 0.858784 0.182676 0.110019
H52   H     H_    0.355090 0.758413 0.600900 0.008415
H53   H     H_    0.142820 0.754930 0.569424 0.085063
O1    O     O_2   0.873090 0.425890 0.325140 -0.465675
O2    O     O_3   0.691350 0.794844 0.650344 -0.643332
O3    O     O_3   0.084119 0.844486 0.314260 -0.598860
O4    O     O_2   0.316610 0.574140 0.674900 -0.464747
O5    O     O_3   0.067290 0.565720 0.585630 -0.493908
O6    O     O_3   0.530210 0.372990 0.631200 -0.465549
O7    O     O_3   0.184219 0.747127 0.677993 -0.648749
O8    O     O_3   0.611340 0.366290 0.463630 -0.477622
O9    O     O_3   0.108550 0.314140 0.595200 -0.484567
O10   O     O_2   0.197569 0.121220 0.551538 -0.482160
O11   O     O_3   0.110532 0.153481 0.685098 -0.598502
O12   O     O_3   0.122420 0.434370 0.414380 -0.495787
O13   O     O_3   0.578370 0.633800 0.536380 -0.488524
O14   O     O_2   0.341510 0.231850 0.465510 -0.468071
O15   O     O_3   0.504360 0.188647 0.345838 -0.650831
O16   O     O_2   0.417832 0.455988 0.757173 -0.494582
O17   O     O_3   0.481397 0.258624 0.746846 -0.597275
O18   O     O_3   0.659500 0.627100 0.368810 -0.473880
O19   O     O_2   0.779336 0.545775 0.244304 -0.497275
O20   O     O_3   0.001970 0.252997 0.317817 -0.639718
O21   O     O_3   0.704227 0.739398 0.251309 -0.598736
O22   O     O_2   0.848200 0.768190 0.534530 -0.473428
O23   O     O_3   0.081160 0.685950 0.404810 -0.487997
O24   O     O_2   0.000300 0.879589 0.449090 -0.485920
P1    P     P_3+3 0.041040 0.394770 0.336330 0.972315
P2    P     P_3+3 0.672880 0.754030 0.556100 0.969697
P3    P     P_3+3 0.126709 0.823370 0.402237 0.947579
P4    P     P_3+3 0.148670 0.605320 0.663680 0.971094
P5    P     P_3+3 0.067383 0.175110 0.597352 0.951550
P6    P     P_3+3 0.644492 0.611807 0.274882 0.949919
P7    P     P_3+3 0.522497 0.229937 0.439942 0.933859
P8    P     P_3+3 0.548112 0.386668 0.725219 0.950161
C57   C     C_3   0.295838 0.729940 0.820853 -0.364828
H54   H     H_    0.188949 0.767122 0.805292 0.128385
H55   H     H_    0.356594 0.789000 0.867978 0.078852
H56   H     H_    0.387735 0.722951 0.778475 0.149609

loop_
_geom_bond_atom_site_label_1
_geom_bond_atom_site_label_2
_ccdc_geom_bond_type
O24   P3    D    
C5    H25   S    
C53   C54   S    
O22   P2    D    
C47   P2    S    
O12   P1    S    
C51   P5    S    
C39   C40   A    
C17   C18   A    
C40   H45   S    
C45   H4    S    
O6    P8    S    
C4    H21   S    
C5    C6    S    
C37   C39   A    
C51   C52   A    
C48   C52   A    
Ba2   P4    S    
O10   P5    D    
C26   C27   A    
C33   C35   A    
C22   C24   A    
C6    H27   S    
Ba1   O18   S    
C7    H30   S    
C13   H37   S    
C3    C4    S    
C33   H41   S    
C56   H13   S    
C12   H44   S    
O18   P6    S    
C13   C14   A    
C21   H38   S    
C34   C45   S    
Ba1   Ba2   S    
Ba1   O8    S    
C29   C57   S    
O19   P6    D    
C45   H2    S    
Ba2   O5    S    
C42   C51   A    
C14   C15   A    
C53   H5    S    
C20   P8    S    
C1    H23   S    
C21   C22   A    
O9    P5    S    
C16   H39   S    
C9    C25   A    
Ba1   P1    S    
C1    H17   S    
C7    C8    S    
C2    H16   S    
C23   H51   S    
O5    P4    S    
C42   C50   A    
C5    H26   S    
C38   H43   S    
C24   C29   A    
C25   C32   A    
C27   C41   A    
O1    P1    D    
C57   H56   S    
Ba1   O22   S    
Ba2   O6    S    
C48   C49   A    
C22   P4    S    
C44   C46   A    
C7    O17   S    
C49   C50   A    
C30   C33   A    
O13   P2    S    
C17   C20   A    
C57   H55   S    
O20   P1    S    
C7    H31   S    
C37   C38   A    
Ba2   O9    S    
C16   C17   A    
C55   O2    S    
C26   C37   A    
Ba2   O12   S    
C44   H46   S    
C44   C49   A    
O15   P7    S    
C50   P7    S    
C1    C2    S    
C3    O15   S    
Ba1   O12   S    
C39   P6    S    
C35   C36   A    
Ba2   O4    S    
C56   H15   S    
C4    H22   S    
C29   C30   A    
C43   C47   A    
O14   P7    D    
Ba2   O8    S    
C53   H6    S    
C1    H12   S    
C34   H53   S    
C31   C32   A    
O16   P8    D    
C10   C11   A    
C12   H34   S    
Ba1   O5    S    
O4    P4    D    
C8    H33   S    
Ba2   O13   S    
C11   C13   A    
C34   H52   S    
C23   H24   S    
O2    P2    S    
C40   C41   A    
C5    O11   S    
C3    H19   S    
O7    P4    S    
Ba1   O23   S    
Ba1   P2    S    
C43   C46   A    
O21   P6    S    
C9    C15   A    
C52   H47   S    
C10   C28   A    
C32   C36   A    
C57   H54   S    
C45   H3    S    
C9    C10   A    
C42   H48   S    
O23   P3    S    
C54   H9    S    
C28   H40   S    
C53   O20   S    
C8    H35   S    
C46   P3    S    
C11   H36   S    
C6    H29   S    
C30   C31   A    
C3    H18   S    
Ba1   O13   S    
O11   P5    S    
Ba1   O1    S    
C12   O3    S    
C36   C38   A    
C2    O21   S    
C56   H14   S    
C55   C56   S    
C18   C24   A    
C54   H8    S    
C2    H1    S    
C6    H28   S    
O3    P3    S    
C12   C23   S    
C41   P1    S    
O17   P8    S    
C15   C19   A    
C4    H20   S    
C27   C28   A    
Ba2   O14   S    
C43   H49   S    
C19   C31   A    
C18   C19   A    
C8    H32   S    
C14   C16   A    
C47   C48   A    
C25   C26   A    
O8    P7    S    
C20   C21   A    
C34   O7    S    
C55   H10   S    
C55   H11   S    
C35   H42   S    
C54   H7    S    
C23   H50   S    
