data_mof_unit_37014.cif
_audit_creation_date              2012-10-26T19:02:38-0400
_audit_creation_method            fapswitch 2.2
_symmetry_space_group_name_H-M    P1
_symmetry_Int_Tables_number       1
_space_group_crystal_system       triclinic
_cell_length_a                    17.158939
_cell_length_b                    8.688637
_cell_length_c                    7.456775
_cell_angle_alpha                 103.089153
_cell_angle_beta                  89.373929
_cell_angle_gamma                 92.848532
_cell_volume                      1081.49251487

loop_
_atom_site_label
_atom_site_type_symbol
_atom_type_description
_atom_site_fract_x
_atom_site_fract_y
_atom_site_fract_z
_atom_type_partial_charge
C1    C     C_R   0.497651 0.199818 0.453613 0.545647
C2    C     C_R   0.783948 0.573995 0.577523 -0.135607
C3    C     C_R   0.139103 0.551551 0.464276 -0.100778
C4    C     C_R   0.863637 0.553232 0.560012 -0.099931
C5    C     C_R   0.105052 0.442136 0.558698 0.051486
C6    C     C_R   0.892478 0.435361 0.416775 0.053405
C7    C     C_R   0.152821 0.363377 0.656459 -0.132678
C8    C     C_R   0.840919 0.346727 0.283799 -0.134973
C9    C     C_R   0.233534 0.388142 0.652803 -0.132769
C10   C     C_R   0.761318 0.371068 0.298105 -0.132787
C11   C     C_2   0.019351 0.412257 0.558157 0.151508
C12   C     C_R   0.502336 0.800183 0.546391 0.547026
C13   C     C_2   0.976888 0.407148 0.403829 0.151347
C14   C     C_3   0.041641 0.228355 0.156147 -0.314668
C15   C     C_3   0.947134 0.242663 0.725509 -0.314526
C16   C     C_2   0.496522 0.031819 0.427653 -0.158636
C17   C     C_2   0.503452 0.968189 0.572354 -0.158592
C18   C     C_R   0.351192 0.500789 0.527485 0.542480
C19   C     C_R   0.648827 0.496316 0.472073 0.542007
C20   C     C_R   0.267048 0.489311 0.548264 0.020560
C21   C     C_R   0.732552 0.482219 0.447395 0.017930
C22   C     C_R   0.219740 0.571891 0.455234 -0.134449
Cu1   Cu    Cu3+1 0.508700 0.517250 0.683000 0.953847
Cu2   Cu    Cu3+1 0.491300 0.482750 0.317000 0.953139
H1    H     H_    0.245236 0.652105 0.376234 0.118026
H2    H     H_    0.509986 0.039862 0.711736 0.133904
H3    H     H_    0.439088 0.379517 0.959025 0.237941
H4    H     H_    0.560899 0.620505 0.040974 0.239766
H5    H     H_    0.982527 0.425760 0.132271 0.246749
H6    H     H_    0.072797 0.225736 0.024449 0.137627
H7    H     H_    0.991942 0.139259 0.130708 0.126229
H8    H     H_    0.083103 0.196553 0.253580 0.166322
H9    H     H_    0.014313 0.445934 0.841902 0.246171
H10   H     H_    0.993178 0.155202 0.710925 0.125552
H11   H     H_    0.904465 0.203981 0.611462 0.166288
H12   H     H_    0.762423 0.661913 0.691958 0.115481
H13   H     H_    0.915618 0.245972 0.856847 0.138130
H14   H     H_    0.721952 0.299033 0.196767 0.126450
H15   H     H_    0.269899 0.323456 0.724995 0.113615
H16   H     H_    0.127979 0.279979 0.731730 0.108101
H17   H     H_    0.861861 0.256339 0.171550 0.105927
H18   H     H_    0.902668 0.628146 0.659637 0.126691
H19   H     H_    0.103404 0.619774 0.395288 0.129529
H20   H     H_    0.489988 0.960148 0.288272 0.134470
N1    N     N_2   0.478180 0.456750 0.041980 -0.257078
N2    N     N_2   0.521820 0.543250 0.958020 -0.256935
N3    N     N_2   0.013668 0.384919 0.227698 -0.545779
N4    N     N_2   0.981616 0.398291 0.725836 -0.544204
O1    O     O_R   0.505650 0.286040 0.618880 -0.506253
O2    O     O_R   0.494350 0.713960 0.381120 -0.505457
O3    O     O_R   0.490960 0.256910 0.309800 -0.499099
O4    O     O_R   0.509040 0.743090 0.690200 -0.498105
O5    O     O_R   0.394600 0.516230 0.672450 -0.505317
O6    O     O_R   0.605400 0.483770 0.327550 -0.507840
O7    O     O_R   0.379910 0.487100 0.363380 -0.498177
O8    O     O_R   0.620090 0.512900 0.636620 -0.498710

loop_
_geom_bond_atom_site_label_1
_geom_bond_atom_site_label_2
_ccdc_geom_bond_type
C19   O8    A    
C12   C17   S    
C2    C4    A    
C7    H16   S    
Cu1   O5    S    
C14   N3    S    
C1    O3    A    
C15   H11   S    
C16   H20   S    
C15   H10   S    
C12   O2    A    
C14   H7    S    
C10   H14   S    
H4    N2    S    
H3    N1    S    
Cu2   O3    S    
C11   N4    S    
C3    C5    A    
Cu1   O8    S    
C1    C16   S    
N1    N2    D    
Cu2   O7    S    
C11   C13   D    
C3    H19   S    
Cu1   O4    S    
C4    H18   S    
C15   N4    S    
C2    C21   A    
C17   H2    S    
C18   O7    A    
C19   O6    A    
C8    C10   A    
C12   O4    A    
H5    N3    S    
C5    C11   S    
C18   C20   S    
C10   C21   A    
Cu2   O2    S    
Cu1   O1    S    
Cu2   N1    S    
Cu1   Cu2   S    
Cu2   O6    S    
C7    C9    A    
C9    H15   S    
Cu1   N2    S    
C14   H8    S    
C8    H17   S    
C4    C6    A    
C2    H12   S    
C5    C7    A    
H9    N4    S    
C15   H13   S    
C3    C22   A    
C6    C8    A    
C9    C20   A    
C18   O5    A    
C19   C21   S    
C14   H6    S    
C13   N3    S    
C20   C22   A    
C16   C17   D    
C6    C13   S    
C22   H1    S    
C1    O1    A    
