data_mof_unit_11598.cif
_audit_creation_date              2012-12-10T17:48:21-0500
_audit_creation_method            fapswitch 2.2
_symmetry_space_group_name_H-M    P1
_symmetry_Int_Tables_number       1
_space_group_crystal_system       triclinic
_cell_length_a                    13.913262
_cell_length_b                    15.063362
_cell_length_c                    14.95453
_cell_angle_alpha                 115.780812
_cell_angle_beta                  107.640427
_cell_angle_gamma                 71.115007
_cell_volume                      2621.41755742

loop_
_atom_site_label
_atom_site_type_symbol
_atom_type_description
_atom_site_fract_x
_atom_site_fract_y
_atom_site_fract_z
_atom_type_partial_charge
C1    C     C_R   0.517097 0.118379 0.687474 0.827604
C2    C     C_R   0.485198 0.881482 0.312356 0.808094
C3    C     C_R   0.520452 0.359317 0.921330 0.056992
C4    C     C_R   0.495595 0.641017 0.076882 0.070936
C5    C     C_R   0.543076 0.319665 0.998809 0.137065
C6    C     C_R   0.474648 0.681047 0.000353 0.133554
C7    C     C_R   0.503890 0.466775 0.947438 0.082082
C8    C     C_R   0.513271 0.533501 0.050653 0.091256
C9    C     C_R   0.539837 0.490459 0.124624 -0.206638
C10   C     C_R   0.477842 0.510153 0.873742 -0.181741
C11   C     C_R   0.552040 0.387885 0.099230 -0.132409
C12   C     C_R   0.464823 0.613261 0.899658 -0.106482
C13   C     C_R   0.329757 0.295253 0.326957 0.285110
C14   C     C_R   0.658435 0.715120 0.686344 0.296321
C15   C     C_R   0.354693 0.215288 0.359290 0.459059
C16   C     C_R   0.639583 0.789317 0.646268 0.464620
C17   C     C_R   0.490497 0.282875 0.487859 0.119381
C18   C     C_R   0.513472 0.713899 0.510821 0.051424
C19   C     C_R   0.468306 0.371268 0.463321 -0.129558
C20   C     C_R   0.536856 0.627790 0.540806 -0.126462
C21   C     C_R   0.383291 0.375750 0.380311 -0.104847
C22   C     C_R   0.609963 0.631275 0.632174 -0.089123
C23   C     C_R   0.686822 0.985777 0.503969 0.819445
C24   C     C_R   0.313172 0.014345 0.496216 0.827942
C25   C     C_R   0.523221 0.454379 0.515364 0.064320
C26   C     C_R   0.487292 0.541114 0.488278 0.052944
C27   C     C_R   0.401339 0.539693 0.409740 -0.267180
C28   C     C_R   0.607782 0.460304 0.597204 -0.237168
C29   C     C_R   0.353604 0.460648 0.353904 0.433391
C30   C     C_R   0.634148 0.550426 0.664511 0.437788
C31   C     C_1   0.207091 0.024377 0.494450 -0.020462
C32   C     C_1   0.792912 0.975999 0.506005 -0.058031
C33   C     C_2   0.012348 0.037055 0.493072 -0.020847
C34   C     C_2   0.987676 0.963818 0.508106 -0.035414
C35   C     C_1   0.881820 0.969318 0.507239 0.008949
C36   C     C_1   0.118168 0.031218 0.493584 0.003602
C37   C     C_R   0.527592 0.186284 0.794776 -0.044762
C38   C     C_R   0.481372 0.813984 0.204656 -0.040607
C39   C     C_R   0.557292 0.213084 0.972793 -0.008920
C40   C     C_R   0.461336 0.787740 0.027478 -0.009428
C41   C     C_R   0.547229 0.148822 0.870640 -0.238618
C42   C     C_R   0.466880 0.851816 0.130009 -0.228562
C43   C     C_R   0.514559 0.289709 0.820916 -0.179602
C44   C     C_R   0.496065 0.710141 0.176990 -0.212181
Cu1   Cu    Cu3+1 0.526370 0.916390 0.524860 1.040294
Cu2   Cu    Cu3+1 0.473630 0.083610 0.475140 1.035415
H1    H     H_    0.357981 0.602205 0.392477 0.213221
H2    H     H_    0.663559 0.398796 0.612197 0.168309
H3    H     H_    0.568704 0.365633 0.162579 0.216293
H4    H     H_    0.444500 0.636550 0.836675 0.220806
H5    H     H_    0.507291 0.684174 0.235929 0.139196
H6    H     H_    0.498429 0.315399 0.760230 0.211311
H7    H     H_    0.458122 0.932426 0.151966 0.177564
H8    H     H_    0.556288 0.068326 0.849658 0.185982
H9    H     H_    0.553695 0.533800 0.204680 0.137590
H10   H     H_    0.465584 0.466649 0.793634 0.166236
N1    N     N_R   0.433980 0.209250 0.437830 -0.268658
N2    N     N_R   0.566020 0.790750 0.562170 -0.265666
O1    O     O_R   0.534760 0.019630 0.662610 -0.547250
O2    O     O_R   0.465240 0.980370 0.337390 -0.538040
O3    O     O_R   0.490220 0.160840 0.620610 -0.554025
O4    O     O_R   0.509780 0.839160 0.379390 -0.619571
O5    O     O_R   0.663260 0.919400 0.523940 -0.536685
O6    O     O_R   0.336740 0.080600 0.476060 -0.548098
O7    O     O_R   0.618720 0.060610 0.481950 -0.580290
O8    O     O_R   0.381280 0.939390 0.518050 -0.518322
C45   C     C_2   0.065151 0.873971 0.525031 0.443987
H11   H     H_    0.037896 0.813768 0.525474 0.089732
O9    O     O_2   0.158091 0.865592 0.541198 -0.475595
C46   C     C_2   0.934725 0.126530 0.475752 0.412074
H12   H     H_    0.961993 0.185308 0.471639 0.094516
O10   O     O_2   0.841935 0.136893 0.462983 -0.543837
Cl1   Cl    Cl    0.233849 0.284294 0.215176 -0.408902
Cl2   Cl    Cl    0.745370 0.732002 0.804701 -0.411755
C47   C     C_2   0.582022 0.160875 0.045757 0.419648
H13   H     H_    0.583857 0.080378 0.015527 0.093307
O11   O     O_2   0.603539 0.203256 0.137306 -0.541833
C48   C     C_2   0.441643 0.839811 0.955396 0.431992
H14   H     H_    0.430566 0.921787 0.985894 0.084300
O12   O     O_2   0.438222 0.795567 0.864381 -0.529289
Cl3   Cl    Cl    0.250412 0.485124 0.256831 -0.472359
Cl4   Cl    Cl    0.694965 0.551283 0.788658 -0.477894
C49   C     C_2   0.433688 0.725158 0.424532 0.509021
H15   H     H_    0.449323 0.682127 0.349078 0.007038
O13   O     O_2   0.345216 0.770189 0.435667 -0.484785
C50   C     C_2   0.586934 0.253070 0.550730 0.383176
H16   H     H_    0.663534 0.264880 0.605948 0.253531
O14   O     O_2   0.596860 0.277211 0.640563 -0.658190
Cl5   Cl    Cl    0.714485 0.882073 0.707445 -0.506419
Cl6   Cl    Cl    0.283306 0.119591 0.295336 -0.499919

loop_
_geom_bond_atom_site_label_1
_geom_bond_atom_site_label_2
_ccdc_geom_bond_type
C7    C10   A    
C37   C43   A    
C27   C29   A    
C4    C8    A    
C7    C8    A    
C39   C41   A    
Cu1   Cu2   S    
C25   C28   A    
C38   C44   A    
C3    C43   A    
C26   C27   A    
C14   Cl2   S    
C19   C21   A    
C5    C11   A    
C3    C7    A    
C1    O1    A    
C42   H7    S    
C6    C12   A    
C2    O2    A    
C43   H6    S    
Cu1   O4    S    
C33   C36   S    
C34   C35   S    
C18   N2    A    
Cu1   O1    S    
C8    C9    A    
C46   H12   S    
C9    H9    S    
C39   C47   S    
C10   H10   S    
C18   C20   A    
C1    C37   S    
C40   C42   A    
C16   Cl5   S    
C24   O6    A    
C15   N1    A    
C18   C49   S    
Cu2   O3    S    
C23   O5    A    
Cu1   N2    S    
C50   O14   D    
C45   H11   S    
C32   C35   T    
Cu2   O7    S    
C4    C6    A    
C48   H14   S    
C4    C44   A    
C25   C26   A    
C21   C29   A    
Cu1   O5    S    
C17   C50   S    
Cu2   O6    S    
C45   O9    D    
C30   Cl4   S    
C47   H13   S    
C29   Cl3   S    
C11   H3    S    
C9    C11   A    
C2    C38   S    
C49   H15   S    
C33   C34   D    
C48   O12   D    
C13   C21   A    
C16   N2    A    
C47   O11   D    
C10   C12   A    
C33   C46   S    
C40   C48   S    
C49   O13   D    
C13   Cl1   S    
C13   C15   A    
Cu2   N1    S    
C14   C16   A    
C44   H5    S    
C27   H1    S    
C28   H2    S    
C22   C30   A    
Cu2   O2    S    
C50   H16   S    
C20   C22   A    
C3    C5    A    
C1    O3    A    
C34   C45   S    
C12   H4    S    
C38   C42   A    
C24   O8    A    
C23   C32   S    
C23   O7    A    
C5    C39   A    
C24   C31   S    
C15   Cl6   S    
C14   C22   A    
C20   C26   A    
C28   C30   A    
C17   C19   A    
C6    C40   A    
C37   C41   A    
C19   C25   A    
C41   H8    S    
Cu1   O8    S    
C31   C36   T    
C46   O10   D    
C2    O4    A    
C17   N1    A    
