data_mof_unit_37233.cif
_audit_creation_date              2013-03-05T15:53:43-0500
_audit_creation_method            fapswitch 2.2
_symmetry_space_group_name_H-M    P1
_symmetry_Int_Tables_number       1
_space_group_crystal_system       triclinic
_cell_length_a                    14.860123
_cell_length_b                    14.767361
_cell_length_c                    16.974902
_cell_angle_alpha                 108.858997
_cell_angle_beta                  106.079762
_cell_angle_gamma                 107.955741
_cell_volume                      3045.81364211

loop_
_atom_site_label
_atom_site_type_symbol
_atom_site_description
_atom_site_fract_x
_atom_site_fract_y
_atom_site_fract_z
_atom_type_partial_charge
C1    C     C_R   0.094800 0.277327 0.028478 -0.124536
H1    H     H_    0.176630 0.296489 0.055812 0.114043
N1    N     N_R   0.055640 0.348550 0.045600 -0.048232
C2    C     C_R   0.937073 0.453035 0.735249 -0.120104
H2    H     H_    0.858699 0.404638 0.682771 0.095910
N2    N     N_R   0.960830 0.507850 0.823710 -0.039866
C3    C     C_R   0.718879 0.216233 0.822889 0.313575
N3    N     N_R   0.811290 0.303400 0.871650 -0.087418
C4    C     C_R   0.300986 0.595415 0.003681 -0.159050
H3    H     H_    0.328330 0.660961 0.987682 0.111257
N4    N     N_R   0.205180 0.552990 0.997660 -0.040979
C5    C     C_R   0.727559 0.314495 0.748642 -0.210261
H4    H     H_    0.704927 0.355298 0.709814 0.120229
N5    N     N_R   0.814810 0.361830 0.823710 -0.059627
C6    C     C_R   0.296376 0.498429 0.079520 -0.137826
H5    H     H_    0.320281 0.471855 0.130602 0.090325
N6    N     N_R   0.201660 0.494570 0.045600 -0.041465
C7    C     C_R   0.110877 0.537433 0.812318 -0.132657
H6    H     H_    0.193465 0.566163 0.830892 0.098831
N7    N     N_R   0.068420 0.560530 0.871650 -0.044287
C8    C     C_R   0.921846 0.192088 0.949933 -0.088107
H7    H     H_    0.844348 0.132029 0.902682 0.150825
N8    N     N_R   0.948050 0.295860 0.997660 -0.036049
C9    C     C_R   0.012609 0.177785 0.966610 0.030805
C10   C     C_R   0.030036 0.468145 0.725779 0.059604
C11   C     C_R   0.663911 0.221349 0.744569 -0.058768
C12   C     C_R   0.360912 0.562440 0.054562 0.086571
C13   C     C_R   0.223652 0.705601 0.265356 0.060018
N9    N     N_R   0.185190 0.638170 0.176290 -0.046723
C14   C     C_R   0.752403 0.567799 0.977272 -0.151393
H8    H     H_    0.749077 0.625907 0.953328 0.123644
N10   N     N_R   0.798340 0.505430 0.954400 -0.045075
C15   C     C_R   0.892035 0.395111 0.175923 -0.124824
H9    H     H_    0.812057 0.337551 0.148560 0.131954
N11   N     N_R   0.931580 0.439470 0.128350 -0.040835
C16   C     C_R   0.082563 0.799329 0.000926 0.025731
N12   N     N_R   0.051950 0.704140 0.002340 -0.054916
C17   C     C_R   0.912307 0.717445 0.928728 -0.164020
H10   H     H_    0.834469 0.693981 0.880880 0.105094
N13   N     N_R   0.944360 0.651450 0.954400 -0.045681
C18   C     C_R   0.063993 0.475832 0.250686 -0.129017
H11   H     H_    0.141512 0.488914 0.289743 0.106139
N14   N     N_R   0.039170 0.492150 0.176290 -0.044670
C19   C     C_R   0.222101 0.798253 0.185403 -0.166110
H12   H     H_    0.228582 0.861427 0.165862 0.126066
N15   N     N_R   0.188710 0.696600 0.128350 -0.048589
C20   C     C_R   0.743739 0.470348 0.053752 -0.062448
H13   H     H_    0.729169 0.435640 0.098574 0.100594
N16   N     N_R   0.794820 0.447010 0.002340 -0.036049
Ni1   Ni    Ni4+2 0.119330 0.493420 0.109950 0.211693
Ni2   Ni    Ni4+2 0.880670 0.506580 0.890050 0.202344
Ni3   Ni    Ni4+2 0.872590 0.372590 0.000000 0.292766
Ni4   Ni    Ni4+2 0.127410 0.627410 0.000000 0.202938
C21   C     C_R   0.244965 0.807731 0.272848 0.014602
C22   C     C_R   0.717086 0.548103 0.040014 0.043435
C23   C     C_R   0.973539 0.416303 0.253392 0.041619
C24   C     C_R   0.997038 0.812235 0.957183 0.066219
C25   C     C_R   0.526084 0.658766 0.048076 0.134720
C26   C     C_R   0.473496 0.601078 0.085664 0.041619
C27   C     C_R   0.528890 0.566946 0.142059 -0.194467
H14   H     H_    0.495322 0.529410 0.178753 0.128515
C28   C     C_R   0.621448 0.564879 0.139161 -0.178431
H15   H     H_    0.655602 0.525930 0.173893 0.128967
C29   C     C_R   0.657237 0.595726 0.079045 0.022474
C30   C     C_R   0.617231 0.656461 0.044877 0.136613
C31   C     C_3   0.588463 0.656915 0.952850 -0.196159
C32   C     C_3   0.489069 0.659851 0.957004 -0.574759
H16   H     H_    0.574120 0.582968 0.895614 0.158811
H17   H     H_    0.483824 0.735106 0.962912 0.205054
H18   H     H_    0.418892 0.585941 0.903417 0.194807
C33   C     C_R   0.967054 0.375755 0.321158 0.130377
C34   C     C_R   0.039997 0.424886 0.639251 0.126987
C35   C     C_R   0.144777 0.442836 0.553535 -0.216827
C36   C     C_R   0.138007 0.459015 0.636625 -0.164599
C37   C     C_R   0.949908 0.360592 0.556833 -0.275019
C38   C     C_R   0.955634 0.349740 0.474149 0.184395
C39   C     C_R   0.053637 0.395486 0.473307 0.184545
C40   C     C_R   0.058659 0.404585 0.395541 -0.273360
C41   C     C_R   0.869939 0.320106 0.318843 -0.163026
C42   C     C_R   0.864394 0.305532 0.394637 -0.220110
H19   H     H_    0.134486 0.444550 0.398042 0.117623
H20   H     H_    0.797854 0.293975 0.261526 0.128827
H21   H     H_    0.220694 0.476253 0.553418 0.131198
H22   H     H_    0.788624 0.268632 0.393933 0.130730
H23   H     H_    0.209327 0.504731 0.698609 0.119191
H24   H     H_    0.873946 0.328610 0.556828 0.117861
C43   C     C_R   0.557651 0.154150 0.673052 0.121433
C44   C     C_R   0.299094 0.909648 0.354571 0.130523
C45   C     C_R   0.437363 0.087477 0.429868 -0.223119
C46   C     C_R   0.364382 0.998278 0.350391 -0.158647
C47   C     C_R   0.296352 0.917619 0.438360 -0.281311
C48   C     C_R   0.373892 0.005010 0.519216 0.171382
C49   C     C_R   0.447684 0.086960 0.513693 0.186536
C50   C     C_R   0.537868 0.160334 0.590005 -0.274293
C51   C     C_R   0.478320 0.082388 0.682192 -0.076799
C52   C     C_R   0.386331 0.007085 0.604843 -0.231869
H25   H     H_    0.597105 0.215194 0.580887 0.122833
H26   H     H_    0.487471 0.082170 0.747386 0.208870
H27   H     H_    0.492472 0.151739 0.425512 0.127715
H28   H     H_    0.328517 0.947054 0.610971 0.153710
H29   H     H_    0.366771 0.996144 0.286772 0.127282
H30   H     H_    0.240665 0.853110 0.441484 0.125105
C53   C     C_R   0.117486 0.081171 0.923330 0.132348
C54   C     C_R   0.021127 0.079157 0.919012 0.057562
C55   C     C_R   0.931893 0.980631 0.862161 -0.197703
H31   H     H_    0.855984 0.972409 0.859168 0.147474
C56   C     C_R   0.938616 0.893270 0.802617 -0.162440
H32   H     H_    0.868677 0.820585 0.755228 0.133189
C57   C     C_R   0.034189 0.902412 0.799437 -0.017881
C58   C     C_R   0.123619 0.994114 0.865347 0.050709
C59   C     C_3   0.211560 0.062735 0.853930 0.219319
C60   C     C_3   0.205266 0.158544 0.917417 -0.635474
H33   H     H_    0.191729 0.053153 0.782584 0.073320
H34   H     H_    0.274216 0.208691 0.984520 0.229071
H35   H     H_    0.179489 0.203810 0.882325 0.189971
N17   N     N_3   0.185729 0.860662 0.013609 -0.201342
H36   H     H_    0.180532 0.866165 0.952788 0.148039
H37   H     H_    0.228950 0.817468 0.020686 0.105686
N18   N     N_3   0.659514 0.754226 0.956786 -0.211918
H38   H     H_    0.668273 0.821410 0.010167 0.148135
H39   H     H_    0.625680 0.757405 0.895516 0.142068
N19   N     N_R   0.675988 0.147945 0.859627 0.211116
O1    O     O_R   0.697366 0.186946 0.946660 -0.417529
O2    O     O_R   0.634213 0.045259 0.811117 -0.429565
N20   N     N_R   0.307968 0.054743 0.893677 0.259014
O3    O     O_R   0.362499 0.041296 0.846572 -0.391691
O4    O     O_R   0.339451 0.059421 0.975151 -0.398738
N21   N     N_3   0.257378 0.678411 0.338102 -0.227728
H40   H     H_    0.335293 0.731741 0.381263 0.114979
H41   H     H_    0.212785 0.686709 0.375442 0.096854

loop_
_geom_bond_atom_site_label_1
_geom_bond_atom_site_label_2
_geom_bond_distance
_ccdc_geom_bond_type
C17   N13   1.346246 A    
C49   C50   1.372475 A    
C18   N14   1.335086 A    
C35   C36   1.390007 A    
N1    N8    1.388069 A    
C51   C52   1.397765 A    
C42   H22   1.083928 S    
N21   H40   1.045192 S    
C60   H34   1.111765 S    
C2    C10   1.392892 A    
C51   H26   1.078151 S    
C3    N3    1.348899 A    
C46   H29   1.080928 S    
C39   C40   1.388983 A    
C55   C56   1.410089 A    
C13   N9    1.342080 A    
C3    C11   1.393495 A    
C45   H27   1.084621 S    
C53   C58   1.390583 A    
C16   N12   1.347994 A    
C7    H6    1.078766 S    
N12   N13   1.388070 A    
C17   H10   1.080821 S    
C31   H16   1.112536 S    
C6    H5    1.080439 S    
C43   C50   1.397226 A    
C48   C52   1.402379 A    
N17   H36   1.045186 S    
C27   C28   1.399113 A    
C1    H1    1.079086 S    
C18   H11   1.077384 S    
C58   C59   1.490969 S    
C28   C29   1.408378 A    
C37   H24   1.080956 S    
N5    Ni2   1.827194 S    
C11   C43   1.464609 S    
C43   C51   1.405060 A    
C59   N20   1.463521 S    
C56   H32   1.081770 S    
N2    Ni2   1.852125 S    
N11   N14   1.388066 A    
C4    H3    1.079045 S    
N3    Ni3   1.873024 S    
N4    Ni4   1.823517 S    
N12   Ni4   1.822605 S    
C23   C33   1.470438 S    
C15   C23   1.382799 A    
C31   C32   1.511157 S    
C26   C27   1.406877 A    
C8    H7    1.074652 S    
C56   C57   1.402548 A    
C7    C10   1.393151 A    
C34   C37   1.403931 A    
C33   C41   1.405706 A    
C54   C55   1.414360 A    
N1    Ni1   1.825901 S    
C19   N15   1.331263 A    
N9    Ni1   1.827193 S    
N18   H39   1.045543 S    
C38   C39   1.410210 A    
C2    N2    1.333822 A    
C16   C24   1.385987 A    
C47   C48   1.392466 A    
C13   C21   1.396533 A    
C2    H2    1.077594 S    
C50   H25   1.082598 S    
C25   C26   1.400246 A    
C5    C11   1.375338 A    
C27   H14   1.081162 S    
C1    N1    1.342678 A    
C37   C38   1.389977 A    
C18   C23   1.383272 A    
C28   H15   1.081419 S    
C17   C24   1.384703 A    
C25   C30   1.380803 A    
C6    C12   1.384840 A    
C20   H13   1.078606 S    
C44   C47   1.401893 A    
N16   Ni3   1.823516 S    
C22   C29   1.461281 S    
C15   H9    1.080207 S    
C59   H33   1.113275 S    
C10   C34   1.469536 S    
C4    N4    1.325864 A    
C34   C36   1.405387 A    
C44   C46   1.405208 A    
C31   N18   1.465490 S    
C8    N8    1.345751 A    
N20   O3    1.300356 A    
C47   H30   1.079819 S    
N19   O2    1.300798 A    
C16   N17   1.432464 S    
C53   C54   1.403870 A    
C19   H12   1.073311 S    
C4    C12   1.374520 A    
C20   C22   1.389979 A    
C55   H31   1.081467 S    
N10   Ni2   1.851961 S    
C32   H17   1.112124 S    
C6    N6    1.340236 A    
N4    N6    1.363400 A    
N3    N5    1.363519 A    
C59   C60   1.524343 S    
C38   C42   1.398966 A    
C5    N5    1.320445 A    
N7    Ni4   1.872926 S    
N21   H41   1.043269 S    
N6    Ni1   1.851959 S    
C41   H20   1.080779 S    
N18   H38   1.046993 S    
N14   Ni1   1.852127 S    
C20   N16   1.338059 A    
N13   Ni2   1.825900 S    
N2    N7    1.388066 A    
C14   C22   1.382066 A    
N9    N15   1.363518 A    
C32   H18   1.112268 S    
C29   C30   1.402950 A    
C21   C44   1.456816 S    
N19   O1    1.300913 A    
C12   C26   1.459680 S    
C57   C58   1.392461 A    
C14   N10   1.329776 A    
C40   H19   1.080293 S    
N8    Ni3   1.822605 S    
C14   H8    1.069807 S    
C52   H28   1.083671 S    
N15   Ni4   1.873021 S    
C48   C49   1.409932 A    
C15   N11   1.339432 A    
N17   H37   1.045578 S    
C7    N7    1.338416 A    
C60   H35   1.112338 S    
C36   H23   1.080735 S    
C45   C49   1.391096 A    
N10   N16   1.363399 A    
C41   C42   1.391120 A    
C19   C21   1.376715 A    
C25   C32   1.497713 S    
C5    H4    1.081441 S    
C1    C9    1.392822 A    
C30   C31   1.503896 S    
C8    C9    1.395232 A    
N11   Ni3   1.872923 S    
N20   O4    1.302394 A    
C35   C39   1.398794 A    
C53   C60   1.498268 S    
C3    N19   1.429175 S    
C9    C54   1.483139 S    
C45   C46   1.375216 A    
C35   H21   1.083914 S    
C33   C40   1.404133 A    
C13   N21   1.427968 S    
