data_mof_unit_51457.cif
_audit_creation_date              2012-12-11T14:56:32-0500
_audit_creation_method            fapswitch 2.2
_symmetry_space_group_name_H-M    P1
_symmetry_Int_Tables_number       1
_space_group_crystal_system       triclinic
_cell_length_a                    10.676719
_cell_length_b                    10.735926
_cell_length_c                    17.129951
_cell_angle_alpha                 80.834801
_cell_angle_beta                  89.213492
_cell_angle_gamma                 119.909233
_cell_volume                      1670.29081615

loop_
_atom_site_label
_atom_site_type_symbol
_atom_type_description
_atom_site_fract_x
_atom_site_fract_y
_atom_site_fract_z
_atom_type_partial_charge
C1    C     C_R   0.224101 0.855458 0.128849 0.539716
C2    C     C_R   0.739535 0.264020 0.297793 -0.016330
C3    C     C_R   0.713616 0.219707 0.225424 -0.138907
C4    C     C_R   0.605971 0.223940 0.184098 -0.008460
C5    C     C_1   0.668205 0.849453 0.205651 -0.047525
C6    C     C_1   0.680679 0.840177 0.274930 -0.045173
C7    C     C_1   0.183397 0.829170 0.211389 -0.067438
C8    C     C_1   0.154085 0.822959 0.280054 -0.067494
C9    C     C_1   0.644026 0.315957 0.777407 -0.070352
C10   C     C_1   0.650153 0.337617 0.706843 -0.079446
C11   C     C_R   0.602249 0.743448 0.798462 -0.136022
C12   C     C_R   0.607930 0.206920 0.101385 0.563875
C13   C     C_R   0.582617 0.709615 0.725314 -0.053257
C14   C     C_R   0.647250 0.829122 0.659156 0.038385
C15   C     C_R   0.696478 0.973758 0.669169 -0.044049
C16   C     C_R   0.686537 0.998272 0.745878 -0.144824
C17   C     C_R   0.638596 0.881761 0.809864 -0.013043
C18   C     C_R   0.034464 0.825685 0.808202 -0.017286
C19   C     C_R   0.000142 0.816800 0.730128 -0.145701
C20   C     C_R   0.075638 0.782536 0.677879 0.029899
C21   C     C_R   0.181094 0.747647 0.705192 -0.016650
C22   C     C_R   0.221194 0.766733 0.781078 -0.139659
C23   C     C_R   0.639476 0.858971 0.125701 0.531948
C24   C     C_R   0.153186 0.811703 0.830816 0.027498
C25   C     C_R   0.687013 0.810260 0.357263 0.556325
C26   C     C_R   0.682912 0.382221 0.399720 0.546789
C27   C     C_R   0.104613 0.811155 0.359476 0.550858
C28   C     C_R   0.674763 0.800189 0.584031 0.538902
C29   C     C_R   0.677970 0.380786 0.623834 0.525598
C30   C     C_R   0.035611 0.776748 0.597179 0.561572
C31   C     C_R   0.219818 0.859592 0.901478 0.538765
C32   C     C_R   0.636905 0.280647 0.860391 0.538671
C33   C     C_R   0.605666 0.892823 0.888638 0.549739
C34   C     C_R   0.496980 0.234900 0.223572 -0.132582
C35   C     C_R   0.505433 0.257664 0.302699 -0.032695
C36   C     C_R   0.638696 0.295464 0.335515 0.035422
Cr1   Cr    Cr6+3 0.402240 0.783890 0.019450 0.994969
Cr2   Cr    Cr6+3 0.382360 0.097900 0.991800 0.988217
Cr3   Cr    Cr6+3 0.715380 0.118170 0.988700 0.995118
Cr4   Cr    Cr6+3 0.936650 0.882420 0.465510 0.961932
Cr5   Cr    Cr6+3 0.605770 0.565620 0.493360 0.966817
Cr6   Cr    Cr6+3 0.921340 0.550490 0.496380 0.960050
H1    H     H_    0.401237 0.216377 0.194556 0.138582
H2    H     H_    0.912441 0.833018 0.710394 0.117059
H3    H     H_    0.308795 0.750140 0.800773 0.130545
H4    H     H_    0.789216 0.196906 0.196601 0.139375
H5    H     H_    0.581040 0.658480 0.848554 0.151055
H6    H     H_    0.715066 0.105946 0.755627 0.135852
O1    O     O_R   0.521780 0.757110 0.108900 -0.511915
O2    O     O_R   0.513330 0.228330 0.898660 -0.505826
O3    O     O_R   0.739230 0.266130 0.888050 -0.514082
O4    O     O_R   0.712580 0.991850 0.918770 -0.511839
O5    O     O_3   0.499990 0.999980 0.999980 -0.285918
O6    O     O_R   0.083770 0.911170 0.376030 -0.535197
O7    O     O_R   0.808770 0.880340 0.383890 -0.505880
O8    O     O_R   0.584340 0.689460 0.394160 -0.519158
O9    O     O_R   0.614320 0.443940 0.423590 -0.505194
O10   O     O_R   0.805020 0.410040 0.421340 -0.537276
O11   O     O_R   0.049240 0.685450 0.403290 -0.501005
O12   O     O_R   0.275160 0.783810 0.101120 -0.500502
O13   O     O_R   0.077520 0.903010 0.551800 -0.537491
O14   O     O_R   0.802980 0.872780 0.546830 -0.520499
O15   O     O_R   0.578090 0.681300 0.569920 -0.552468
O16   O     O_R   0.608530 0.436370 0.586530 -0.515077
O17   O     O_R   0.798770 0.401880 0.597100 -0.543736
O18   O     O_R   0.043450 0.677890 0.566230 -0.511958
O19   O     O_3   0.821250 0.666180 0.485090 -0.248166
O20   O     O_R   0.237900 0.972600 0.090980 -0.521729
O21   O     O_R   0.511190 0.220540 0.061620 -0.503208
O22   O     O_R   0.736920 0.257720 0.063840 -0.519253
O23   O     O_R   0.710450 0.984050 0.081720 -0.519307
O24   O     O_R   0.524090 0.765520 0.933110 -0.541296
O25   O     O_R   0.277300 0.791600 0.938160 -0.516609
O26   O     O_R   0.240210 0.981010 0.915190 -0.531344
C37   C     C_3   0.251178 0.688534 0.656262 -0.227707
C38   C     C_3   0.151810 0.521688 0.663010 -0.267027
C39   C     C_3   0.175400 0.468019 0.589540 -0.433105
H7    H     H_    0.127820 0.500413 0.538658 0.182016
H8    H     H_    0.292316 0.513999 0.571278 0.159226
H9    H     H_    0.121397 0.346787 0.602627 0.112476
H10   H     H_    0.171848 0.465280 0.716889 0.140174
H11   H     H_    0.035151 0.487783 0.672201 0.208127
H12   H     H_    0.282791 0.749410 0.593791 0.175257
H13   H     H_    0.354975 0.710074 0.678238 0.134686
C40   C     C_3   0.361435 0.194315 0.354122 -0.246826
C41   C     C_3   0.326622 0.297376 0.390194 -0.290561
C42   C     C_3   0.163377 0.226414 0.413335 -0.448443
H14   H     H_    0.101941 0.195206 0.361362 0.155625
H15   H     H_    0.124902 0.127184 0.459666 0.212144
H16   H     H_    0.140327 0.302273 0.439042 0.101063
H17   H     H_    0.372599 0.315358 0.447436 0.197091
H18   H     H_    0.368406 0.403134 0.348141 0.186903
H19   H     H_    0.274660 0.140829 0.315813 0.176614
H20   H     H_    0.351705 0.106914 0.402734 0.158331
C43   C     C_3   0.890234 0.298501 0.319789 -0.226677
C44   C     C_3   0.003215 0.452625 0.274482 -0.274566
C45   C     C_3   0.158472 0.496305 0.290117 -0.435654
H21   H     H_    0.172595 0.504071 0.353487 0.158946
H22   H     H_    0.185668 0.416860 0.272636 0.149803
H23   H     H_    0.235679 0.604819 0.253400 0.170114
H24   H     H_    0.997060 0.457381 0.209401 0.162597
H25   H     H_    0.977174 0.533247 0.290967 0.202358
H26   H     H_    0.898765 0.281213 0.384465 0.168873
H27   H     H_    0.916290 0.218893 0.300718 0.118663
C46   C     C_3   0.495379 0.547013 0.720808 -0.251150
C47   C     C_3   0.397073 0.438715 0.796344 -0.330859
C48   C     C_3   0.296333 0.284730 0.780076 -0.414229
H28   H     H_    0.228370 0.286159 0.732058 0.136627
H29   H     H_    0.359593 0.235724 0.762289 0.179133
H30   H     H_    0.223102 0.213584 0.834865 0.166216
H31   H     H_    0.464151 0.429408 0.843074 0.179041
H32   H     H_    0.329144 0.479203 0.819649 0.161910
H33   H     H_    0.419603 0.530417 0.675597 0.192700
H34   H     H_    0.574514 0.518400 0.703420 0.182516
C49   C     C_3   0.745104 0.099319 0.600183 -0.371509
H35   H     H_    0.662903 0.133475 0.598121 0.146795
H36   H     H_    0.853003 0.190919 0.608134 0.151014
H37   H     H_    0.753068 0.071812 0.541457 0.134792
C50   C     C_3   0.939995 0.840027 0.868477 -0.251192
C51   C     C_3   0.858219 0.698275 0.931930 -0.286210
C52   C     C_3   0.811613 0.725466 0.008941 -0.417040
H38   H     H_    0.908584 0.799754 0.036194 0.157787
H39   H     H_    0.743199 0.775303 0.997281 0.210594
H40   H     H_    0.748018 0.620053 0.051666 0.157062
H41   H     H_    0.761139 0.615875 0.908199 0.159031
H42   H     H_    0.927374 0.649474 0.947046 0.179420
H43   H     H_    0.004931 0.936504 0.896043 0.176629
H44   H     H_    0.861818 0.862917 0.838423 0.149699

loop_
_geom_bond_atom_site_label_1
_geom_bond_atom_site_label_2
_ccdc_geom_bond_type
Cr3   O3    S    
C42   H14   S    
C44   H25   S    
C11   C13   A    
C11   H5    S    
C43   C44   S    
C25   O8    A    
C12   O21   A    
Cr6   O10   S    
C45   H21   S    
C27   O6    A    
C7    C8    T    
Cr5   O19   S    
C20   C30   S    
C39   H7    S    
C19   H2    S    
C33   O4    A    
C18   C24   A    
C46   H33   S    
C2    C43   S    
C18   C19   A    
Cr5   O8    S    
C41   H17   S    
C5    C6    T    
C51   H42   S    
C37   H13   S    
C23   O1    A    
C6    C25   S    
C47   C48   S    
C15   C16   A    
C1    O20   A    
Cr4   O14   S    
C34   C35   A    
C52   H40   S    
C12   O22   A    
C9    C32   S    
C40   H19   S    
C19   C20   A    
C16   C17   A    
C49   H36   S    
Cr4   O19   S    
Cr6   O17   S    
C48   H28   S    
C4    C12   S    
C9    C10   T    
C33   O24   A    
Cr1   O5    S    
C50   H44   S    
C49   H37   S    
Cr3   O4    S    
Cr2   O21   S    
C21   C22   A    
C48   H29   S    
C16   H6    S    
C17   C33   S    
C45   H22   S    
C43   H26   S    
C47   H31   S    
C39   H8    S    
C4    C34   A    
C52   H39   S    
C30   O13   A    
C23   O23   A    
C46   H34   S    
C44   H24   S    
C38   C39   S    
C13   C46   S    
C1    O12   A    
C38   H11   S    
C41   C42   S    
C31   O26   A    
C47   H32   S    
C40   C41   S    
Cr4   O13   S    
C35   C36   A    
Cr6   O11   S    
C37   C38   S    
C32   O3    A    
C43   H27   S    
Cr1   O1    S    
C40   H20   S    
C5    C23   S    
Cr4   O7    S    
C44   C45   S    
C26   O10   A    
C32   O2    A    
C52   H38   S    
C30   O18   A    
C29   O17   A    
C26   C36   S    
Cr2   O20   S    
Cr4   O6    S    
C42   H15   S    
Cr6   O19   S    
C48   H30   S    
C22   C24   A    
C42   H16   S    
Cr5   O15   S    
C3    C4    A    
C45   H23   S    
C51   C52   S    
Cr2   O26   S    
C39   H9    S    
C2    C36   A    
Cr1   O25   S    
C11   C17   A    
C1    C7    S    
C34   H1    S    
C25   O7    A    
C38   H10   S    
C50   C51   S    
Cr2   O2    S    
C46   C47   S    
C21   C37   S    
C3    H4    S    
C2    C3    A    
C24   C31   S    
Cr5   O9    S    
C41   H18   S    
C35   C40   S    
C10   C29   S    
C37   H12   S    
Cr3   O5    S    
Cr2   O5    S    
C51   H41   S    
Cr3   O22   S    
C15   C49   S    
C26   O9    A    
C29   O16   A    
Cr1   O12   S    
C31   O25   A    
C28   O15   A    
C22   H3    S    
C20   C21   A    
Cr1   O24   S    
Cr6   O18   S    
C8    C27   S    
Cr3   O23   S    
C14   C15   A    
C27   O11   A    
Cr5   O16   S    
C14   C28   S    
C13   C14   A    
C18   C50   S    
C49   H35   S    
C50   H43   S    
C28   O14   A    
