data_mof_unit_21573.cif
_audit_creation_date              2012-12-10T16:52:37-0500
_audit_creation_method            fapswitch 2.2
_symmetry_space_group_name_H-M    P1
_symmetry_Int_Tables_number       1
_space_group_crystal_system       triclinic
_cell_length_a                    7.833482
_cell_length_b                    8.562737
_cell_length_c                    13.66776
_cell_angle_alpha                 93.403479
_cell_angle_beta                  92.532595
_cell_angle_gamma                 94.326907
_cell_volume                      911.462568444

loop_
_atom_site_label
_atom_site_type_symbol
_atom_type_description
_atom_site_fract_x
_atom_site_fract_y
_atom_site_fract_z
_atom_type_partial_charge
C1    C     C_R   0.045270 0.794761 0.497446 0.967024
C2    C     C_R   0.936834 0.482401 0.317545 0.894917
C3    C     C_R   0.090236 0.525661 0.789534 -0.113221
C4    C     C_R   0.902856 0.446440 0.212740 -0.120787
C5    C     C_R   0.040606 0.633341 0.952616 -0.213058
C6    C     C_R   0.916590 0.278331 0.065087 -0.213760
C7    C     C_R   0.987881 0.609092 0.853808 0.162825
C8    C     C_R   0.983955 0.329951 0.158588 0.161628
C9    C     C_R   0.234327 0.459063 0.826541 -0.282216
C10   C     C_R   0.761001 0.510738 0.171832 -0.297716
C11   C     C_R   0.289464 0.483510 0.924986 0.100615
C12   C     C_R   0.954679 0.205219 0.502337 0.971426
C13   C     C_R   0.678490 0.444105 0.085239 0.108304
C14   C     C_R   0.193608 0.577214 0.987542 0.127872
C15   C     C_R   0.762383 0.331305 0.029179 0.127024
C16   C     C_R   0.444487 0.427251 0.960563 0.089831
C17   C     C_R   0.513519 0.484493 0.054459 0.089789
C18   C     C_R   0.412280 0.574435 0.116252 -0.180546
C19   C     C_R   0.532441 0.315737 0.905592 -0.185697
C20   C     C_R   0.253830 0.617688 0.083495 -0.186510
C21   C     C_R   0.688338 0.268391 0.939836 -0.186598
C22   C     C_2   0.068734 0.958516 0.495737 -0.357862
C23   C     C_2   0.931130 0.041429 0.503657 -0.360477
C24   C     C_R   0.062455 0.514146 0.682839 0.892679
H1    H     H_    0.180154 0.686682 0.132859 0.158208
H2    H     H_    0.801631 0.989705 0.511290 0.183312
H3    H     H_    0.487253 0.373847 0.427284 0.207545
H4    H     H_    0.512737 0.626182 0.572689 0.207996
H5    H     H_    0.750292 0.180787 0.896559 0.164613
H6    H     H_    0.712068 0.608411 0.212292 0.159917
H7    H     H_    0.309198 0.397305 0.775035 0.171611
H8    H     H_    0.965580 0.701964 0.001386 0.166163
H9    H     H_    0.979235 0.189927 0.022943 0.166223
H10   H     H_    0.448895 0.608474 0.191889 0.159964
H11   H     H_    0.480624 0.257179 0.837568 0.149915
H12   H     H_    0.198219 0.010239 0.488043 0.186463
I1    I     I_    0.195376 0.213507 0.213299 -0.405083
I2    I     I_    0.763141 0.716900 0.809985 -0.410191
N1    N     N_2   0.440860 0.456490 0.474790 -0.166300
N2    N     N_2   0.559140 0.543510 0.525210 -0.164514
O1    O     O_R   0.891570 0.738930 0.506190 -0.604162
O2    O     O_R   0.108430 0.261070 0.493810 -0.601017
O3    O     O_R   0.174650 0.711050 0.490030 -0.625143
O4    O     O_R   0.825350 0.288950 0.509970 -0.625017
O5    O     O_R   0.909850 0.521900 0.644940 -0.581560
O6    O     O_R   0.090150 0.478100 0.355060 -0.588004
O7    O     O_R   0.192930 0.494020 0.628780 -0.623021
O8    O     O_R   0.807070 0.505980 0.371220 -0.619351
Zn1   Zn    Zn3+2 0.810990 0.518620 0.510790 0.969864
Zn2   Zn    Zn3+2 0.189010 0.481380 0.489210 0.966082

loop_
_geom_bond_atom_site_label_1
_geom_bond_atom_site_label_2
_ccdc_geom_bond_type
O4    Zn1   S    
C2    C4    S    
O3    Zn2   S    
C3    C9    A    
O5    Zn1   S    
C22   H12   S    
C11   C16   A    
C10   H6    S    
C18   C20   A    
C6    H9    S    
C13   C17   A    
C4    C8    A    
C5    H8    S    
C17   C18   A    
C5    C14   A    
C1    C22   S    
C12   O4    A    
C19   H11   S    
C2    O6    A    
C9    C11   A    
C12   C23   S    
C3    C24   S    
O2    Zn2   S    
C16   C19   A    
C6    C8    A    
C24   O5    A    
O1    Zn1   S    
O8    Zn1   S    
C19   C21   A    
C7    I2    S    
O6    Zn2   S    
O7    Zn2   S    
C3    C7    A    
C13   C15   A    
C11   C14   A    
C18   H10   S    
C8    I1    S    
C9    H7    S    
C4    C10   A    
N2    Zn1   S    
C14   C20   A    
C15   C21   A    
N1    Zn2   S    
C20   H1    S    
C23   H2    S    
C1    O1    A    
N1    N2    D    
C5    C7    A    
H4    N2    S    
C22   C23   D    
C12   O2    A    
C2    O8    A    
C6    C15   A    
C24   O7    A    
C21   H5    S    
C1    O3    A    
H3    N1    S    
C16   C17   A    
C10   C13   A    
