data_mof_unit_24159.cif
_audit_creation_date              2012-12-10T18:02:52-0500
_audit_creation_method            fapswitch 2.2
_symmetry_space_group_name_H-M    P1
_symmetry_Int_Tables_number       1
_space_group_crystal_system       triclinic
_cell_length_a                    10.823391
_cell_length_b                    9.643167
_cell_length_c                    27.813183
_cell_angle_alpha                 90.156597
_cell_angle_beta                  93.836241
_cell_angle_gamma                 89.670707
_cell_volume                      2896.35078267

loop_
_atom_site_label
_atom_site_type_symbol
_atom_type_description
_atom_site_fract_x
_atom_site_fract_y
_atom_site_fract_z
_atom_type_partial_charge
C1    C     C_R   0.262458 0.500223 0.500180 0.828041
C2    C     C_R   0.737542 0.499777 0.499820 0.828046
C3    C     C_R   0.503328 0.516011 0.101540 -0.044338
C4    C     C_R   0.496671 0.483960 0.898460 -0.044338
C5    C     C_R   0.392040 0.516052 0.124819 -0.065423
C6    C     C_R   0.607960 0.483919 0.875181 -0.065423
C7    C     C_R   0.279901 0.531868 0.097498 -0.125002
C8    C     C_R   0.720098 0.468099 0.902501 -0.125002
C9    C     C_R   0.616642 0.525302 0.129292 -0.024425
C10   C     C_R   0.383357 0.474673 0.870707 -0.024425
C11   C     C_R   0.513906 0.499280 0.354563 -0.121086
C12   C     C_R   0.486096 0.500717 0.645437 -0.121090
C13   C     C_R   0.385282 0.493991 0.972282 0.060221
C14   C     C_R   0.614716 0.505975 0.027717 0.060221
C15   C     C_R   0.614065 0.486955 0.977084 -0.006001
C16   C     C_R   0.385933 0.513010 0.022915 -0.006001
C17   C     C_R   0.498815 0.490204 0.949469 0.057382
C18   C     C_R   0.501184 0.509763 0.050530 0.057382
C19   C     C_R   0.275402 0.465694 0.943920 -0.143335
C20   C     C_R   0.724597 0.534274 0.056079 -0.143335
C21   C     C_R   0.273615 0.460569 0.893933 -0.106031
C22   C     C_R   0.726384 0.539403 0.106067 -0.106032
C23   C     C_R   0.505294 0.499524 0.407647 0.868350
C24   C     C_R   0.494707 0.500476 0.592353 0.868345
C25   C     C_R   0.277211 0.542411 0.047472 0.132308
C26   C     C_R   0.722787 0.457554 0.952528 0.132308
C27   C     C_R   0.064408 0.374202 0.499137 -0.140865
C28   C     C_R   0.935592 0.625798 0.500862 -0.140866
C29   C     C_R   0.936565 0.373976 0.498547 -0.110501
C30   C     C_R   0.063435 0.626024 0.501453 -0.110505
C31   C     C_R   0.871557 0.499748 0.499649 -0.031559
C32   C     C_R   0.128442 0.500252 0.500350 -0.031561
C33   C     C_R   0.420219 0.074425 0.468832 0.195302
C34   C     C_R   0.579781 0.925575 0.531167 0.195303
C35   C     C_R   0.580353 0.073751 0.530931 0.198081
C36   C     C_R   0.419647 0.926249 0.469069 0.198081
C37   C     C_R   0.396234 0.510916 0.175314 0.614104
C38   C     C_R   0.603765 0.489061 0.824686 0.614104
C39   C     C_R   0.616621 0.525963 0.179737 0.604015
C40   C     C_R   0.383379 0.474019 0.820262 0.604016
C41   C     C_R   0.542728 0.384234 0.277467 0.106530
C42   C     C_R   0.457280 0.615758 0.722535 0.106534
C43   C     C_R   0.548661 0.379791 0.328298 -0.084401
C44   C     C_R   0.451349 0.620207 0.671703 -0.084403
C45   C     C_R   0.484080 0.622240 0.329371 -0.231196
C46   C     C_R   0.515914 0.377752 0.670628 -0.231190
C47   C     C_R   0.482313 0.627444 0.279447 0.197564
C48   C     C_R   0.517681 0.372544 0.720551 0.197562
C49   C     C_R   0.510006 0.508384 0.253227 0.249308
C50   C     C_R   0.489994 0.491604 0.746773 0.249307
Cu1   Cu    Cu3+1 0.500000 0.640660 0.500000 1.036720
Cu2   Cu    Cu3+1 0.500000 0.359340 0.500000 1.036720
H1    H     H_    0.461266 0.715781 0.348376 0.206770
H2    H     H_    0.538723 0.284211 0.651622 0.206770
H3    H     H_    0.194977 0.548846 0.115245 0.209570
H4    H     H_    0.805022 0.451122 0.884754 0.209570
H5    H     H_    0.186059 0.443381 0.873645 0.203671
H6    H     H_    0.813940 0.556593 0.126354 0.203671
H7    H     H_    0.190386 0.441285 0.960011 0.193512
H8    H     H_    0.809613 0.558681 0.039988 0.193512
H9    H     H_    0.112662 0.275630 0.498598 0.182039
H10   H     H_    0.887338 0.724370 0.501402 0.182040
H11   H     H_    0.889052 0.275409 0.497204 0.187790
H12   H     H_    0.110948 0.724591 0.502796 0.187789
N1    N     N_R   0.507607 0.514358 0.201617 -0.455517
N2    N     N_R   0.492392 0.485625 0.798383 -0.455518
N3    N     N_R   0.500000 0.852070 0.500000 -0.219081
N4    N     N_R   0.500000 0.147930 0.500000 -0.219082
O1    O     O_R   0.319640 0.618740 0.500000 -0.551670
O2    O     O_R   0.680360 0.381260 0.500000 -0.551667
O3    O     O_R   0.680360 0.618740 0.500000 -0.577777
O4    O     O_R   0.319640 0.381260 0.500000 -0.577775
O5    O     O_R   0.500020 0.618770 0.430260 -0.574839
O6    O     O_R   0.499980 0.381230 0.569740 -0.574839
O7    O     O_R   0.499980 0.618770 0.569740 -0.538516
O8    O     O_R   0.500020 0.381230 0.430260 -0.538514
O9    O     O_2   0.290099 0.503204 0.197999 -0.490065
O10   O     O_2   0.709901 0.496773 0.802001 -0.490065
O11   O     O_2   0.275561 0.463111 0.793238 -0.489771
O12   O     O_2   0.724438 0.536877 0.206761 -0.489772
I1    I     I_    0.294245 0.179129 0.417786 -0.263479
I2    I     I_    0.705755 0.820871 0.582213 -0.263487
I3    I     I_    0.712131 0.177146 0.579670 -0.273123
I4    I     I_    0.287868 0.822854 0.420330 -0.273123
I5    I     I_    0.437020 0.818759 0.245160 -0.203023
I6    I     I_    0.562966 0.181224 0.754836 -0.203031
C51   C     C_2   0.402558 0.747678 0.647393 0.475579
H13   H     H_    0.436205 0.848652 0.659307 0.102950
O13   O     O_2   0.320248 0.741249 0.615233 -0.518108
C52   C     C_2   0.597465 0.252328 0.352610 0.475574
H14   H     H_    0.563834 0.151348 0.340696 0.102948
O14   O     O_2   0.679768 0.258771 0.384773 -0.518117
I7    I     I_    0.412407 0.794168 0.763930 -0.215717
I8    I     I_    0.587608 0.205823 0.236073 -0.215724
I9    I     I_    0.118942 0.653743 0.017541 -0.304941
I10   I     I_    0.881055 0.346220 0.982459 -0.304938

loop_
_geom_bond_atom_site_label_1
_geom_bond_atom_site_label_2
_ccdc_geom_bond_type
C51   H13   S    
C29   H11   S    
C30   H12   S    
C27   C29   A    
C42   I7    S    
C8    C26   A    
C14   C18   A    
C7    H3    S    
C23   O8    A    
C8    H4    S    
C36   N3    A    
C47   C49   A    
C49   N1    S    
C3    C9    A    
C47   I5    S    
C19   C21   A    
Cu1   O7    S    
Cu2   O6    S    
C9    C22   A    
C5    C37   A    
C9    C39   A    
C33   C36   A    
C3    C18   A    
C10   C40   A    
C34   C35   A    
C27   H9    S    
C38   N2    A    
C37   N1    A    
C6    C38   A    
C11   C43   A    
C20   H8    S    
C44   C51   S    
Cu2   N4    S    
C48   C50   A    
C45   H1    S    
C40   N2    A    
C41   C43   A    
Cu1   O3    S    
C23   O5    A    
C41   C49   A    
C45   C47   A    
C10   C21   A    
C26   I10   S    
C46   C48   A    
C1    O4    A    
C13   C19   A    
Cu1   Cu2   S    
C43   C52   S    
C14   C20   A    
C4    C6    A    
C5    C7    A    
C35   I3    S    
C15   C26   A    
C6    C8    A    
C38   O10   S    
C19   H7    S    
C37   O9    S    
C1    C32   S    
C1    O1    A    
C2    C31   S    
C21   H5    S    
Cu2   O4    S    
C52   O14   D    
C41   I8    S    
C46   H2    S    
C40   O11   S    
Cu1   N3    S    
C50   N2    S    
C42   C50   A    
C4    C17   A    
C12   C46   A    
C20   C22   A    
C25   I9    S    
C51   O13   D    
Cu2   O8    S    
C48   I6    S    
C11   C45   A    
C4    C10   A    
C2    O3    A    
C16   C25   A    
C15   C17   A    
C12   C24   S    
C27   C32   A    
C28   C31   A    
Cu1   O5    S    
C3    C5    A    
C34   N3    A    
C22   H6    S    
C24   O7    A    
Cu1   O1    S    
C39   N1    A    
C7    C25   A    
C13   C17   A    
C39   O12   S    
C28   C30   A    
C42   C44   A    
C29   C31   A    
C30   C32   A    
C24   O6    A    
C52   H14   S    
C35   N4    A    
C36   I4    S    
C11   C23   S    
Cu2   O2    S    
C16   C18   A    
C13   C16   A    
C14   C15   A    
C12   C44   A    
C34   I2    S    
C2    O2    A    
C33   I1    S    
C33   N4    A    
C28   H10   S    
