data_mof_unit_25372.cif
_audit_creation_date              2012-12-10T20:43:19-0500
_audit_creation_method            fapswitch 2.2
_symmetry_space_group_name_H-M    P1
_symmetry_Int_Tables_number       1
_space_group_crystal_system       triclinic
_cell_length_a                    15.776228
_cell_length_b                    10.652644
_cell_length_c                    9.859566
_cell_angle_alpha                 89.736255
_cell_angle_beta                  89.343662
_cell_angle_gamma                 90.022482
_cell_volume                      1656.85783797

loop_
_atom_site_label
_atom_site_type_symbol
_atom_type_description
_atom_site_fract_x
_atom_site_fract_y
_atom_site_fract_z
_atom_type_partial_charge
C1    C     C_R   0.507232 0.260259 0.499953 0.905796
C2    C     C_R   0.042530 0.581574 0.613713 0.040464
C3    C     C_1   0.823375 0.533284 0.492735 0.028613
C4    C     C_1   0.176523 0.533294 0.498811 -0.026248
C5    C     C_1   0.250876 0.516316 0.501139 -0.162910
C6    C     C_1   0.749066 0.515835 0.496476 -0.136577
C7    C     C_R   0.517756 0.063325 0.622613 0.128635
C8    C     C_R   0.527721 0.129314 0.501031 -0.191302
C9    C     C_R   0.554728 0.063924 0.382770 -0.052337
C10   C     C_R   0.547441 0.933464 0.383055 -0.257225
C11   C     C_R   0.518742 0.871397 0.500478 -0.127723
C12   C     C_R   0.339126 0.500860 0.500584 0.921014
C13   C     C_R   0.513751 0.935761 0.622220 0.145313
C14   C     C_3   0.447917 0.930968 0.732069 -0.450436
C15   C     C_3   0.452454 0.072998 0.733371 -0.461737
C16   C     C_R   0.426534 0.481830 0.073025 0.231096
C17   C     C_R   0.571273 0.528760 0.070475 -0.095446
C18   C     C_R   0.571313 0.528621 0.926613 -0.123054
C19   C     C_R   0.426150 0.483034 0.930301 0.164461
C20   C     C_3   0.369516 0.370351 0.927859 -0.270616
C21   C     C_3   0.370835 0.369212 0.082319 -0.551592
C22   C     C_R   0.502747 0.740229 0.499725 0.885847
C23   C     C_R   0.660856 0.500627 0.499199 0.917182
C24   C     C_R   0.953527 0.579175 0.612179 -0.056557
C25   C     C_R   0.912226 0.554503 0.489072 -0.012535
C26   C     C_R   0.957301 0.539714 0.365507 0.160061
C27   C     C_R   0.046502 0.536433 0.368366 0.139453
C28   C     C_R   0.087561 0.552997 0.493430 0.079203
H1    H     H_    0.479936 0.109978 0.828465 0.215296
H2    H     H_    0.629154 0.550167 0.123276 0.159321
H3    H     H_    0.629262 0.549971 0.871673 0.167663
H4    H     H_    0.400778 0.287553 0.881827 0.158895
H5    H     H_    0.309113 0.390809 0.132638 0.220111
H6    H     H_    0.404264 0.286343 0.125076 0.219986
H7    H     H_    0.561977 0.881186 0.291610 0.202013
H8    H     H_    0.386076 0.894138 0.696531 0.204807
H9    H     H_    0.472124 0.886841 0.826404 0.224065
H10   H     H_    0.392920 0.118936 0.699765 0.225994
N1    N     N_R   0.499440 0.499140 0.142800 -0.105790
N2    N     N_R   0.499440 0.499180 0.857150 -0.124852
O1    O     O_R   0.500010 0.316790 0.614690 -0.618184
O2    O     O_R   0.500000 0.316760 0.385350 -0.598509
O3    O     O_R   0.378030 0.499990 0.614640 -0.606138
O4    O     O_R   0.378020 0.499950 0.385300 -0.617472
O5    O     O_R   0.500000 0.683240 0.614650 -0.614810
O6    O     O_R   0.499990 0.683210 0.385310 -0.621870
O7    O     O_R   0.621980 0.500050 0.614700 -0.619747
O8    O     O_R   0.621970 0.500010 0.385360 -0.603635
Zn1   Zn    Zn3+2 0.500010 0.500020 0.653130 0.965906
Zn2   Zn    Zn3+2 0.499990 0.499980 0.346870 0.981815
C29   C     C_3   0.088479 0.615256 0.743049 -0.747957
H11   H     H_    0.156613 0.636120 0.726154 0.252744
H12   H     H_    0.060380 0.701326 0.788026 0.233962
H13   H     H_    0.083165 0.536707 0.816961 0.279977
C30   C     C_2   0.283498 0.397751 0.870176 0.990767
O9    O     O_2   0.243221 0.489528 0.907870 -0.657698
O10   O     O_R   0.249849 0.316821 0.773563 -0.814747
H14   H     H_    0.191599 0.343959 0.742486 0.341676
C31   C     C_2   0.902980 0.600936 0.738925 0.927933
O11   O     O_2   0.921363 0.546623 0.844094 -0.643594
O12   O     O_R   0.833529 0.682458 0.736824 -0.801135
H15   H     H_    0.803684 0.688364 0.828204 0.338913
C32   C     C_3   0.911099 0.524229 0.232170 -0.803192
H16   H     H_    0.841347 0.533586 0.241227 0.236577
H17   H     H_    0.932137 0.598128 0.159434 0.256125
H18   H     H_    0.924635 0.430045 0.189268 0.254454
C33   C     C_3   0.099621 0.513078 0.241040 -0.819735
H19   H     H_    0.062729 0.502786 0.147054 0.260366
H20   H     H_    0.144083 0.592715 0.224611 0.249157
H21   H     H_    0.136920 0.425471 0.253622 0.237162
C34   C     C_2   0.588363 0.126167 0.258343 0.944932
O13   O     O_2   0.635851 0.216475 0.267178 -0.615108
O14   O     O_R   0.568293 0.078296 0.130814 -0.826747
H22   H     H_    0.595086 0.128363 0.053816 0.339459

loop_
_geom_bond_atom_site_label_1
_geom_bond_atom_site_label_2
_ccdc_geom_bond_type
C8    C9    A    
C7    C13   A    
C26   C32   S    
C32   H17   S    
C15   H10   S    
C15   H1    S    
C10   H7    S    
C29   H11   S    
C23   O8    A    
C1    C8    S    
C9    C10   A    
O6    Zn2   S    
C11   C22   S    
C19   C20   S    
O5    Zn1   S    
C30   O9    D    
C29   H13   S    
C33   H21   S    
C23   O7    A    
C7    C15   S    
C17   C18   A    
C26   C27   A    
C32   H18   S    
C7    C8    A    
C12   O4    A    
C27   C33   S    
C13   C14   S    
C20   C21   S    
C14   H9    S    
C2    C24   A    
C17   H2    S    
C11   C13   A    
N1    Zn2   S    
O10   H14   S    
C16   C21   S    
O2    Zn2   S    
C16   C19   A    
C6    C23   S    
C1    O1    A    
C33   H19   S    
C4    C28   S    
C20   H4    S    
O8    Zn2   S    
C12   O3    A    
C20   C30   S    
C19   N2    A    
C30   O10   S    
O14   H22   S    
C14   H8    S    
O12   H15   S    
C33   H20   S    
C31   O12   S    
C21   H5    S    
C10   C11   A    
C16   N1    A    
O4    Zn2   S    
N2    Zn1   S    
C1    O2    A    
C31   O11   D    
C3    C25   S    
C34   O13   D    
C24   C25   A    
C5    C12   S    
O7    Zn1   S    
C22   O5    A    
C17   N1    A    
C3    C6    T    
O1    Zn1   S    
C27   C28   A    
C34   O14   S    
C18   N2    A    
C14   C15   S    
O3    Zn1   S    
C2    C28   A    
C21   H6    S    
C2    C29   S    
C22   O6    A    
C25   C26   A    
C32   H16   S    
C24   C31   S    
C9    C34   S    
C18   H3    S    
C4    C5    T    
C29   H12   S    
