data_mof_unit_15986.cif
_audit_creation_date              2012-12-10T17:57:24-0500
_audit_creation_method            fapswitch 2.2
_symmetry_space_group_name_H-M    P1
_symmetry_Int_Tables_number       1
_space_group_crystal_system       triclinic
_cell_length_a                    9.500006
_cell_length_b                    10.790564
_cell_length_c                    13.588491
_cell_angle_alpha                 89.434152
_cell_angle_beta                  73.601475
_cell_angle_gamma                 89.898521
_cell_volume                      1336.23207817

loop_
_atom_site_label
_atom_site_type_symbol
_atom_type_description
_atom_site_fract_x
_atom_site_fract_y
_atom_site_fract_z
_atom_type_partial_charge
C1    C     C_R   0.498093 0.737750 0.504282 0.784303
C2    C     C_R   0.449108 0.459259 0.976483 0.117400
C3    C     C_R   0.494719 0.462405 0.867427 0.018673
C4    C     C_R   0.555698 0.477822 0.031012 -0.013163
C5    C     C_R   0.697764 0.519767 0.976856 0.030921
C6    C     C_R   0.744725 0.509081 0.871382 -0.194086
C7    C     C_R   0.648128 0.468958 0.819286 -0.183786
C8    C     C_R   0.528123 0.455893 0.137035 0.346602
C9    C     C_R   0.751443 0.569388 0.135957 0.421377
C10   C     C_R   0.385990 0.461373 0.811775 -0.220087
C11   C     C_R   0.621847 0.935451 0.453063 -0.204451
C12   C     C_R   0.424128 0.488065 0.699400 0.813657
C13   C     C_R   0.623750 0.063511 0.450933 -0.200627
C14   C     C_R   0.498745 0.128756 0.503502 -0.034582
C15   C     C_R   0.373323 0.066575 0.561335 -0.208169
C16   C     C_R   0.371251 0.937592 0.567458 0.091510
C17   C     C_R   0.495961 0.871787 0.509402 -0.045618
C18   C     C_R   0.946146 0.589908 0.448475 -0.024182
C19   C     C_R   0.095492 0.588944 0.447362 -0.018176
C20   C     C_R   0.054096 0.409761 0.551024 0.008367
C21   C     C_R   0.905509 0.409259 0.550402 -0.055646
C22   C     C_R   0.499898 0.262242 0.500398 0.778497
C23   C     C_R   0.577296 0.502875 0.301135 0.896850
C24   C     C_R   0.792890 0.568199 0.028709 -0.287682
C25   C     C_R   0.620920 0.508849 0.189580 -0.253088
C26   C     C_R   0.238083 0.436523 0.865856 0.506774
C27   C     C_R   0.196443 0.430317 0.972555 -0.292164
C28   C     C_R   0.298193 0.446671 0.027047 -0.238238
Cu1   Cu    Cu3+1 0.359340 0.499980 0.500000 0.972988
Cu2   Cu    Cu3+1 0.640660 0.500020 0.500000 0.945959
H1    H     H_    0.721390 0.111604 0.406402 0.147518
H2    H     H_    0.278763 0.118795 0.604566 0.125611
H3    H     H_    0.906226 0.662328 0.407827 0.135132
H4    H     H_    0.168787 0.659510 0.404436 0.112917
H5    H     H_    0.094134 0.337228 0.591434 0.118827
H6    H     H_    0.833696 0.335995 0.590286 0.112078
H7    H     H_    0.858198 0.526631 0.829304 0.188980
H8    H     H_    0.895312 0.610426 0.985463 0.169891
H9    H     H_    0.254238 0.454490 0.108919 0.210693
H10   H     H_    0.081958 0.417608 0.013718 0.155513
H11   H     H_    0.700545 0.441420 0.742370 0.179983
H12   H     H_    0.718147 0.885906 0.409148 0.158522
N1    N     N_R   0.147940 0.499970 0.499970 -0.152396
N2    N     N_R   0.852060 0.500060 0.499990 -0.156266
O1    O     O_R   0.381250 0.680340 0.500010 -0.594264
O2    O     O_R   0.618820 0.680370 0.500010 -0.583873
O3    O     O_R   0.323240 0.499950 0.650980 -0.532579
O4    O     O_R   0.560810 0.499980 0.650980 -0.604452
O5    O     O_R   0.381180 0.319630 0.499990 -0.586151
O6    O     O_R   0.618750 0.319660 0.499990 -0.597963
O7    O     O_R   0.439190 0.500020 0.349020 -0.542390
O8    O     O_R   0.676760 0.500050 0.349020 -0.558157
O9    O     O_3   0.825863 0.641274 0.189259 -0.567681
C29   C     C_3   0.971805 0.600335 0.170592 -0.303805
H13   H     H_    0.977192 0.498667 0.183868 0.161630
H14   H     H_    0.038746 0.627899 0.092574 0.163074
H15   H     H_    0.021459 0.646847 0.225052 0.171176
C30   C     C_3   0.239416 0.875700 0.641267 -0.399527
C31   C     C_3   0.108074 0.873321 0.596697 -0.329923
C32   C     C_3   0.982263 0.795767 0.663702 -0.816197
H16   H     H_    0.017988 0.698351 0.668632 0.269785
H17   H     H_    0.944615 0.834738 0.742137 0.247006
H18   H     H_    0.888838 0.796216 0.629659 0.242248
H19   H     H_    0.068536 0.969416 0.590936 0.203594
H20   H     H_    0.141863 0.834032 0.518376 0.223413
H21   H     H_    0.265922 0.780629 0.662246 0.215045
H22   H     H_    0.208708 0.927696 0.714542 0.177554
O10   O     O_3   0.415803 0.377900 0.189487 -0.575314
C33   C     C_3   0.468828 0.255195 0.180071 -0.297674
H23   H     H_    0.561550 0.243973 0.214476 0.143419
H24   H     H_    0.502452 0.225588 0.098499 0.159789
H25   H     H_    0.379170 0.192750 0.222655 0.189708
O11   O     O_3   0.130721 0.429217 0.815338 -0.579127
C34   C     C_3   0.086482 0.304509 0.815166 -0.353390
H26   H     H_    0.036723 0.268211 0.894255 0.164978
H27   H     H_    0.179930 0.245017 0.773802 0.151265
H28   H     H_    0.000761 0.299022 0.774390 0.171647

loop_
_geom_bond_atom_site_label_1
_geom_bond_atom_site_label_2
_ccdc_geom_bond_type
O11   C34   S    
C12   O4    A    
C9    C25   A    
C15   H2    S    
C21   H6    S    
Cu1   O5    S    
O9    C29   S    
C31   H19   S    
C34   H27   S    
Cu1   O3    S    
C32   H18   S    
Cu2   O4    S    
C3    C7    A    
C5    C6    A    
C1    O2    A    
C15   C16   A    
C26   O11   S    
C11   H12   S    
C32   H17   S    
C18   C19   A    
C33   H24   S    
C20   H5    S    
C30   H21   S    
C19   N1    A    
C16   C17   A    
C34   H28   S    
C24   H8    S    
C4    C8    A    
C22   O6    A    
C10   C26   A    
C7    H11   S    
Cu2   O6    S    
C31   C32   S    
C13   C14   A    
Cu1   N1    S    
C8    C25   A    
Cu2   N2    S    
C12   O3    A    
C13   H1    S    
C29   H14   S    
C34   H26   S    
O10   C33   S    
C28   H9    S    
C30   C31   S    
Cu1   O1    S    
C32   H16   S    
C33   H25   S    
C2    C4    A    
Cu1   Cu2   S    
C18   N2    A    
C21   N2    A    
C23   O7    A    
C27   H10   S    
C26   C27   A    
C6    H7    S    
C16   C30   S    
C10   C12   S    
C22   O5    A    
C8    O10   S    
C9    O9    S    
C20   N1    A    
Cu1   O7    S    
Cu2   O8    S    
C29   H13   S    
C11   C17   A    
Cu2   O2    S    
C4    C5    A    
C19   H4    S    
C9    C24   A    
C6    C7    A    
C1    C17   S    
C14   C22   S    
C2    C3    A    
C3    C10   A    
C31   H20   S    
C11   C13   A    
C1    O1    A    
C23   O8    A    
C5    C24   A    
C23   C25   S    
C33   H23   S    
C18   H3    S    
C30   H22   S    
C20   C21   A    
C27   C28   A    
C14   C15   A    
C2    C28   A    
C29   H15   S    
