data_mof_unit_21764.cif
_audit_creation_date              2012-12-10T18:07:24-0500
_audit_creation_method            fapswitch 2.2
_symmetry_space_group_name_H-M    P1
_symmetry_Int_Tables_number       1
_space_group_crystal_system       triclinic
_cell_length_a                    18.279751
_cell_length_b                    18.27937
_cell_length_c                    42.976916
_cell_angle_alpha                 89.999574
_cell_angle_beta                  89.997015
_cell_angle_gamma                 89.997515
_cell_volume                      14360.4069026

loop_
_atom_site_label
_atom_site_type_symbol
_atom_type_description
_atom_site_fract_x
_atom_site_fract_y
_atom_site_fract_z
_atom_type_partial_charge
C1    C     C_R   0.434048 0.005080 0.115008 -0.134401
C2    C     C_R   0.065924 0.494569 0.384991 -0.133932
C3    C     C_R   0.265256 0.788617 0.722306 0.226414
C4    C     C_R   0.212622 0.266790 0.277846 0.227777
C5    C     C_R   0.787640 0.733286 0.722234 0.225774
C6    C     C_R   0.265337 0.788534 0.277706 0.226364
C7    C     C_R   0.733969 0.211923 0.722277 0.224418
C8    C     C_R   0.196280 0.696074 0.249910 -0.033324
C9    C     C_R   0.803845 0.303841 0.750001 -0.032014
C10   C     C_R   0.303800 0.196204 0.250000 -0.035148
C11   C     C_R   0.696268 0.803909 0.749923 -0.033769
C12   C     C_R   0.803927 0.303718 0.250090 -0.033328
C13   C     C_R   0.505269 0.934062 0.615006 -0.133428
C14   C     C_R   0.196284 0.696069 0.750091 -0.033308
C15   C     C_R   0.696202 0.803799 0.250000 -0.035123
C16   C     C_R   0.303909 0.196269 0.750076 -0.033793
C17   C     C_R   0.196092 0.303732 0.749923 -0.033776
C18   C     C_R   0.803841 0.696158 0.250000 -0.032395
C19   C     C_R   0.303716 0.803931 0.749909 -0.033303
C20   C     C_R   0.696072 0.196281 0.249910 -0.033368
C21   C     C_R   0.803733 0.696093 0.750077 -0.033751
C22   C     C_R   0.196157 0.303839 0.249999 -0.032435
C23   C     C_R   0.696195 0.196200 0.749999 -0.034762
C24   C     C_R   0.494941 0.065956 0.384993 -0.134405
C25   C     C_R   0.303720 0.803927 0.250090 -0.033365
C26   C     C_R   0.499999 0.999995 0.065906 0.055744
C27   C     C_R   0.499995 0.000023 0.934094 0.055710
C28   C     C_R   0.999940 0.499995 0.065906 0.055592
C29   C     C_R   0.999937 0.499995 0.934094 0.055626
C30   C     C_R   0.000011 0.500008 0.565906 0.055687
C31   C     C_R   0.000005 0.500019 0.434094 0.055577
C32   C     C_R   0.500093 0.000010 0.565905 0.055649
C33   C     C_R   0.500076 0.000008 0.434094 0.055745
C34   C     C_3   0.301234 0.829255 0.176639 -0.064938
C35   C     C_R   0.065938 0.494645 0.615006 -0.133949
C36   C     C_3   0.700025 0.169556 0.823306 -0.065445
C37   C     C_3   0.169954 0.297604 0.176122 -0.076240
C38   C     C_3   0.829493 0.701710 0.823904 -0.077098
C39   C     C_3   0.699030 0.172673 0.176081 -0.070337
C40   C     C_3   0.301423 0.829055 0.823370 -0.064972
C41   C     C_3   0.829926 0.702239 0.176115 -0.076255
C42   C     C_3   0.168445 0.298741 0.823311 -0.073131
C43   C     C_3   0.298204 0.170433 0.823901 -0.077118
C44   C     C_3   0.701683 0.831935 0.176711 -0.073553
C45   C     C_3   0.172863 0.698786 0.823924 -0.070389
C46   C     C_R   0.934077 0.505462 0.384995 -0.133432
C47   C     C_3   0.829266 0.301214 0.176638 -0.064924
C48   C     C_3   0.701187 0.831488 0.823313 -0.073081
C49   C     C_3   0.298187 0.167933 0.176719 -0.073510
C50   C     C_3   0.828414 0.299599 0.823884 -0.068928
C51   C     C_3   0.172690 0.699021 0.176080 -0.070281
C52   C     C_3   0.799614 0.328417 0.676115 -0.068914
C53   C     C_3   0.198769 0.670750 0.323362 -0.064922
C54   C     C_3   0.670509 0.798292 0.676096 -0.077144
C55   C     C_3   0.332066 0.201825 0.323280 -0.073521
C56   C     C_3   0.198578 0.670945 0.676630 -0.064977
C57   C     C_R   0.494846 0.065949 0.615007 -0.134398
C58   C     C_3   0.800966 0.327321 0.323920 -0.070272
C59   C     C_3   0.331566 0.201270 0.676690 -0.073099
C60   C     C_3   0.668060 0.798326 0.323289 -0.073551
C61   C     C_3   0.797752 0.670080 0.323885 -0.076259
C62   C     C_3   0.201798 0.329570 0.676099 -0.077073
C63   C     C_3   0.670729 0.198782 0.323361 -0.064938
C64   C     C_3   0.327138 0.801216 0.676076 -0.070382
C65   C     C_3   0.202383 0.330048 0.323878 -0.076222
C66   C     C_3   0.798824 0.668523 0.676685 -0.073114
C67   C     C_3   0.327315 0.800983 0.323918 -0.070349
C68   C     C_R   0.505144 0.934051 0.384995 -0.133886
C69   C     C_3   0.669559 0.200040 0.676695 -0.065452
C70   C     C_3   0.333489 0.077780 0.071584 -0.095269
C71   C     C_3   0.666398 0.922007 0.928420 -0.095338
C72   C     C_3   0.078642 0.333903 0.071581 -0.095348
C73   C     C_3   0.921367 0.666134 0.928417 -0.095430
C74   C     C_3   0.666500 0.922197 0.071570 -0.095319
C75   C     C_3   0.333616 0.078074 0.928424 -0.095434
C76   C     C_3   0.921227 0.666072 0.071589 -0.095399
C77   C     C_3   0.078474 0.333829 0.928423 -0.095341
C78   C     C_3   0.833819 0.578476 0.571582 -0.095352
C79   C     C_R   0.433561 0.007492 0.082395 0.230751
C80   C     C_3   0.166072 0.421307 0.428420 -0.095339
C81   C     C_3   0.578217 0.833667 0.571580 -0.095475
C82   C     C_3   0.422261 0.166511 0.428428 -0.095269
C83   C     C_3   0.166188 0.421516 0.571579 -0.095391
C84   C     C_3   0.833922 0.578721 0.428421 -0.095397
C85   C     C_3   0.422011 0.166389 0.571574 -0.095328
C86   C     C_3   0.577903 0.833521 0.428418 -0.095318
C87   C     C_R   0.566424 0.992430 0.917605 0.230810
C88   C     C_R   0.007812 0.433597 0.082395 0.230658
C89   C     C_R   0.565941 0.994835 0.884992 -0.134310
C90   C     C_R   0.992140 0.566401 0.917606 0.230481
C91   C     C_R   0.566437 0.992492 0.082392 0.230598
C92   C     C_R   0.433568 0.007619 0.917606 0.230723
C93   C     C_R   0.992081 0.566393 0.082394 0.230492
C94   C     C_R   0.007746 0.433590 0.917606 0.230571
C95   C     C_R   0.933602 0.507779 0.582395 0.230603
C96   C     C_R   0.066401 0.492158 0.417603 0.230648
C97   C     C_R   0.507708 0.933583 0.582394 0.230519
C98   C     C_R   0.492554 0.066445 0.417606 0.230759
C99   C     C_R   0.066416 0.492231 0.582394 0.230685
C100  C     C_R   0.005415 0.434073 0.115007 -0.133948
C101  C     C_R   0.933606 0.507880 0.417608 0.230504
C102  C     C_R   0.492463 0.066435 0.582394 0.230777
C103  C     C_R   0.507579 0.933569 0.417607 0.230587
C104  C     C_R   0.500001 0.999992 0.131431 -0.048378
C105  C     C_R   0.499996 0.000010 0.868568 -0.048493
C106  C     C_R   0.999976 0.499999 0.131432 -0.047761
C107  C     C_R   0.999978 0.499998 0.868569 -0.047604
C108  C     C_R   0.000006 0.500005 0.631431 -0.048082
C109  C     C_R   0.999999 0.500011 0.368568 -0.047764
C110  C     C_R   0.500036 0.000003 0.631431 -0.048016
C111  C     C_R   0.994575 0.565927 0.884993 -0.133524
C112  C     C_R   0.500027 0.000002 0.368569 -0.048380
C113  C     C_R   0.000008 0.500019 0.468447 0.396674
C114  C     C_R   0.000012 0.500014 0.531555 0.396723
C115  C     C_R   0.500087 0.000011 0.468445 0.396728
C116  C     C_R   0.500096 0.000012 0.531553 0.396678
C117  C     C_R   0.499995 0.000017 0.968447 0.396682
C118  C     C_R   0.499997 0.000002 0.031555 0.396728
C119  C     C_R   0.999933 0.499993 0.968446 0.396712
C120  C     C_R   0.999934 0.499993 0.031553 0.396683
C121  C     C_R   0.500005 0.000000 0.334329 0.517101
C122  C     C_R   0.565953 0.994901 0.115004 -0.133889
C123  C     C_R   0.500006 0.000001 0.665671 0.517614
C124  C     C_R   0.999999 0.500003 0.334329 0.518299
C125  C     C_R   0.000002 0.500002 0.665671 0.517823
C126  C     C_R   0.999997 0.500000 0.834329 0.518250
C127  C     C_R   0.999995 0.500000 0.165671 0.518304
C128  C     C_R   0.499999 0.000001 0.834329 0.517187
C129  C     C_R   0.500001 0.999997 0.165671 0.517098
C130  C     C_R   0.359910 0.140092 0.250000 0.593882
C131  C     C_R   0.640208 0.860037 0.749917 0.593979
C132  C     C_R   0.860061 0.359770 0.250097 0.593651
C133  C     C_R   0.434052 0.005202 0.884994 -0.133853
C134  C     C_R   0.140233 0.639936 0.750099 0.593751
C135  C     C_R   0.640092 0.859909 0.250000 0.594454
C136  C     C_R   0.360036 0.140208 0.750082 0.593713
C137  C     C_R   0.140229 0.639939 0.249902 0.593643
C138  C     C_R   0.859920 0.359919 0.750000 0.593098
C139  C     C_R   0.359767 0.860064 0.749901 0.593756
C140  C     C_R   0.639939 0.140230 0.249902 0.593344
C141  C     C_R   0.859792 0.639963 0.750083 0.594137
C142  C     C_R   0.140080 0.359918 0.250000 0.593496
C143  C     C_R   0.640089 0.140090 0.750000 0.593592
C144  C     C_R   0.994514 0.565922 0.115007 -0.133431
C145  C     C_R   0.359771 0.860061 0.250098 0.593334
C146  C     C_R   0.139964 0.359792 0.749918 0.593871
C147  C     C_R   0.859918 0.640081 0.250000 0.594051
C148  C     C_R   0.288681 0.765717 0.222400 0.224907
C149  C     C_R   0.711917 0.233967 0.777722 0.224417
C150  C     C_R   0.233211 0.287372 0.222153 0.227771
C151  C     C_R   0.766409 0.712487 0.777857 0.227343
C152  C     C_R   0.711471 0.234659 0.222294 0.226366
C153  C     C_R   0.288757 0.765637 0.777587 0.224955
C154  C     C_R   0.766737 0.712569 0.222161 0.227830
C155  C     C_R   0.005351 0.434067 0.884994 -0.133971
C156  C     C_R   0.233254 0.287606 0.777770 0.225699
C157  C     C_R   0.287484 0.233561 0.777861 0.227336
C158  C     C_R   0.712648 0.766755 0.222167 0.225367
C159  C     C_R   0.234744 0.711383 0.777694 0.226412
C160  C     C_R   0.765723 0.288675 0.222399 0.224923
C161  C     C_R   0.712364 0.766718 0.777766 0.225790
C162  C     C_R   0.287302 0.233190 0.222160 0.225325
C163  C     C_R   0.765985 0.288163 0.777727 0.226907
C164  C     C_R   0.234664 0.711467 0.222294 0.226381
C165  C     C_R   0.788169 0.265987 0.722273 0.226908
C166  C     C_R   0.934076 0.505361 0.615007 -0.133884
C167  C     C_R   0.211319 0.734284 0.277600 0.224927
C168  C     C_R   0.733593 0.787515 0.722143 0.227314
C169  C     C_R   0.266809 0.212703 0.277841 0.225319
C170  C     C_R   0.211243 0.734363 0.722413 0.224954
C171  C     C_R   0.788528 0.265341 0.277706 0.226383
C172  C     C_R   0.266749 0.212397 0.722230 0.225714
C173  C     C_R   0.733242 0.787356 0.277832 0.225368
C174  C     C_R   0.787427 0.733266 0.277839 0.227828
C175  C     C_R   0.212518 0.266441 0.722139 0.227366
C176  C     C_R   0.734276 0.211325 0.277601 0.224901
H1    H     H_    0.382610 0.007143 0.127473 0.132457
H2    H     H_    0.117349 0.492210 0.372524 0.132629
H3    H     H_    0.303825 0.798493 0.652282 0.138607
H4    H     H_    0.165881 0.378368 0.325470 0.157140
H5    H     H_    0.257919 0.349029 0.316664 0.079742
H6    H     H_    0.206598 0.306892 0.347661 0.120030
H7    H     H_    0.753966 0.636050 0.687663 0.092664
H8    H     H_    0.842216 0.629553 0.669519 0.150946
H9    H     H_    0.777723 0.694626 0.655214 0.113393
H10   H     H_    0.375575 0.837630 0.325150 0.161488
H11   H     H_    0.346307 0.745000 0.317355 0.078905
H12   H     H_    0.304025 0.798150 0.347714 0.138576
H13   H     H_    0.507434 0.882626 0.627470 0.132783
H14   H     H_    0.636963 0.245003 0.687534 0.090715
H15   H     H_    0.630717 0.156415 0.669666 0.158170
H16   H     H_    0.695603 0.220916 0.655170 0.128883
H17   H     H_    0.371348 0.124407 0.067133 0.129430
H18   H     H_    0.310598 0.081222 0.095492 0.089119
H19   H     H_    0.287118 0.083123 0.055092 0.153359
H20   H     H_    0.689282 0.918521 0.904512 0.089026
H21   H     H_    0.628474 0.875434 0.932875 0.129403
H22   H     H_    0.712762 0.916605 0.944911 0.153365
H23   H     H_    0.082198 0.311009 0.095485 0.088675
H24   H     H_    0.492859 0.117394 0.372529 0.132450
H25   H     H_    0.125064 0.372021 0.067140 0.129296
H26   H     H_    0.084247 0.287577 0.055081 0.153335
H27   H     H_    0.874922 0.628047 0.932863 0.129315
H28   H     H_    0.917824 0.689012 0.904509 0.088656
H29   H     H_    0.915791 0.712475 0.944910 0.153364
H30   H     H_    0.628636 0.875576 0.067114 0.129478
H31   H     H_    0.689384 0.918738 0.095478 0.089102
H32   H     H_    0.712874 0.916858 0.055077 0.153377
H33   H     H_    0.310736 0.081566 0.904516 0.088679
H34   H     H_    0.371555 0.124635 0.932878 0.129236
H35   H     H_    0.117365 0.492354 0.627471 0.132697
H36   H     H_    0.287252 0.083491 0.944917 0.153380
H37   H     H_    0.917673 0.688953 0.095495 0.088645
H38   H     H_    0.874811 0.627947 0.067149 0.129368
H39   H     H_    0.915610 0.712405 0.055093 0.153346
H40   H     H_    0.124931 0.371899 0.932871 0.129455
H41   H     H_    0.082023 0.310947 0.904517 0.089002
H42   H     H_    0.084022 0.287488 0.944918 0.153350
H43   H     H_    0.871869 0.624949 0.567134 0.129490
H44   H     H_    0.810938 0.582009 0.595490 0.088996
H45   H     H_    0.787474 0.584012 0.555090 0.153360
H46   H     H_    0.882651 0.507818 0.372532 0.132676
H47   H     H_    0.188925 0.417707 0.404509 0.088655
H48   H     H_    0.127949 0.374901 0.432884 0.129341
H49   H     H_    0.212422 0.415716 0.444907 0.153324
H50   H     H_    0.581717 0.810794 0.595489 0.088656
H51   H     H_    0.624758 0.871631 0.567125 0.129280
H52   H     H_    0.583661 0.787302 0.555091 0.153385
H53   H     H_    0.375641 0.128644 0.432882 0.129414
H54   H     H_    0.418804 0.189406 0.404521 0.089128
H55   H     H_    0.416919 0.212879 0.444923 0.153362
H56   H     H_    0.128128 0.375049 0.567136 0.129269
H57   H     H_    0.492678 0.117383 0.627471 0.132354
H58   H     H_    0.189073 0.417982 0.595485 0.088680
H59   H     H_    0.212528 0.415968 0.555082 0.153358
H60   H     H_    0.811037 0.582280 0.404516 0.088650
H61   H     H_    0.872041 0.625141 0.432863 0.129358
H62   H     H_    0.787590 0.584328 0.444919 0.153351
H63   H     H_    0.418511 0.189275 0.595481 0.089033
H64   H     H_    0.375454 0.128447 0.567119 0.129367
H65   H     H_    0.416598 0.212750 0.555080 0.153357
H66   H     H_    0.624516 0.871397 0.432868 0.129498
H67   H     H_    0.581353 0.810639 0.404508 0.089097
H68   H     H_    0.507212 0.882611 0.372532 0.132525
H69   H     H_    0.583262 0.787147 0.444908 0.153370
H70   H     H_    0.345002 0.867584 0.169266 0.157450
H71   H     H_    0.256612 0.862547 0.187347 0.091249
H72   H     H_    0.279996 0.802499 0.155339 0.129181
H73   H     H_    0.617376 0.992695 0.872528 0.132391
H74   H     H_    0.744988 0.136959 0.812468 0.090722
H75   H     H_    0.656399 0.130715 0.830337 0.158163
H76   H     H_    0.720897 0.195604 0.844829 0.128896
H77   H     H_    0.121634 0.334105 0.174533 0.157143
H78   H     H_    0.150977 0.242067 0.183336 0.079738
H79   H     H_    0.193107 0.293390 0.152338 0.120027
H80   H     H_    0.848351 0.757421 0.816877 0.079876
H81   H     H_    0.877824 0.665181 0.825284 0.157506
H82   H     H_    0.806560 0.705437 0.847742 0.120016
H83   H     H_    0.662383 0.124413 0.174848 0.161484
H84   H     H_    0.007781 0.382648 0.127473 0.132609
H85   H     H_    0.755009 0.153679 0.182646 0.078900
H86   H     H_    0.701870 0.195962 0.152286 0.138587
H87   H     H_    0.256826 0.862423 0.812688 0.091502
H88   H     H_    0.345223 0.867323 0.830763 0.157361
H89   H     H_    0.280170 0.802234 0.844653 0.129206
H90   H     H_    0.878253 0.665745 0.174537 0.157073
H91   H     H_    0.848892 0.757804 0.183296 0.079893
H92   H     H_    0.806753 0.706380 0.152333 0.120083
H93   H     H_    0.136004 0.253874 0.812325 0.092650
H94   H     H_    0.129452 0.342120 0.830468 0.150971
H95   H     H_    0.992267 0.617356 0.872529 0.132731
H96   H     H_    0.194522 0.277643 0.844789 0.113371
H97   H     H_    0.334738 0.122106 0.825290 0.157543
H98   H     H_    0.242512 0.151567 0.816856 0.079787
H99   H     H_    0.294432 0.193356 0.847739 0.120021
H100  H     H_    0.746748 0.864043 0.187729 0.092594
H101  H     H_    0.658310 0.871152 0.169775 0.151589
H102  H     H_    0.722531 0.806269 0.155098 0.113021
H103  H     H_    0.124593 0.662149 0.825137 0.161453
H104  H     H_    0.153887 0.754806 0.817411 0.079076
H105  H     H_    0.196177 0.701508 0.847718 0.138599
H106  H     H_    0.617392 0.992834 0.127466 0.132524
H107  H     H_    0.862549 0.256587 0.187346 0.091335
H108  H     H_    0.867602 0.344978 0.169268 0.157476
H109  H     H_    0.802512 0.279980 0.155337 0.129176
H110  H     H_    0.657795 0.870456 0.830481 0.151065
H111  H     H_    0.746038 0.863964 0.812332 0.092481
H112  H     H_    0.722298 0.805388 0.844784 0.113387
H113  H     H_    0.253108 0.135876 0.187754 0.092377
H114  H     H_    0.341537 0.128677 0.169794 0.151687
H115  H     H_    0.277348 0.193560 0.155097 0.112977
H116  H     H_    0.876650 0.336220 0.825408 0.161296
H117  H     H_    0.382617 0.007351 0.872530 0.132746
H118  H     H_    0.847560 0.243893 0.816984 0.078660
H119  H     H_    0.804932 0.295938 0.847624 0.138440
H120  H     H_    0.153707 0.755008 0.182642 0.078970
H121  H     H_    0.124425 0.662381 0.174850 0.161481
H122  H     H_    0.195982 0.701846 0.152284 0.138560
H123  H     H_    0.836237 0.376653 0.674589 0.161287
H124  H     H_    0.743910 0.347568 0.683016 0.078667
H125  H     H_    0.795952 0.304932 0.652376 0.138447
H126  H     H_    0.243396 0.637462 0.312655 0.091341
H127  H     H_    0.155004 0.632416 0.330734 0.157472
H128  H     H_    0.992157 0.617348 0.127471 0.132678
H129  H     H_    0.220001 0.697509 0.344662 0.129175
H130  H     H_    0.622179 0.834821 0.674715 0.157488
H131  H     H_    0.651650 0.742582 0.683123 0.079946
H132  H     H_    0.693442 0.794564 0.652258 0.120041
H133  H     H_    0.364121 0.246905 0.312244 0.092378
H134  H     H_    0.371322 0.158475 0.330204 0.151690
H135  H     H_    0.306442 0.222667 0.344903 0.112970
H136  H     H_    0.154779 0.632677 0.669236 0.157358
H137  H     H_    0.243175 0.637577 0.687312 0.091507
H138  H     H_    0.219833 0.697767 0.655347 0.129200
H139  H     H_    0.007659 0.382639 0.872529 0.132366
H140  H     H_    0.744983 0.346307 0.317357 0.078967
H141  H     H_    0.837606 0.375586 0.325151 0.161478
H142  H     H_    0.798135 0.304031 0.347716 0.138568
H143  H     H_    0.370556 0.157890 0.669531 0.151091
H144  H     H_    0.364011 0.246130 0.687680 0.092468
H145  H     H_    0.305492 0.222379 0.655214 0.113365
H146  H     H_    0.635955 0.753258 0.312272 0.092597
H147  H     H_    0.628843 0.841700 0.330226 0.151587
H148  H     H_    0.693725 0.777480 0.344902 0.113018
H149  H     H_    0.834246 0.621752 0.325462 0.157074
H150  H     H_    0.882646 0.507639 0.627472 0.132404
H151  H     H_    0.742189 0.651112 0.316704 0.079893
H152  H     H_    0.793609 0.693254 0.347667 0.120086
H153  H     H_    0.257491 0.348434 0.683144 0.079717
H154  H     H_    0.165265 0.377897 0.674710 0.157560
H155  H     H_    0.205568 0.306647 0.652260 0.119996
H156  H     H_    0.632398 0.155014 0.330732 0.157456
H157  H     H_    0.637441 0.243404 0.312651 0.091245
H158  H     H_    0.697479 0.220023 0.344661 0.129183
H159  H     H_    0.346115 0.745196 0.682589 0.079072
H160  H     H_    0.375407 0.837854 0.674864 0.161452
N1    N     N_R   0.547382 0.957170 0.015472 -0.189681
N2    N     N_R   0.952798 0.543045 0.484529 -0.189584
N3    N     N_R   0.457243 0.047384 0.515474 -0.189685
N4    N     N_R   0.542940 0.952639 0.484523 -0.189681
N5    N     N_R   0.952799 0.543042 0.515477 -0.189686
N6    N     N_R   0.047220 0.456990 0.484525 -0.189665
N7    N     N_R   0.542945 0.952640 0.515471 -0.189570
N8    N     N_R   0.457240 0.047384 0.484526 -0.189741
N9    N     N_R   0.452611 0.042849 0.984530 -0.189601
N10   N     N_R   0.956893 0.547193 0.015475 -0.189601
N11   N     N_R   0.042973 0.452793 0.984524 -0.189720
N12   N     N_R   0.452611 0.042842 0.015478 -0.189716
N13   N     N_R   0.547380 0.957176 0.984524 -0.189649
N14   N     N_R   0.042974 0.452794 0.015472 -0.189652
N15   N     N_R   0.956893 0.547193 0.984526 -0.189646
N16   N     N_R   0.047223 0.456988 0.515473 -0.189682
O1    O     O_3   0.500000 0.000000 0.250000 -0.441111
O2    O     O_R   0.500000 0.939250 0.680570 -0.564383
O3    O     O_3   0.509761 0.867771 0.433585 -0.539440
O4    O     O_R   0.939250 0.500000 0.319430 -0.564052
O5    O     O_R   0.060750 0.500000 0.680570 -0.562674
O6    O     O_R   1.000000 0.439250 0.819430 -0.562462
O7    O     O_R   1.000000 0.560750 0.180570 -0.564050
O8    O     O_R   0.560750 0.000000 0.819430 -0.561486
O9    O     O_R   0.439250 0.000000 0.180570 -0.561458
O10   O     O_R   1.000000 0.560750 0.819430 -0.564332
O11   O     O_R   0.000000 0.439250 0.180570 -0.562393
O12   O     O_R   0.439250 0.000000 0.819430 -0.562723
O13   O     O_3   0.500000 0.000000 0.750000 -0.441035
O14   O     O_R   0.560750 0.000000 0.180570 -0.563109
O15   O     O_R   0.414500 0.146140 0.268270 -0.541240
O16   O     O_R   0.585500 0.853860 0.731730 -0.542964
O17   O     O_R   0.853860 0.414500 0.268270 -0.544024
O18   O     O_R   0.146140 0.585500 0.731730 -0.541090
O19   O     O_R   0.585500 0.853860 0.268270 -0.540848
O20   O     O_R   0.414500 0.146140 0.731730 -0.540955
O21   O     O_R   0.146140 0.585500 0.268270 -0.541214
O22   O     O_R   0.853860 0.414500 0.731730 -0.543568
O23   O     O_R   0.414500 0.853860 0.731730 -0.543921
O24   O     O_3   1.000000 0.500000 0.250000 -0.440802
O25   O     O_R   0.585500 0.146140 0.268270 -0.541359
O26   O     O_R   0.853860 0.585500 0.731730 -0.540793
O27   O     O_R   0.146140 0.414500 0.268270 -0.542915
O28   O     O_R   0.585500 0.146140 0.731730 -0.541785
O29   O     O_R   0.414500 0.853860 0.268270 -0.544181
O30   O     O_R   0.146140 0.414500 0.731730 -0.543315
O31   O     O_R   0.853860 0.585500 0.268270 -0.542548
O32   O     O_R   0.914500 0.646140 0.768270 -0.542951
O33   O     O_R   0.085500 0.353860 0.231730 -0.542928
O34   O     O_R   0.353860 0.914500 0.768270 -0.541088
O35   O     O_3   0.000000 0.500000 0.750000 -0.440872
O36   O     O_R   0.646140 0.085500 0.231730 -0.544176
O37   O     O_R   0.085500 0.353860 0.768270 -0.540818
O38   O     O_R   0.914500 0.646140 0.231730 -0.542544
O39   O     O_R   0.646140 0.085500 0.768270 -0.541778
O40   O     O_R   0.353860 0.914500 0.231730 -0.541356
O41   O     O_R   0.914500 0.353860 0.231730 -0.541217
O42   O     O_R   0.085500 0.646140 0.768270 -0.543922
O43   O     O_R   0.353860 0.085500 0.231730 -0.541228
O44   O     O_R   0.646140 0.914500 0.768270 -0.540930
O45   O     O_R   0.085500 0.646140 0.231730 -0.544030
O46   O     O_R   0.500000 0.939250 0.319430 -0.563105
O47   O     O_R   0.914500 0.353860 0.768270 -0.543577
O48   O     O_R   0.646140 0.914500 0.231730 -0.540852
O49   O     O_R   0.353860 0.085500 0.768270 -0.543328
O50   O     O_3   0.332356 0.775769 0.196410 -0.518485
O51   O     O_3   0.668812 0.223666 0.803866 -0.518853
O52   O     O_3   0.222780 0.329994 0.195864 -0.517090
O53   O     O_3   0.776459 0.669748 0.804138 -0.517367
O54   O     O_3   0.667945 0.225491 0.196199 -0.519694
O55   O     O_3   0.332499 0.775622 0.803559 -0.518388
O56   O     O_3   0.777121 0.669896 0.195884 -0.516974
O57   O     O_R   0.500000 0.060750 0.680570 -0.561465
O58   O     O_3   0.222448 0.330455 0.803961 -0.516594
O59   O     O_3   0.330194 0.223479 0.804146 -0.517459
O60   O     O_3   0.670063 0.777558 0.195901 -0.516874
O61   O     O_3   0.225653 0.667780 0.803771 -0.519621
O62   O     O_3   0.775780 0.332345 0.196409 -0.518408
O63   O     O_3   0.669491 0.777501 0.803952 -0.516441
O64   O     O_3   0.329843 0.222338 0.195882 -0.516993
O65   O     O_3   0.775784 0.331382 0.803875 -0.519178
O66   O     O_3   0.225501 0.667936 0.196200 -0.519625
O67   O     O_3   0.831393 0.275788 0.696126 -0.519189
O68   O     O_R   0.060750 0.500000 0.319430 -0.562393
O69   O     O_3   0.167644 0.724232 0.303590 -0.518411
O70   O     O_3   0.723542 0.830254 0.695862 -0.517466
O71   O     O_3   0.277660 0.170166 0.304119 -0.516996
O72   O     O_3   0.167502 0.724377 0.696441 -0.518399
O73   O     O_3   0.832054 0.274508 0.303801 -0.519622
O74   O     O_3   0.277560 0.169553 0.696038 -0.516568
O75   O     O_3   0.722436 0.829946 0.304099 -0.516873
O76   O     O_3   0.830096 0.722885 0.304116 -0.516976
O77   O     O_3   0.169808 0.276523 0.695854 -0.517360
O78   O     O_3   0.724219 0.167655 0.303591 -0.518484
O79   O     O_R   0.939250 0.500000 0.680570 -0.562485
O80   O     O_3   0.274347 0.832221 0.696229 -0.519612
O81   O     O_3   0.169996 0.277222 0.304135 -0.517090
O82   O     O_3   0.830517 0.722506 0.696049 -0.516467
O83   O     O_3   0.274500 0.832064 0.303800 -0.519698
O84   O     O_3   0.723670 0.168824 0.696133 -0.518842
O85   O     O_3   0.367762 0.009647 0.066420 -0.539299
O86   O     O_3   0.632222 0.990189 0.933579 -0.539234
O87   O     O_3   0.010326 0.367808 0.066419 -0.539232
O88   O     O_3   0.989661 0.632189 0.933583 -0.539372
O89   O     O_3   0.632235 0.990336 0.066412 -0.539418
O90   O     O_R   0.500000 0.060750 0.319430 -0.561459
O91   O     O_3   0.367770 0.009880 0.933583 -0.539219
O92   O     O_3   0.989547 0.632181 0.066418 -0.539374
O93   O     O_3   0.010190 0.367800 0.933584 -0.539366
O94   O     O_3   0.867814 0.510205 0.566418 -0.539389
O95   O     O_3   0.132191 0.489640 0.433575 -0.539241
O96   O     O_3   0.510008 0.867786 0.566419 -0.539347
O97   O     O_3   0.490399 0.132246 0.433583 -0.539287
O98   O     O_3   0.132206 0.489794 0.566415 -0.539245
O99   O     O_3   0.867820 0.510401 0.433586 -0.539360
O100  O     O_3   0.490206 0.132235 0.566419 -0.539211
Zn1   Zn    Zn3+2 0.413200 0.000000 0.224130 0.951342
Zn2   Zn    Zn3+2 0.086800 0.500000 0.275870 0.950742
Zn3   Zn    Zn3+2 0.500000 0.913200 0.724130 0.949737
Zn4   Zn    Zn3+2 0.500000 0.086800 0.275870 0.951341
Zn5   Zn    Zn3+2 0.086800 0.500000 0.724130 0.950937
Zn6   Zn    Zn3+2 0.913200 0.500000 0.275870 0.949955
Zn7   Zn    Zn3+2 0.500000 0.086800 0.724130 0.951165
Zn8   Zn    Zn3+2 0.500000 0.913200 0.275870 0.950560
Zn9   Zn    Zn3+2 0.586800 0.000000 0.775870 0.951496
Zn10  Zn    Zn3+2 0.000000 0.413200 0.224130 0.950740
Zn11  Zn    Zn3+2 0.000000 0.586800 0.775870 0.949810
Zn12  Zn    Zn3+2 0.586800 0.000000 0.224130 0.950560
Zn13  Zn    Zn3+2 0.413200 0.000000 0.775870 0.950865
Zn14  Zn    Zn3+2 0.000000 0.586800 0.224130 0.949954
Zn15  Zn    Zn3+2 0.000000 0.413200 0.775870 0.950462
Zn16  Zn    Zn3+2 0.913200 0.500000 0.724130 0.950793

loop_
_geom_bond_atom_site_label_1
_geom_bond_atom_site_label_2
_ccdc_geom_bond_type
C38   H80   S    
C82   H55   S    
C22   C150  A    
C36   O51   S    
C92   C133  A    
C14   C170  A    
C69   H15   S    
O12   Zn13  S    
C67   H12   S    
C164  O66   S    
C57   C102  A    
C29   C119  S    
C145  O29   A    
C116  N7    A    
C24   C98   A    
C31   C101  A    
C52   H123  S    
C53   O69   S    
C170  O72   S    
C53   H126  S    
C154  C158  A    
C176  O78   S    
C126  O10   A    
C6    C25   A    
C83   H56   S    
O11   Zn10  S    
O4    Zn6   S    
C76   H37   S    
C75   O91   S    
C70   H19   S    
C151  C161  A    
C91   C122  A    
C34   H70   S    
O24   Zn2   S    
C85   O100  S    
C3    C19   A    
C80   H49   S    
O16   Zn3   S    
C172  C175  A    
C165  O67   S    
C65   H6    S    
C40   H89   S    
C127  O7    A    
C23   C149  A    
C94   O93   S    
C10   C162  A    
C67   O83   S    
C23   C143  S    
C65   O81   S    
C118  N1    A    
C56   H138  S    
C7    O84   S    
C27   C117  S    
O30   Zn5   S    
C75   H36   S    
C15   C173  A    
C139  O34   A    
C60   H148  S    
C39   H85   S    
O47   Zn15  S    
C106  C127  S    
C140  O25   A    
C101  O99   S    
C63   H158  S    
C50   H118  S    
C119  N11   A    
C78   H43   S    
N1    N13   A    
C9    C138  S    
C78   O94   S    
C55   O71   S    
C86   H66   S    
C3    C170  A    
O79   Zn16  S    
C32   C116  S    
N9    N12   A    
C59   H144  S    
N6    N16   A    
C113  N6    A    
C138  O22   A    
C84   O99   S    
C44   H100  S    
C82   H53   S    
C83   H59   S    
C115  N8    A    
C104  C129  S    
C87   C89   A    
C28   C120  S    
C1    C79   A    
O23   Zn3   S    
C41   H91   S    
C95   C166  A    
C173  O75   S    
C61   H152  S    
C105  C133  A    
C108  C166  A    
C12   C132  S    
C121  O90   A    
C52   H125  S    
C134  O18   A    
C161  O63   S    
C162  O64   S    
C128  O12   A    
C65   H4    S    
C129  O14   A    
C59   O74   S    
C38   O53   S    
C100  C106  A    
C46   H46   S    
C2    C96   A    
C17   C146  S    
C91   O89   S    
C123  O2    A    
C50   O65   S    
C64   H160  S    
C76   H39   S    
C77   H41   S    
C54   O70   S    
C70   H17   S    
C36   H76   S    
C42   H96   S    
O35   Zn5   S    
C103  O3    S    
C5    C21   A    
C24   H24   S    
C19   C139  S    
C37   H78   S    
O14   Zn12  S    
O45   Zn14  S    
C51   H122  S    
C107  C155  A    
C79   O85   S    
C77   H40   S    
C80   H47   S    
C2    C109  A    
C153  C159  A    
O38   Zn14  S    
O27   Zn2   S    
C84   H61   S    
C24   C112  A    
N4    N7    A    
C157  O59   S    
C158  O60   S    
N10   N15   A    
C128  O8    A    
C43   H98   S    
C10   C169  A    
C156  O58   S    
C73   H27   S    
C124  O4    A    
C55   H134  S    
C90   O88   S    
C29   C94   A    
C80   O95   S    
C104  C122  A    
C136  O20   A    
C31   C96   A    
C125  O79   A    
C63   O78   S    
O22   Zn16  S    
C68   C112  A    
C61   H149  S    
C137  O45   A    
C114  N16   A    
C44   H102  S    
C72   O87   S    
C129  O9    A    
C94   C155  A    
C45   H103  S    
C102  O100  S    
C166  H150  S    
O32   Zn11  S    
C25   C148  A    
C117  N13   A    
C18   C154  A    
C145  O40   A    
O9    Zn1   S    
N3    N8    A    
C36   H74   S    
C13   C97   A    
O1    Zn4   S    
C49   H114  S    
C175  O77   S    
C90   C111  A    
C38   H82   S    
C126  O6    A    
C74   H31   S    
C37   O52   S    
C46   C101  A    
C148  O50   S    
C92   O91   S    
C81   H50   S    
C148  C164  A    
O13   Zn7   S    
C54   H131  S    
C15   C158  A    
C18   C147  S    
C8    C164  A    
C64   H3    S    
C62   H154  S    
C120  N14   A    
C140  O36   A    
C124  O68   A    
C53   H129  S    
C42   H94   S    
C4    C22   A    
C127  O11   A    
C22   C142  S    
O18   Zn5   S    
C41   O56   S    
O8    Zn9   S    
C27   C87   A    
C66   O82   S    
C99   O98   S    
C51   H120  S    
C93   C144  A    
C47   H107  S    
C18   C174  A    
C174  O76   S    
O36   Zn12  S    
C86   H69   S    
C138  O47   A    
O26   Zn16  S    
C46   C109  A    
C143  O28   A    
O1    Zn8   S    
C58   H140  S    
C16   C136  S    
C71   H22   S    
C72   H26   S    
C73   H29   S    
C131  O44   A    
C107  C111  A    
C26   C118  S    
C142  O33   A    
C69   H14   S    
C17   C175  A    
O42   Zn11  S    
O43   Zn1   S    
N2    N5    A    
C171  C176  A    
C136  O49   A    
C76   O92   S    
C14   C159  A    
C85   H64   S    
O24   Zn10  S    
C61   H151  S    
C58   H141  S    
C112  C121  S    
C72   H23   S    
O35   Zn15  S    
O33   Zn10  S    
C71   O86   S    
C20   C176  A    
C115  N4    A    
C7    C23   A    
C172  O74   S    
C21   C151  A    
C82   H54   S    
C48   O63   S    
C143  O39   A    
C76   H38   S    
C146  O37   A    
C89   C105  A    
C34   H71   S    
C73   O88   S    
C88   O87   S    
C2    H2    S    
C132  O41   A    
C31   C113  S    
C40   O55   S    
O57   Zn7   S    
C66   H7    S    
C81   O96   S    
C74   H32   S    
C81   H52   S    
C70   O85   S    
C168  O70   S    
C111  H95   S    
O44   Zn9   S    
C56   O72   S    
C152  C160  A    
C75   H34   S    
C146  O30   A    
C86   O3    S    
C67   H11   S    
C89   H73   S    
O2    Zn3   S    
C135  O48   A    
C84   H60   S    
C160  O62   S    
C40   H87   S    
C43   H99   S    
C11   C161  A    
C69   H16   S    
C63   H157  S    
C5    C168  A    
C50   H119  S    
C9    C163  A    
C55   H135  S    
C56   H136  S    
C78   H44   S    
C48   H110  S    
O68   Zn2   S    
C86   H67   S    
C134  O42   A    
C68   C103  A    
C59   H143  S    
C95   O94   S    
C139  O23   A    
C83   O98   S    
C7    C165  A    
C34   O50   S    
C41   H90   S    
C5    O82   S    
O13   Zn13  S    
O7    Zn14  S    
C29   C90   A    
C12   C171  A    
O49   Zn13  S    
O41   Zn10  S    
O24   Zn14  S    
C150  C162  A    
C33   C115  S    
O28   Zn7   S    
O1    Zn1   S    
C3    O80   S    
C53   H127  S    
C61   O76   S    
C65   H5    S    
C52   O67   S    
C26   C91   A    
C141  O32   A    
C20   C152  A    
C8    C137  S    
C47   O62   S    
O46   Zn8   S    
C10   C130  S    
C117  N9    A    
C30   C95   A    
C8    C167  A    
C6    O83   S    
C80   H48   S    
C57   C110  A    
C4    O81   S    
C70   H18   S    
C87   O86   S    
C85   H65   S    
C109  C124  S    
C12   C160  A    
C122  H106  S    
C114  N5    A    
C88   C100  A    
C39   H83   S    
C169  O71   S    
C96   O95   S    
C42   O58   S    
C37   H77   S    
C69   O84   S    
C11   C168  A    
O13   Zn3   S    
C63   H156  S    
C50   H116  S    
C51   H121  S    
C56   H137  S    
C51   O66   S    
C120  N10   A    
C30   C114  S    
C75   H33   S    
C16   C157  A    
C33   C103  A    
C97   O96   S    
C84   H62   S    
C60   H147  S    
C39   H86   S    
C49   O64   S    
C43   H97   S    
C26   C79   A    
C20   C140  S    
C9    C165  A    
C55   H133  S    
C21   C141  S    
O5    Zn5   S    
C147  O38   A    
C48   H112  S    
C52   H124  S    
C163  O65   S    
C48   H111  S    
C116  N3    A    
O1    Zn12  S    
O6    Zn15  S    
C44   O60   S    
C58   O73   S    
C45   O61   S    
C66   H9    S    
C28   C93   A    
C41   H92   S    
C17   C156  A    
C98   O97   S    
N11   N14   A    
C100  H84   S    
O29   Zn8   S    
C77   H42   S    
O24   Zn6   S    
C49   H113  S    
O35   Zn11  S    
C151  O53   S    
C155  H139  S    
C173  C174  A    
C141  O26   A    
C147  O31   A    
C156  C157  A    
C54   H132  S    
C123  O57   A    
C110  C123  S    
C64   H159  S    
C43   O59   S    
C62   H155  S    
C15   C135  S    
C36   H75   S    
C13   H13   S    
C32   C97   A    
C33   C98   A    
C35   H35   S    
C35   C108  A    
C60   O75   S    
C1    H1    S    
C121  O46   A    
C37   H79   S    
C28   C88   A    
C149  C163  A    
C133  H117  S    
C108  C125  S    
C137  O21   A    
C67   H10   S    
O39   Zn9   S    
C77   O93   S    
C144  H128  S    
C59   H145  S    
O90   Zn4   S    
C159  O61   S    
C152  O54   S    
C35   C99   A    
C150  O52   S    
C113  N2    A    
C71   H21   S    
C125  O5    A    
C73   H28   S    
C45   H105  S    
C4    C169  A    
C93   O92   S    
C47   H109  S    
C135  O19   A    
O10   Zn11  S    
C14   C134  S    
C30   C99   A    
C85   H63   S    
C58   H142  S    
O25   Zn4   S    
C167  O69   S    
C13   C110  A    
O15   Zn4   S    
C16   C172  A    
C44   H101  S    
C39   O54   S    
C83   H58   S    
C153  O55   S    
C45   H104  S    
O19   Zn8   S    
C154  O56   S    
C27   C92   A    
O17   Zn6   S    
O13   Zn9   S    
C1    C104  A    
O40   Zn1   S    
C34   H72   S    
O37   Zn15  S    
C32   C102  A    
C130  O15   A    
C49   H115  S    
C38   H81   S    
C132  O17   A    
O35   Zn16  S    
O20   Zn7   S    
C74   H30   S    
C66   H8    S    
C6    C167  A    
C82   O97   S    
C81   H51   S    
C105  C128  S    
C54   H130  S    
C107  C126  S    
C11   C131  S    
C57   H57   S    
C62   H153  S    
C106  C144  A    
C64   O80   S    
C131  O16   A    
C74   O89   S    
C42   H93   S    
C171  O73   S    
C60   H146  S    
C40   H88   S    
C71   H20   S    
C68   H68   S    
C19   C153  A    
C130  O43   A    
C149  O51   S    
C119  N15   A    
C118  N12   A    
O31   Zn6   S    
C47   H108  S    
C78   H45   S    
O34   Zn13  S    
C25   C145  S    
C142  O27   A    
C62   O77   S    
O21   Zn2   S    
C72   H25   S    
O48   Zn12  S    
