data_mof_unit_68376.cif
_audit_creation_date              2012-12-11T14:17:47-0500
_audit_creation_method            fapswitch 2.2
_symmetry_space_group_name_H-M    P1
_symmetry_Int_Tables_number       1
_space_group_crystal_system       triclinic
_cell_length_a                    11.689405
_cell_length_b                    11.654256
_cell_length_c                    18.47473
_cell_angle_alpha                 90.92731
_cell_angle_beta                  88.532596
_cell_angle_gamma                 120.687089
_cell_volume                      2163.67335233

loop_
_atom_site_label
_atom_site_type_symbol
_atom_type_description
_atom_site_fract_x
_atom_site_fract_y
_atom_site_fract_z
_atom_type_partial_charge
C1    C     C_R   0.521112 0.458095 0.148405 0.543794
C2    C     C_R   0.541571 0.060797 0.149390 0.551655
C3    C     C_R   0.939134 0.480226 0.148931 0.543530
C4    C     C_R   0.450782 0.521697 0.853819 0.534821
C5    C     C_R   0.069243 0.548137 0.853682 0.613112
C6    C     C_R   0.477429 0.929592 0.853976 0.587337
C7    C     C_R   0.396364 0.009460 0.462616 0.228452
C8    C     C_R   0.995328 0.395876 0.458565 0.200568
C9    C     C_R   0.645037 0.511916 0.480795 0.171819
C10   C     C_R   0.005600 0.398234 0.534347 0.193551
C11   C     C_R   0.393192 0.994248 0.537901 0.172929
C12   C     C_R   0.618895 0.565289 0.543707 0.258684
C13   C     C_R   0.725724 0.043385 0.548089 0.209239
C14   C     C_R   0.935257 0.663820 0.576364 0.284710
C15   C     C_R   0.322162 0.237853 0.593485 0.306392
C16   C     C_R   0.067310 0.741463 0.439455 0.232254
C17   C     C_R   0.634347 0.905450 0.414843 0.251842
C18   C     C_R   0.294903 0.324627 0.459077 0.227481
C19   C     C_R   0.795826 0.996815 0.507876 0.329205
C20   C     C_R   0.995028 0.793477 0.552359 0.305925
C21   C     C_R   0.195260 0.189858 0.564610 0.376924
C22   C     C_R   0.021186 0.814607 0.477806 0.341938
C23   C     C_R   0.766085 0.965471 0.433837 0.312710
C24   C     C_R   0.187584 0.214404 0.490253 0.293031
C25   C     C_R   0.541905 0.423880 0.361291 0.562102
C26   C     C_R   0.542279 0.064434 0.352867 0.513612
C27   C     C_R   0.936864 0.481760 0.352733 0.562529
C28   C     C_R   0.459549 0.514779 0.649584 0.572024
C29   C     C_R   0.066321 0.543850 0.646200 0.556757
C30   C     C_R   0.479145 0.931798 0.645085 0.560238
C31   C     C_R   0.491315 0.968373 0.930292 0.040529
C32   C     C_R   0.027735 0.523555 0.929577 0.057640
C33   C     C_R   0.476002 0.502724 0.928478 0.008953
C34   C     C_R   0.012104 0.500890 0.079799 -0.017714
C35   C     C_R   0.489667 0.987491 0.081012 0.032950
C36   C     C_R   0.502330 0.506681 0.078785 -0.017248
C37   C     C_R   0.415512 0.018043 0.964176 -0.036630
C38   C     C_R   0.976057 0.396199 0.960791 -0.022505
C39   C     C_R   0.604207 0.573715 0.957983 -0.069240
C40   C     C_R   0.990031 0.389382 0.035982 -0.086944
C41   C     C_R   0.397994 0.005921 0.040052 -0.028990
C42   C     C_R   0.613450 0.594503 0.033788 -0.069854
C43   C     C_R   0.561295 0.936429 0.047030 -0.170435
C44   C     C_R   0.065698 0.625698 0.048252 -0.150030
C45   C     C_R   0.377037 0.436028 0.048535 -0.149462
C46   C     C_R   0.078103 0.637513 0.974217 -0.136924
C47   C     C_R   0.557216 0.921338 0.973048 -0.138293
C48   C     C_R   0.363474 0.439002 0.974843 -0.111974
C49   C     C_R   0.357795 0.079185 0.925378 0.193336
C50   C     C_R   0.912591 0.276999 0.919353 0.190536
C51   C     C_R   0.722500 0.630328 0.914333 0.198458
C52   C     C_R   0.975791 0.270106 0.064587 0.220734
C53   C     C_R   0.293371 0.016826 0.072750 0.212528
C54   C     C_R   0.733331 0.701212 0.061400 0.220201
C55   C     C_R   0.262327 0.102651 0.960308 0.302299
C56   C     C_R   0.889741 0.156345 0.949908 0.269861
C57   C     C_R   0.843636 0.727798 0.944098 0.337697
C58   C     C_R   0.916349 0.152447 0.022754 0.382471
C59   C     C_R   0.236052 0.078536 0.034378 0.323441
C60   C     C_R   0.849408 0.759191 0.017588 0.367971
C61   C     C_R   0.497110 0.990005 0.571872 -0.002443
C62   C     C_R   0.002120 0.498454 0.575242 -0.000468
C63   C     C_R   0.516907 0.470243 0.589717 0.016272
C64   C     C_R   0.002242 0.504593 0.423322 0.022382
C65   C     C_R   0.487703 0.991618 0.420931 -0.003534
C66   C     C_R   0.532702 0.442134 0.439868 0.034919
C67   C     C_R   0.596338 0.997147 0.526161 -0.116158
C68   C     C_R   0.977599 0.585346 0.539118 -0.070033
C69   C     C_R   0.430216 0.345551 0.556270 -0.121981
C70   C     C_R   0.023628 0.613434 0.466522 -0.126625
C71   C     C_R   0.559155 0.945657 0.455647 -0.101344
C72   C     C_R   0.418714 0.358555 0.481485 -0.085766
Cr1   Cr    Cr6+3 0.768550 0.541320 0.250660 1.014814
Cr2   Cr    Cr6+3 0.458680 0.227230 0.250660 1.035039
Cr3   Cr    Cr6+3 0.772770 0.231450 0.250660 0.998715
Cr4   Cr    Cr6+3 0.541320 0.768550 0.749340 1.023913
Cr5   Cr    Cr6+3 0.227230 0.458680 0.749340 1.002004
Cr6   Cr    Cr6+3 0.231450 0.772770 0.749340 1.015905
H1    H     H_    0.624552 0.912932 0.077417 0.174305
H2    H     H_    0.092299 0.713457 0.080806 0.198342
H3    H     H_    0.289614 0.376059 0.081904 0.179090
H4    H     H_    0.127825 0.737432 0.952128 0.195501
H5    H     H_    0.607468 0.872811 0.949506 0.204131
H6    H     H_    0.263414 0.390991 0.954278 0.192706
O1    O     O_R   0.910960 0.572410 0.171010 -0.504996
O2    O     O_R   0.427590 0.338550 0.171010 -0.526314
O3    O     O_R   0.661450 0.089040 0.171010 -0.537467
O4    O     O_R   0.572410 0.910960 0.828990 -0.531626
O5    O     O_R   0.338550 0.427590 0.828990 -0.538981
O6    O     O_R   0.089040 0.661450 0.828990 -0.515135
O7    O     O_R   0.639750 0.528530 0.175600 -0.463523
O8    O     O_R   0.471470 0.111220 0.175600 -0.450192
O9    O     O_R   0.888780 0.360250 0.175600 -0.467381
O10   O     O_R   0.528530 0.639750 0.824400 -0.468982
O11   O     O_R   0.111220 0.471470 0.824400 -0.477142
O12   O     O_R   0.360250 0.888780 0.824400 -0.465233
O13   O     O_R   0.909330 0.572400 0.331540 -0.522325
O14   O     O_R   0.427600 0.336930 0.331540 -0.490707
O15   O     O_R   0.663070 0.090670 0.331540 -0.580019
O16   O     O_R   0.572400 0.909330 0.668460 -0.503336
O17   O     O_R   0.336930 0.427600 0.668460 -0.549297
O18   O     O_R   0.090670 0.663070 0.668460 -0.535888
O19   O     O_R   0.638240 0.528520 0.324410 -0.530248
O20   O     O_R   0.471480 0.109720 0.324410 -0.461795
O21   O     O_R   0.890280 0.361760 0.324410 -0.485364
O22   O     O_R   0.528520 0.638240 0.675590 -0.485126
O23   O     O_R   0.109720 0.471480 0.675590 -0.497187
O24   O     O_R   0.361760 0.890280 0.675590 -0.502898
O25   O     O_3   0.666667 0.333333 0.250630 -0.321003
O26   O     O_3   0.333333 0.666667 0.749370 -0.315844
O27   O     O_3   0.406217 0.127341 0.856665 -0.719213
H7    H     H_    0.395020 0.204462 0.847272 0.326640
O28   O     O_3   0.864974 0.279380 0.851940 -0.706538
H8    H     H_    0.788470 0.189850 0.840784 0.336241
O29   O     O_3   0.724987 0.586190 0.844762 -0.699565
H9    H     H_    0.653780 0.491224 0.841143 0.321046
O30   O     O_3   0.030474 0.267902 0.129714 -0.704152
H10   H     H_    0.097298 0.360574 0.143624 0.321316
O31   O     O_3   0.242381 0.955152 0.138969 -0.697623
H11   H     H_    0.160160 0.955254 0.152168 0.318154
O32   O     O_3   0.737453 0.761624 0.127151 -0.712861
H12   H     H_    0.645930 0.738717 0.141572 0.311526
O33   O     O_3   0.189956 0.145616 0.923321 -0.641890
H13   H     H_    0.185864 0.119387 0.871752 0.330292
O34   O     O_3   0.847446 0.041596 0.909329 -0.651388
H14   H     H_    0.873288 0.066350 0.857934 0.324262
O35   O     O_3   0.959076 0.796261 0.902724 -0.642121
H15   H     H_    0.938461 0.776689 0.850768 0.360630
O36   O     O_3   0.885233 0.031098 0.051187 -0.583208
H16   H     H_    0.892196 0.038311 0.104587 0.367303
O37   O     O_3   0.153561 0.116441 0.067513 -0.613043
H17   H     H_    0.177495 0.136334 0.119098 0.321400
O38   O     O_3   0.971490 0.849066 0.045115 -0.610474
H18   H     H_    0.963593 0.850543 0.098508 0.352016
O39   O     O_3   0.306188 0.030559 0.428753 -0.685165
H19   H     H_    0.248507 0.037866 0.465831 0.359763
O40   O     O_3   0.986172 0.291544 0.419093 -0.641025
H20   H     H_    0.892803 0.219965 0.426720 0.327888
O41   O     O_3   0.730598 0.464134 0.483710 -0.780420
H21   H     H_    0.714467 0.401969 0.442699 0.309367
O42   O     O_3   0.016981 0.303471 0.569090 -0.695677
H22   H     H_    0.988638 0.227197 0.536385 0.404935
O43   O     O_3   0.280955 0.964728 0.575045 -0.666006
H23   H     H_    0.231210 0.865929 0.573644 0.318847
O44   O     O_3   0.609070 0.675667 0.532914 -0.764436
H24   H     H_    0.671495 0.727229 0.493224 0.342582
O45   O     O_3   0.775788 0.101962 0.615100 -0.536318
C73   C     C_3   0.752284 0.205933 0.632652 -0.089542
H25   H     H_    0.735712 0.250884 0.584305 0.103449
H26   H     H_    0.840028 0.282967 0.661606 0.177009
H27   H     H_    0.669620 0.171865 0.672598 0.106107
O46   O     O_3   0.868172 0.634170 0.643394 -0.581380
C74   C     C_3   0.779254 0.499606 0.658987 -0.110543
H28   H     H_    0.738151 0.436830 0.610610 0.142406
H29   H     H_    0.696276 0.495660 0.690897 0.142292
H30   H     H_    0.825568 0.461420 0.695492 0.140945
O47   O     O_3   0.330029 0.191106 0.661124 -0.541911
C75   C     C_3   0.458983 0.223969 0.680026 -0.082586
H31   H     H_    0.523278 0.233262 0.632616 0.085137
H32   H     H_    0.450951 0.143151 0.714357 0.195878
H33   H     H_    0.503538 0.315351 0.713688 0.103550
O48   O     O_3   0.116548 0.783227 0.369313 -0.522697
C76   C     C_3   0.220016 0.759562 0.350257 -0.061342
H34   H     H_    0.181626 0.664947 0.319640 0.109319
H35   H     H_    0.276617 0.760289 0.397660 0.088009
H36   H     H_    0.289725 0.839564 0.312888 0.169620
O49   O     O_3   0.575828 0.778665 0.384115 -0.615698
C77   C     C_3   0.510909 0.764608 0.318245 -0.132655
H37   H     H_    0.516278 0.855246 0.297488 0.112541
H38   H     H_    0.405575 0.685456 0.323379 0.121520
H39   H     H_    0.555370 0.729407 0.276106 0.151612
O50   O     O_3   0.275078 0.399980 0.409757 -0.525109
C78   C     C_3   0.303628 0.519883 0.444724 -0.069457
H40   H     H_    0.261501 0.505209 0.500812 0.124195
H41   H     H_    0.260008 0.566435 0.413205 0.117103
H42   H     H_    0.411714 0.588586 0.447405 0.211250
O51   O     O_3   0.868231 0.952184 0.543541 -0.434113
C79   C     C_3   0.802202 0.883729 0.609148 0.055004
H43   H     H_    0.802325 0.790920 0.614539 0.171855
H44   H     H_    0.696451 0.846276 0.611109 0.195891
H45   H     H_    0.847285 0.944771 0.657617 0.150186
O52   O     O_3   0.038804 0.903426 0.598119 -0.479455
C80   C     C_3   0.054553 0.886739 0.672874 0.029439
H46   H     H_    0.095999 0.981433 0.700856 0.122008
H47   H     H_    0.134723 0.867802 0.682411 0.210228
H48   H     H_    0.960818 0.826293 0.703950 0.127330
O53   O     O_3   0.079464 0.123617 0.606883 -0.469971
C81   C     C_3   0.083925 0.184039 0.675147 -0.004849
H49   H     H_    0.982876 0.139430 0.699395 0.115226
H50   H     H_    0.116674 0.286978 0.669094 0.237084
H51   H     H_    0.146985 0.177510 0.716226 0.123368
O54   O     O_3   0.953362 0.862742 0.441185 -0.481195
C82   C     C_3   0.867569 0.768415 0.389252 -0.001491
H52   H     H_    0.774655 0.767663 0.383813 0.175816
H53   H     H_    0.830217 0.666703 0.406622 0.158487
H54   H     H_    0.916374 0.789962 0.334869 0.173913
O55   O     O_3   0.867324 0.995032 0.383767 -0.536364
C83   C     C_3   0.845664 0.010849 0.310359 -0.077428
H55   H     H_    0.875177 0.115842 0.300139 0.199219
H56   H     H_    0.746263 0.940451 0.290672 0.150732
H57   H     H_    0.912287 0.991124 0.275453 0.076437
O56   O     O_3   0.084885 0.123477 0.447290 -0.441101
C84   C     C_3   0.128558 0.124325 0.373601 0.059420
H58   H     H_    0.232307 0.150567 0.366680 0.161355
H59   H     H_    0.111062 0.191698 0.339963 0.180797
H60   H     H_    0.077506 0.023574 0.349785 0.175858

loop_
_geom_bond_atom_site_label_1
_geom_bond_atom_site_label_2
_ccdc_geom_bond_type
C2    C35   S    
C39   C51   A    
C84   H58   S    
O47   C75   S    
C55   C59   A    
C3    O1    A    
C36   C42   A    
C76   H34   S    
C73   H27   S    
Cr2   O25   S    
C79   H43   S    
C53   C59   A    
C20   O52   S    
O39   H19   S    
Cr2   O14   S    
C54   C60   A    
C78   H40   S    
Cr6   O6    S    
Cr1   O13   S    
C84   H59   S    
C24   O56   S    
C33   C39   A    
C81   H51   S    
C34   C40   A    
C81   H50   S    
C76   H35   S    
C73   H26   S    
C4    O5    A    
C29   O23   A    
C80   H47   S    
O44   H24   S    
C64   C70   A    
C45   C48   A    
Cr6   O18   S    
C27   O21   A    
C58   O36   S    
C43   H1    S    
O29   H9    S    
C30   O16   A    
C6    O4    A    
Cr6   O24   S    
Cr2   O8    S    
C9    C66   A    
C75   H33   S    
Cr4   O10   S    
C46   H4    S    
Cr5   O17   S    
C28   O17   A    
C77   H39   S    
C66   C72   A    
O45   C73   S    
Cr6   O12   S    
C82   H53   S    
C16   C22   A    
C83   H55   S    
C51   C57   A    
C32   C38   A    
C74   H29   S    
C35   C43   A    
C19   O51   S    
C67   C71   A    
C5    O6    A    
C26   O15   A    
C49   O27   S    
C5    C32   S    
C26   O20   A    
C52   O30   S    
C77   H38   S    
C6    C31   S    
C1    O7    A    
C31   C47   A    
Cr5   O23   S    
C75   H32   S    
C10   C62   A    
C5    O11   A    
C44   C46   A    
C21   O53   S    
C39   C42   A    
C78   H41   S    
C18   C72   A    
C15   C69   A    
C84   H60   S    
C55   O33   S    
Cr3   O25   S    
O56   C84   S    
C13   C19   A    
C63   C69   A    
O33   H13   S    
C76   H36   S    
C16   C70   A    
C73   H25   S    
Cr1   O7    S    
O28   H8    S    
C17   O49   S    
C80   H48   S    
C28   O22   A    
O49   C77   S    
C12   C63   A    
C25   O19   A    
C57   C60   A    
C3    C34   S    
C16   O48   S    
C65   C71   A    
Cr5   O11   S    
C50   C56   A    
C31   C37   A    
C8    O40   S    
C10   O42   S    
C12   O44   S    
C69   C72   A    
C19   C23   A    
C80   H46   S    
C7    O39   S    
C14   C20   A    
C7    C65   A    
O38   H18   S    
C37   C49   A    
C61   C67   A    
C7    C11   A    
O55   C83   S    
C44   H2    S    
O31   H11   S    
C82   H54   S    
C59   O37   S    
C83   H57   S    
Cr3   O15   S    
C34   C44   A    
C2    O3    A    
C3    O9    A    
C17   C23   A    
C56   O34   S    
Cr2   O2    S    
C74   H30   S    
C2    O8    A    
C41   C53   A    
O32   H12   S    
C52   C58   A    
C8    C64   A    
C4    O10   A    
Cr3   O3    S    
C77   H37   S    
C54   O32   S    
C20   C22   A    
C17   C71   A    
C36   C45   A    
O42   H22   S    
C75   H31   S    
C18   C24   A    
C21   C24   A    
C13   O45   S    
C22   O54   S    
O35   H15   S    
O50   C78   S    
Cr3   O9    S    
Cr2   O20   S    
O48   C76   S    
Cr1   O1    S    
C78   H42   S    
C1    O2    A    
C33   C48   A    
C4    C33   S    
Cr4   O4    S    
C29   C62   S    
C27   O13   A    
Cr4   O22   S    
O27   H7    S    
C30   O24   A    
C26   C65   S    
C32   C46   A    
C8    C10   A    
C13   C67   A    
C25   C66   S    
C11   C61   A    
C49   C55   A    
C57   O35   S    
C79   H44   S    
O41   H21   S    
C53   O31   S    
C15   O47   S    
Cr5   O5    S    
C18   O50   S    
Cr4   O16   S    
O40   H20   S    
C23   O55   S    
C6    O12   A    
Cr6   O26   S    
C38   C50   A    
C62   C68   A    
C50   O28   S    
O54   C82   S    
O43   H23   S    
O36   H16   S    
O53   C81   S    
C40   C52   A    
O37   H17   S    
C42   C54   A    
C38   C40   A    
C9    O41   S    
O34   H14   S    
C15   C21   A    
C43   C47   A    
C56   C58   A    
C29   O18   A    
C45   H3    S    
Cr1   O25   S    
C37   C41   A    
Cr5   O26   S    
C35   C41   A    
C9    C12   A    
C51   O29   S    
C79   H45   S    
C27   C64   S    
O51   C79   S    
C47   H5    S    
C28   C63   S    
C48   H6    S    
C25   O14   A    
Cr1   O19   S    
O46   C74   S    
Cr4   O26   S    
C82   H52   S    
C30   C61   S    
C14   O46   S    
C68   C70   A    
C14   C68   A    
C81   H49   S    
C83   H56   S    
Cr3   O21   S    
C74   H28   S    
O30   H10   S    
C11   O43   S    
C60   O38   S    
O52   C80   S    
C1    C36   S    
