data_mof_unit_54689.cif
_audit_creation_date              2012-12-10T19:04:16-0500
_audit_creation_method            fapswitch 2.2
_symmetry_space_group_name_H-M    P1
_symmetry_Int_Tables_number       1
_space_group_crystal_system       triclinic
_cell_length_a                    10.638589
_cell_length_b                    10.839945
_cell_length_c                    9.544251
_cell_angle_alpha                 90.909092
_cell_angle_beta                  90.595577
_cell_angle_gamma                 90.332018
_cell_volume                      1100.44188889

loop_
_atom_site_label
_atom_site_type_symbol
_atom_type_description
_atom_site_fract_x
_atom_site_fract_y
_atom_site_fract_z
_atom_type_partial_charge
C1    C     C_R   0.494813 0.262343 0.498467 0.850322
C2    C     C_3   0.955644 0.613415 0.465354 -0.202900
C3    C     C_3   0.036667 0.529771 0.370898 0.199556
C4    C     C_3   0.122148 0.503742 0.497293 -0.032855
C5    C     C_R   0.498031 0.065956 0.621325 0.046289
C6    C     C_R   0.481187 0.129000 0.496168 -0.131522
C7    C     C_R   0.445503 0.059570 0.374458 0.154515
C8    C     C_R   0.448013 0.930766 0.378501 -0.213606
C9    C     C_R   0.482530 0.870200 0.501982 -0.113593
C10   C     C_R   0.495232 0.939580 0.625371 0.087418
C11   C     C_3   0.590699 0.936231 0.740993 -0.475723
C12   C     C_R   0.259211 0.502131 0.499162 0.807121
C13   C     C_3   0.595386 0.076387 0.735293 0.015821
C14   C     C_R   0.607840 0.524082 0.075269 0.268826
C15   C     C_R   0.397958 0.461002 0.072455 -0.008596
C16   C     C_R   0.397537 0.461687 0.923791 -0.047785
C17   C     C_R   0.608287 0.522790 0.928015 0.268737
C18   C     C_3   0.688262 0.635878 0.924550 -0.492373
C19   C     C_3   0.686140 0.638355 0.083775 -0.474152
C20   C     C_R   0.497270 0.737579 0.500895 0.809524
C21   C     C_R   0.740589 0.499528 0.500824 0.823944
C22   C     C_3   0.042942 0.390461 0.534914 -0.170648
C23   C     C_3   0.956008 0.416413 0.407739 -0.154836
C24   C     C_3   0.877179 0.500090 0.502507 -0.028805
C25   C     C_3   0.961576 0.474117 0.629832 -0.106538
C26   C     C_3   0.042772 0.587428 0.592234 -0.184766
Cu1   Cu    Cu3+1 0.499990 0.499980 0.640670 0.963877
Cu2   Cu    Cu3+1 0.500010 0.500020 0.359330 0.983023
H1    H     H_    0.917945 0.346217 0.332422 0.169979
H2    H     H_    0.678957 0.889651 0.709010 0.213104
H3    H     H_    0.315555 0.429032 0.126207 0.186021
H4    H     H_    0.313873 0.431792 0.867499 0.161982
H5    H     H_    0.782949 0.616780 0.881355 0.209933
H6    H     H_    0.638656 0.714282 0.876698 0.211489
H7    H     H_    0.779687 0.621523 0.132336 0.226485
H8    H     H_    0.634387 0.718449 0.128362 0.216453
H9    H     H_    0.081297 0.299049 0.563318 0.163990
H10   H     H_    0.927961 0.451040 0.736052 0.168416
H11   H     H_    0.080759 0.657684 0.667515 0.165682
H12   H     H_    0.426781 0.878416 0.283477 0.191121
H13   H     H_    0.549027 0.903222 0.839948 0.191447
N1    N     N_R   0.500800 0.500930 0.147930 -0.193733
N2    N     N_R   0.500800 0.500890 0.852020 -0.196493
O1    O     O_R   0.500000 0.319640 0.618810 -0.574607
O2    O     O_R   0.500010 0.319680 0.381230 -0.550306
O3    O     O_R   0.316850 0.499950 0.618770 -0.596417
O4    O     O_R   0.316860 0.499990 0.381190 -0.568785
O5    O     O_R   0.499990 0.680320 0.618770 -0.579345
O6    O     O_R   0.500000 0.680360 0.381190 -0.585291
O7    O     O_R   0.683140 0.500010 0.618810 -0.578983
O8    O     O_R   0.683150 0.500050 0.381230 -0.583994
H14   H     H_    0.558234 0.121910 0.831386 0.174285
I1    I     I_    0.774781 0.144607 0.667896 -0.402163
H15   H     H_    0.916851 0.704669 0.436989 0.158985
I2    I     I_    0.081699 0.582687 0.162625 -0.442597
I3    I     I_    0.390112 0.133633 0.178119 -0.396935

loop_
_geom_bond_atom_site_label_1
_geom_bond_atom_site_label_2
_ccdc_geom_bond_type
Cu1   O5    S    
C4    C26   S    
C23   C24   S    
C17   N2    A    
Cu2   O4    S    
C15   H3    S    
C20   O6    A    
C25   H10   S    
C16   H4    S    
C13   H14   S    
C4    C22   S    
Cu2   O6    S    
C9    C20   S    
C5    C13   S    
C14   C17   A    
Cu1   O7    S    
C14   N1    A    
C10   C11   S    
C17   C18   S    
C7    C8    A    
C2    C26   S    
C19   H7    S    
C11   C13   S    
C16   N2    A    
C1    O2    A    
C20   O5    A    
C3    I2    S    
C7    I3    S    
C12   O4    A    
C23   H1    S    
Cu1   O3    S    
Cu2   N1    S    
C21   O7    A    
Cu2   O8    S    
C11   H13   S    
C6    C7    A    
C2    C3    S    
C19   H8    S    
C18   H6    S    
C2    C24   S    
C5    C6    A    
C26   H11   S    
C18   H5    S    
Cu2   O2    S    
C4    C12   S    
C13   I1    S    
C5    C10   A    
C1    C6    S    
C9    C10   A    
Cu1   N2    S    
C21   O8    A    
C8    H12   S    
C24   C25   S    
C15   N1    A    
C12   O3    A    
C18   C19   S    
C2    H15   S    
C21   C24   S    
Cu1   Cu2   S    
C22   C23   S    
C14   C19   S    
C1    O1    A    
C25   C26   S    
C22   H9    S    
C3    C23   S    
Cu1   O1    S    
C3    C4    S    
C15   C16   A    
C11   H2    S    
C8    C9    A    
C22   C25   S    
