data_mof_unit_42193.cif
_audit_creation_date              2012-12-10T18:02:09-0500
_audit_creation_method            fapswitch 2.2
_symmetry_space_group_name_H-M    P1
_symmetry_Int_Tables_number       1
_space_group_crystal_system       triclinic
_cell_length_a                    10.819222
_cell_length_b                    9.485112
_cell_length_c                    23.579118
_cell_angle_alpha                 90.0
_cell_angle_beta                  89.525418
_cell_angle_gamma                 89.999117
_cell_volume                      2419.64221579

loop_
_atom_site_label
_atom_site_type_symbol
_atom_type_description
_atom_site_fract_x
_atom_site_fract_y
_atom_site_fract_z
_atom_type_partial_charge
C1    C     C_R   0.261994 0.500047 0.499354 0.828507
C2    C     C_R   0.738006 0.500048 0.500628 0.828311
C3    C     C_R   0.548012 0.360345 0.241407 0.046675
C4    C     C_R   0.451782 0.360566 0.758602 0.046708
C5    C     C_R   0.570539 0.387405 0.299418 0.290851
C6    C     C_R   0.429283 0.387682 0.700593 0.290921
C7    C     C_R   0.503134 0.496129 0.327715 -0.219269
C8    C     C_R   0.496976 0.496129 0.672277 -0.219248
C9    C     C_R   0.432702 0.592652 0.294960 0.007796
C10   C     C_R   0.567785 0.592341 0.705001 0.007720
C11   C     C_R   0.436371 0.582033 0.235818 -0.161061
C12   C     C_R   0.564134 0.581797 0.764144 -0.161007
C13   C     C_R   0.491198 0.466672 0.208862 0.260513
C14   C     C_R   0.508944 0.466692 0.791125 0.260436
C15   C     C_R   0.063877 0.371953 0.499924 -0.119832
C16   C     C_R   0.936126 0.628182 0.499775 -0.202637
C17   C     C_R   0.936119 0.371959 0.500625 -0.120934
C18   C     C_R   0.063878 0.628182 0.499574 -0.202916
C19   C     C_R   0.871814 0.500088 0.500518 -0.006454
C20   C     C_R   0.128186 0.500082 0.499440 -0.006975
C21   C     C_R   0.414775 0.074544 0.469425 0.048861
C22   C     C_R   0.585426 0.925542 0.530393 -0.015109
C23   C     C_R   0.585225 0.074544 0.530575 0.048777
C24   C     C_R   0.414575 0.925542 0.469607 -0.015239
C25   C     C_R   0.500662 0.499801 0.390717 0.866797
C26   C     C_R   0.499370 0.499799 0.609279 0.867251
C27   C     C_R   0.615973 0.459097 0.881344 0.511422
C28   C     C_R   0.384161 0.459456 0.118642 0.511418
C29   C     C_R   0.395338 0.470079 0.880173 0.533260
C30   C     C_R   0.604829 0.469567 0.119817 0.533289
C31   C     C_R   0.390237 0.466139 0.939588 -0.021093
C32   C     C_R   0.609920 0.465648 0.060400 -0.021097
C33   C     C_R   0.501482 0.462913 0.970067 -0.016938
C34   C     C_R   0.498665 0.462889 0.029921 -0.016939
C35   C     C_R   0.615542 0.461216 0.940851 -0.012620
C36   C     C_R   0.384600 0.461614 0.059136 -0.012615
C37   C     C_R   0.276888 0.466409 0.969120 -0.164272
C38   C     C_R   0.723268 0.465499 0.030868 -0.164244
C39   C     C_R   0.274091 0.462871 0.028273 -0.162210
C40   C     C_R   0.726054 0.462008 0.971714 -0.162202
Cu1   Cu    Cu3+1 0.500000 0.640660 0.500000 0.960554
Cu2   Cu    Cu3+1 0.500000 0.359340 0.500000 1.047655
H1    H     H_    0.189997 0.468427 0.946648 0.191120
H2    H     H_    0.810165 0.467155 0.053341 0.191122
H3    H     H_    0.185144 0.462321 0.049693 0.190375
H4    H     H_    0.814999 0.461125 0.950295 0.190372
H5    H     H_    0.390295 0.660339 0.210043 0.162743
H6    H     H_    0.610492 0.659931 0.789896 0.162766
H7    H     H_    0.112005 0.271820 0.499963 0.160015
H8    H     H_    0.888023 0.728312 0.499533 0.161603
H9    H     H_    0.887987 0.271830 0.501082 0.159305
H10   H     H_    0.111984 0.728313 0.499332 0.161620
H11   H     H_    0.346724 0.130849 0.444856 0.103901
H12   H     H_    0.653882 0.869260 0.554494 0.107709
H13   H     H_    0.653276 0.130848 0.555143 0.103795
H14   H     H_    0.346125 0.869250 0.445507 0.107865
N1    N     N_R   0.506831 0.462462 0.852196 -0.451531
N2    N     N_R   0.493313 0.462383 0.147792 -0.451546
N3    N     N_R   0.500000 0.852070 0.500000 -0.159626
N4    N     N_R   0.500000 0.147930 0.500000 -0.144990
O1    O     O_R   0.319640 0.618740 0.500000 -0.599929
O2    O     O_R   0.680360 0.381260 0.500000 -0.564656
O3    O     O_R   0.680360 0.618740 0.500000 -0.600037
O4    O     O_R   0.319640 0.381260 0.500000 -0.564869
O5    O     O_R   0.499960 0.618810 0.417880 -0.589273
O6    O     O_R   0.500040 0.381190 0.582120 -0.531964
O7    O     O_R   0.500040 0.618810 0.582120 -0.589114
O8    O     O_R   0.499960 0.381190 0.417880 -0.531671
O9    O     O_2   0.724459 0.452809 0.852798 -0.541354
O10   O     O_2   0.275656 0.453578 0.147187 -0.541346
O11   O     O_2   0.289710 0.482647 0.850526 -0.523662
O12   O     O_2   0.710494 0.481699 0.149465 -0.523597
C41   C     C_3   0.575430 0.216532 0.215119 -0.327621
C42   C     C_3   0.455621 0.139341 0.199451 -0.391298
C43   C     C_3   0.481655 0.989098 0.179336 -0.824061
H15   H     H_    0.543741 0.990429 0.141582 0.265164
H16   H     H_    0.525372 0.926725 0.213647 0.262150
H17   H     H_    0.393531 0.937099 0.167610 0.247374
H18   H     H_    0.393135 0.134749 0.237098 0.234867
H19   H     H_    0.407224 0.196190 0.165104 0.252328
H20   H     H_    0.624313 0.146664 0.245017 0.261921
H21   H     H_    0.635974 0.227424 0.177211 0.226933
C44   C     C_3   0.423968 0.216874 0.784909 -0.327599
C45   C     C_3   0.543565 0.139241 0.800570 -0.391607
C46   C     C_3   0.517110 0.989133 0.820733 -0.823440
H22   H     H_    0.455070 0.990767 0.858499 0.265096
H23   H     H_    0.473175 0.926875 0.786449 0.262396
H24   H     H_    0.605091 0.936813 0.832454 0.247218
H25   H     H_    0.605993 0.134350 0.762910 0.234859
H26   H     H_    0.592171 0.195952 0.834890 0.252337
H27   H     H_    0.374873 0.147171 0.755024 0.261931
H28   H     H_    0.363478 0.228018 0.822823 0.226914
S1    S     S_3+6 0.696703 0.301893 0.333502 0.010532
O13   O     O_2   0.651130 0.171078 0.362927 -0.270863
O14   O     O_2   0.795319 0.261908 0.291150 -0.281644
O15   O     O_3   0.760859 0.409983 0.381298 -0.529162
H29   H     H_    0.789596 0.492669 0.359172 0.337194
S2    S     S_3+6 0.302871 0.302631 0.666523 0.010296
O16   O     O_2   0.348082 0.171707 0.637060 -0.270790
O17   O     O_2   0.204186 0.262928 0.708882 -0.281695
O18   O     O_3   0.238960 0.411011 0.618763 -0.529699
H30   H     H_    0.210503 0.493781 0.640907 0.337289
C47   C     C_3   0.347034 0.702969 0.320356 -0.374648
C48   C     C_3   0.228701 0.633952 0.343648 -0.329746
C49   C     C_3   0.131678 0.743707 0.360062 -0.804129
H31   H     H_    0.166970 0.813908 0.393853 0.234458
H32   H     H_    0.106312 0.808232 0.322617 0.265313
H33   H     H_    0.047254 0.689720 0.376042 0.257026
H34   H     H_    0.188636 0.563748 0.310791 0.247635
H35   H     H_    0.250322 0.568737 0.381315 0.197651
H36   H     H_    0.394147 0.766108 0.353165 0.215833
H37   H     H_    0.320306 0.780619 0.287267 0.197889
C50   C     C_3   0.653835 0.702188 0.679551 -0.375001
C51   C     C_3   0.771888 0.632532 0.656269 -0.329349
C52   C     C_3   0.868983 0.741809 0.639431 -0.803902
H38   H     H_    0.833617 0.811439 0.605462 0.234641
H39   H     H_    0.894627 0.806981 0.676657 0.265114
H40   H     H_    0.953245 0.687363 0.623521 0.257265
H41   H     H_    0.812032 0.562761 0.689255 0.247710
H42   H     H_    0.749914 0.566762 0.618801 0.197380
H43   H     H_    0.606923 0.765451 0.646721 0.215751
H44   H     H_    0.680892 0.779785 0.712603 0.197833

loop_
_geom_bond_atom_site_label_1
_geom_bond_atom_site_label_2
_ccdc_geom_bond_type
C38   C40   A    
S1    O13   D    
C8    C26   S    
Cu1   Cu2   S    
C11   H5    S    
Cu1   O1    S    
C12   H6    S    
C17   H9    S    
C51   C52   S    
C18   H10   S    
C22   H12   S    
C46   H22   S    
C40   H4    S    
C44   H28   S    
C49   H32   S    
O18   H30   S    
C6    C8    A    
C26   O7    A    
C6    S2    S    
C16   H8    S    
C24   N3    A    
C48   H34   S    
C8    C10   A    
C52   H38   S    
C47   H36   S    
C41   C42   S    
C33   C35   A    
C50   H44   S    
C52   H39   S    
C31   C33   A    
C32   C38   A    
Cu2   O2    S    
C18   C20   A    
C51   H41   S    
C27   O9    S    
C39   H3    S    
S1    O14   D    
C42   H19   S    
Cu2   O8    S    
C15   C20   A    
C25   O8    A    
C45   H26   S    
C41   H20   S    
C48   C49   S    
C46   H23   S    
C23   N4    A    
C37   C39   A    
C49   H33   S    
C42   C43   S    
C26   O6    A    
C25   O5    A    
C45   C46   S    
Cu1   N3    S    
C21   N4    A    
Cu1   O7    S    
C27   N1    A    
Cu2   N4    S    
C22   N3    A    
C5    C7    A    
Cu1   O5    S    
C13   N2    S    
C27   C35   A    
C31   C37   A    
C1    O1    A    
C47   H37   S    
C32   C34   A    
C37   H1    S    
C43   H15   S    
C38   H2    S    
C21   H11   S    
C43   H16   S    
C30   O12   S    
C44   C45   S    
C9    C47   S    
C52   H40   S    
O15   H29   S    
C33   C34   A    
C9    C11   A    
C10   C50   S    
C10   C12   A    
C4    C6    A    
C12   C14   A    
S1    O15   S    
S2    O17   D    
C42   H18   S    
C45   H25   S    
Cu1   O3    S    
C1    O4    A    
Cu2   O4    S    
C41   H21   S    
C2    O3    A    
C48   H35   S    
C50   C51   S    
C46   H24   S    
C15   C17   A    
C14   N1    S    
C1    C20   S    
C2    C19   S    
C36   C39   A    
C28   O10   S    
C29   N1    A    
C3    C5    A    
C3    C13   A    
C5    S1    S    
C23   H13   S    
C28   N2    A    
C24   H14   S    
S2    O18   S    
C44   H27   S    
C49   H31   S    
C7    C25   S    
C35   C40   A    
C29   C31   A    
C30   C32   A    
C11   C13   A    
C4    C44   S    
C16   C19   A    
C30   N2    A    
C17   C19   A    
C34   C36   A    
C15   H7    S    
C4    C14   A    
C3    C41   S    
C43   H17   S    
C7    C9    A    
C50   H43   S    
C28   C36   A    
C16   C18   A    
S2    O16   D    
C21   C24   A    
C47   C48   S    
Cu2   O6    S    
C22   C23   A    
C51   H42   S    
C2    O2    A    
C29   O11   S    
