data_mof_unit_13866.cif
_audit_creation_date              2013-03-05T16:07:57-0500
_audit_creation_method            fapswitch 2.2
_symmetry_space_group_name_H-M    P1
_symmetry_Int_Tables_number       1
_space_group_crystal_system       triclinic
_cell_length_a                    6.952942
_cell_length_b                    14.569986
_cell_length_c                    15.976256
_cell_angle_alpha                 90.207833
_cell_angle_beta                  90.026617
_cell_angle_gamma                 89.954062
_cell_volume                      1618.45157269

loop_
_atom_site_label
_atom_site_type_symbol
_atom_site_description
_atom_site_fract_x
_atom_site_fract_y
_atom_site_fract_z
_atom_type_partial_charge
O1    O     O_R   0.494380 0.415640 0.412830 -0.586616
O2    O     O_R   0.823960 0.405540 0.586560 -0.599634
O3    O     O_R   0.994270 0.584360 0.587170 -0.600235
C1    C     C_R   0.655377 0.383852 0.615468 0.934102
O4    O     O_R   0.824090 0.404620 0.413450 -0.595461
O5    O     O_R   0.994400 0.583430 0.412820 -0.574374
C2    C     C_R   0.655248 0.382224 0.384668 1.003221
O6    O     O_R   0.494250 0.416570 0.587180 -0.594735
O7    O     O_3   0.660800 0.558670 0.500000 -0.281587
V1    V     V_3+5 0.935650 0.489120 0.500000 1.163947
O8    O     O_R   0.324110 0.594460 0.413440 -0.596520
C3    C     C_R   0.155003 0.616558 0.384719 0.972386
O9    O     O_R   0.323980 0.595380 0.586550 -0.603109
C4    C     C_R   0.155197 0.617424 0.615651 0.842686
V2    V     V_3+5 0.435660 0.510880 0.500000 1.162092
O10   O     O_3   0.160640 0.441330 0.500000 -0.275634
C5    C     C_3   0.055729 0.643718 0.766224 -0.342704
C6    C     C_3   0.042632 0.715113 0.838647 -0.365892
H1    H     H_    0.124899 0.689744 0.893694 0.144894
H2    H     H_    0.869894 0.746779 0.645113 0.162153
H3    H     H_    0.852327 0.852481 0.751113 0.154159
C7    C     C_3   0.017604 0.770438 0.661184 -0.387529
C8    C     C_3   0.347474 0.724313 0.709895 -0.349340
C9    C     C_3   0.144614 0.687313 0.686460 0.126665
H4    H     H_    0.415015 0.757232 0.654429 0.156621
H5    H     H_    0.442468 0.666575 0.729213 0.149047
C10   C     C_3   0.123059 0.809552 0.810776 0.061907
C11   C     C_3   0.005616 0.841743 0.733488 -0.294353
C12   C     C_3   0.335087 0.794931 0.782032 -0.331221
H6    H     H_    0.397522 0.861269 0.760847 0.173032
H7    H     H_    0.078155 0.803617 0.604363 0.148750
H8    H     H_    0.062169 0.908421 0.710986 0.221328
C13   C     C_R   0.264710 0.745937 0.184232 0.109968
C14   C     C_R   0.117868 0.811571 0.180120 -0.191847
C15   C     C_R   0.970829 0.805854 0.240732 -0.137842
H9    H     H_    0.851541 0.853535 0.239266 0.110909
C16   C     C_R   0.983119 0.742559 0.307296 -0.070770
H10   H     H_    0.872414 0.743029 0.354887 0.110047
C17   C     C_R   0.141919 0.682717 0.314689 -0.256304
C18   C     C_R   0.275403 0.682820 0.249094 0.143551
C19   C     C_3   0.490395 0.685041 0.249300 0.203080
C20   C     C_3   0.477938 0.754835 0.178332 -0.584813
H11   H     H_    0.533777 0.729537 0.117244 0.223605
H12   H     H_    0.527891 0.824453 0.196706 0.180132
C21   C     C_R   0.497662 0.249705 0.685643 0.149446
C22   C     C_R   0.647806 0.313376 0.681700 -0.202260
C23   C     C_R   0.796539 0.305122 0.741168 -0.176507
H13   H     H_    0.916963 0.352017 0.739996 0.119307
C24   C     C_R   0.784258 0.240477 0.806430 -0.052769
H14   H     H_    0.896001 0.239173 0.853559 0.122863
C25   C     C_R   0.624013 0.181701 0.813453 -0.258251
C26   C     C_R   0.487134 0.184856 0.749297 0.097753
C27   C     C_3   0.273543 0.192879 0.753558 0.209231
C28   C     C_3   0.285369 0.264221 0.684149 -0.585609
H15   H     H_    0.221520 0.220138 0.814566 0.059845
H16   H     H_    0.245563 0.334440 0.705300 0.170103
H17   H     H_    0.219948 0.242706 0.623689 0.233998
C29   C     C_R   0.491673 0.314663 0.258014 0.315792
C30   C     C_R   0.647079 0.316048 0.313869 -0.251305
C31   C     C_R   0.799219 0.254530 0.297971 -0.158822
H18   H     H_    0.922066 0.252791 0.339321 0.144242
C32   C     C_R   0.788151 0.190102 0.232064 -0.151055
H19   H     H_    0.903435 0.140947 0.224469 0.133536
C33   C     C_R   0.624301 0.185004 0.180173 -0.235100
C34   C     C_R   0.480396 0.250853 0.192929 0.166207
C35   C     C_3   0.269981 0.237735 0.205570 -0.507076
C36   C     C_3   0.282234 0.307618 0.276160 -0.461810
H20   H     H_    0.184319 0.262071 0.151229 0.213496
H21   H     H_    0.204295 0.372513 0.262500 0.230002
O11   O     O_R   0.771490 0.080820 0.910070 -0.551975
O12   O     O_R   0.441590 0.092730 0.083780 -0.599159
O13   O     O_R   0.271350 0.913900 0.084390 -0.594990
C37   C     C_R   0.610613 0.114687 0.112949 0.930414
O14   O     O_R   0.441780 0.091820 0.910670 -0.596769
O15   O     O_R   0.271540 0.912980 0.910040 -0.591891
C38   C     C_R   0.610861 0.114360 0.882383 0.962794
O16   O     O_R   0.771300 0.081740 0.084420 -0.603594
O17   O     O_3   0.604960 0.938700 0.997240 -0.283881
V3    V     V_3+5 0.330090 0.008230 0.997220 1.170362
O18   O     O_R   0.941820 0.901930 0.910640 -0.590163
C39   C     C_R   0.111038 0.879652 0.881626 0.936557
O19   O     O_R   0.941630 0.902840 0.083750 -0.599456
C40   C     C_R   0.110381 0.881141 0.112786 0.928348
V4    V     V_3+5 0.830090 0.986410 0.997190 1.174424
O20   O     O_3   0.105080 0.055990 0.997200 -0.263890
H22   H     H_    0.909272 0.617023 0.752079 0.147913
N1    N     N_R   0.576372 0.598153 0.222144 0.255382
O21   O     O_R   0.759056 0.594471 0.205081 -0.396527
O22   O     O_R   0.474504 0.523371 0.218115 -0.435883
H23   H     H_    0.552593 0.712111 0.308470 0.050231
H24   H     H_    0.144795 0.584320 0.786531 0.132293
N2    N     N_R   0.178654 0.108024 0.727262 0.246947
O23   O     O_R   0.228191 0.066303 0.658330 -0.436669
O24   O     O_R   0.048928 0.071405 0.775141 -0.432671
H25   H     H_    0.235700 0.167318 0.227485 0.189946
H26   H     H_    0.254448 0.277977 0.339016 0.180826
H27   H     H_    0.889915 0.722545 0.858448 0.156253
H28   H     H_    0.423927 0.770390 0.835489 0.151810

loop_
_geom_bond_atom_site_label_1
_geom_bond_atom_site_label_2
_geom_bond_distance
_ccdc_geom_bond_type
C35   H20   1.111567 S    
N1    O21   1.300265 A    
C10   C12   1.558529 S    
C19   C20   1.528146 S    
C15   H9    1.081783 S    
C5    H24   1.112961 S    
O18   V4    2.004409 S    
O12   V3    2.004342 S    
C23   C24   1.410274 A    
C1    C22   1.478118 S    
C27   C28   1.524938 S    
C34   C35   1.489523 S    
C32   H19   1.081064 S    
O14   C38   1.302429 A    
C12   H28   1.113629 S    
C13   C20   1.491378 S    
C8    C12   1.544559 S    
C15   C16   1.412656 A    
C16   H10   1.082182 S    
C6    H1    1.112999 S    
O13   V3    2.002631 S    
O5    C3    1.297833 A    
V2    O10   2.164826 S    
C31   C32   1.410197 A    
C14   C15   1.411205 A    
C8    H5    1.113539 S    
C4    C9    1.521071 S    
C32   C33   1.410490 A    
O8    V2    2.001658 S    
C24   C25   1.410562 A    
C33   C37   1.484654 S    
O1    V2    2.004327 S    
C6    H27   1.113176 S    
O11   V4    2.001966 S    
O7    V1    2.162347 S    
C1    O6    1.298771 A    
C35   C36   1.519062 S    
C30   C31   1.408538 A    
C7    C11   1.553036 S    
O9    C4    1.302048 A    
C20   H12   1.110842 S    
C2    C30   1.484712 S    
C13   C14   1.400011 A    
C27   H15   1.111694 S    
C19   N1    1.463998 S    
C28   H16   1.111148 S    
C13   C18   1.389883 A    
C7    H7    1.113053 S    
C25   C26   1.399212 A    
C5    C9    1.554521 S    
C11   H8    1.109479 S    
C25   C38   1.480496 S    
C17   C18   1.400188 A    
O12   C37   1.303702 A    
O17   V3    2.162333 S    
O15   C39   1.298473 A    
C21   C26   1.392649 A    
C29   C30   1.401159 A    
C21   C22   1.398725 A    
C5    H22   1.113145 S    
C31   H18   1.079902 S    
C36   H21   1.111698 S    
O2    C1    1.299707 A    
C12   H6    1.113729 S    
C29   C34   1.394548 A    
C23   H13   1.081335 S    
C10   C39   1.524118 S    
C8    C9    1.555471 S    
C27   N2    1.462046 S    
N2    O24   1.299113 A    
C5    C6    1.555747 S    
V4    O20   2.164845 S    
O3    C4    1.299964 A    
C18   C19   1.495203 S    
H3    C11   1.113288 S    
H2    C7    1.113192 S    
C21   C28   1.491158 S    
O19   C40   1.300687 A    
O6    V2    2.001617 S    
O19   V4    2.001541 S    
O14   V3    2.003266 S    
O9    V2    2.004449 S    
O11   C38   1.296933 A    
C36   H26   1.111632 S    
C7    C9    1.552825 S    
C14   C40   1.481597 S    
O2    V1    2.003288 S    
V3    O20   1.711748 S    
C26   C27   1.491149 S    
O4    C2    1.301960 A    
C22   C23   1.409341 A    
O1    C2    1.299434 A    
C6    C10   1.552478 S    
O18   C39   1.305119 A    
O5    V1    2.002558 S    
O8    C3    1.302558 A    
O16   V4    2.005993 S    
C33   C34   1.400131 A    
C3    C17   1.482163 S    
N1    O22   1.301407 A    
O7    V2    1.713771 S    
O4    V1    2.004394 S    
C16   C17   1.411495 A    
O3    V1    2.004375 S    
V1    O10   1.711797 S    
N2    O23   1.302341 A    
C19   H23   1.110587 S    
C8    H4    1.113396 S    
O13   C40   1.299678 A    
O17   V4    1.713236 S    
C29   C36   1.488623 S    
C24   H14   1.081875 S    
C20   H11   1.112027 S    
C10   C11   1.553734 S    
C37   O16   1.297868 A    
O15   V3    2.004488 S    
C35   H25   1.111348 S    
C28   H17   1.111666 S    
