data_mof_unit_29263.cif
_audit_creation_date              2012-12-10T18:47:09-0500
_audit_creation_method            fapswitch 2.2
_symmetry_space_group_name_H-M    P1
_symmetry_Int_Tables_number       1
_space_group_crystal_system       triclinic
_cell_length_a                    10.7173
_cell_length_b                    9.825639
_cell_length_c                    15.000625
_cell_angle_alpha                 90.122007
_cell_angle_beta                  90.086456
_cell_angle_gamma                 90.018129
_cell_volume                      1579.62516763

loop_
_atom_site_label
_atom_site_type_symbol
_atom_type_description
_atom_site_fract_x
_atom_site_fract_y
_atom_site_fract_z
_atom_type_partial_charge
C1    C     C_R   0.259829 0.499984 0.499929 0.873968
C2    C     C_R   0.127413 0.499968 0.499909 -0.017092
C3    C     C_R   0.571897 0.072226 0.559263 -0.061797
C4    C     C_R   0.428103 0.927774 0.440737 -0.061797
C5    C     C_R   0.428103 0.071780 0.440741 -0.063796
C6    C     C_R   0.571897 0.928220 0.559259 -0.063796
C7    C     C_R   0.499700 0.499888 0.326579 0.896596
C8    C     C_R   0.500300 0.500112 0.673421 0.896595
C9    C     C_R   0.534012 0.381611 0.814601 -0.212574
C10   C     C_R   0.465988 0.618389 0.185399 -0.212574
C11   C     C_R   0.500882 0.500171 0.769223 -0.087746
C12   C     C_R   0.740171 0.500016 0.500071 0.873967
C13   C     C_R   0.499117 0.499828 0.230776 -0.087746
C14   C     C_R   0.468024 0.618413 0.815018 -0.213041
C15   C     C_R   0.531976 0.381587 0.184982 -0.213041
C16   C     C_R   0.467132 0.618868 0.907139 0.086403
C17   C     C_R   0.532868 0.381132 0.092860 0.086403
C18   C     C_R   0.500448 0.499532 0.953580 0.032445
C19   C     C_R   0.499552 0.500468 0.046420 0.032446
C20   C     C_R   0.534534 0.379485 0.907103 0.066471
C21   C     C_R   0.465466 0.620515 0.092897 0.066471
C22   C     C_R   0.432943 0.736911 0.953076 -0.199417
C23   C     C_R   0.431881 0.738903 0.045669 0.161882
C24   C     C_R   0.567057 0.263089 0.046924 -0.199417
C25   C     C_R   0.568119 0.261096 0.954331 0.161882
C26   C     C_R   0.063913 0.378832 0.517604 -0.182231
C27   C     C_R   0.936087 0.621167 0.482396 -0.182230
C28   C     C_R   0.936091 0.378871 0.517719 -0.182768
C29   C     C_R   0.063909 0.621129 0.482281 -0.182768
C30   C     C_R   0.872587 0.500032 0.500090 -0.017092
H1    H     H_    0.560057 0.292023 0.777065 0.187427
H2    H     H_    0.112605 0.715218 0.467903 0.158435
H3    H     H_    0.629349 0.127073 0.606596 0.136837
H4    H     H_    0.370651 0.872927 0.393404 0.136837
H5    H     H_    0.370649 0.126273 0.393416 0.141838
H6    H     H_    0.629351 0.873727 0.606584 0.141837
H7    H     H_    0.439943 0.707977 0.222935 0.187427
H8    H     H_    0.441853 0.709720 0.778990 0.169077
H9    H     H_    0.558146 0.290280 0.221010 0.169077
H10   H     H_    0.406806 0.827936 0.916895 0.191270
H11   H     H_    0.593194 0.172064 0.083105 0.191270
H12   H     H_    0.112613 0.284714 0.531890 0.161983
H13   H     H_    0.887387 0.715285 0.468110 0.161983
H14   H     H_    0.887395 0.284781 0.532097 0.158435
I1    I     I_    0.377916 0.924935 0.107588 -0.411509
I2    I     I_    0.622084 0.075065 0.892412 -0.411509
N1    N     N_R   0.500000 0.857200 0.500000 -0.088307
N2    N     N_R   0.500000 0.142800 0.500000 -0.088307
O1    O     O_R   0.316770 0.614620 0.499990 -0.628260
O2    O     O_R   0.683230 0.385380 0.500010 -0.628260
O3    O     O_R   0.683230 0.614620 0.500010 -0.625950
O4    O     O_R   0.316770 0.385380 0.499990 -0.625951
O5    O     O_R   0.499980 0.614680 0.367850 -0.624543
O6    O     O_R   0.500020 0.385320 0.632150 -0.624543
O7    O     O_R   0.500020 0.614680 0.632150 -0.623780
O8    O     O_R   0.499980 0.385320 0.367850 -0.623780
Zn1   Zn    Zn3+2 0.500000 0.653120 0.500000 0.958181
Zn2   Zn    Zn3+2 0.500000 0.346880 0.500000 0.958181

loop_
_geom_bond_atom_site_label_1
_geom_bond_atom_site_label_2
_ccdc_geom_bond_type
C12   O2    A    
C10   C13   A    
N2    Zn2   S    
O3    Zn1   S    
C10   H7    S    
N1    Zn1   S    
C4    H4    S    
C9    C20   A    
C26   C28   A    
C3    C6    A    
C22   H10   S    
C28   C30   A    
C1    O4    A    
O1    Zn1   S    
C2    C26   A    
O7    Zn1   S    
C27   C30   A    
C24   H11   S    
C9    C11   A    
C15   H9    S    
O4    Zn2   S    
C7    O8    A    
C8    C11   S    
C23   I1    S    
C5    H5    S    
C8    O7    A    
C17   C19   A    
C6    H6    S    
C25   I2    S    
C1    C2    S    
C29   H2    S    
C18   C20   A    
C13   C15   A    
C10   C21   A    
O6    Zn2   S    
C5    N2    A    
C14   C16   A    
C17   C24   A    
C27   C29   A    
C6    N1    A    
C7    O5    A    
C14   H8    S    
O2    Zn2   S    
C27   H13   S    
C3    N2    A    
C7    C13   S    
C12   O3    A    
C2    C29   A    
C24   C25   A    
C26   H12   S    
C16   C18   A    
C18   C19   A    
C20   C25   A    
C8    O6    A    
C11   C14   A    
C15   C17   A    
C3    H3    S    
C22   C23   A    
C4    C5    A    
C16   C22   A    
C12   C30   S    
C1    O1    A    
C21   C23   A    
C28   H14   S    
O8    Zn2   S    
C9    H1    S    
C19   C21   A    
C4    N1    A    
O5    Zn1   S    
