data_mof_unit_11176.cif
_audit_creation_date              2012-12-11T16:06:44-0500
_audit_creation_method            fapswitch 2.2
_symmetry_space_group_name_H-M    P1
_symmetry_Int_Tables_number       1
_space_group_crystal_system       triclinic
_cell_length_a                    8.246448
_cell_length_b                    12.613722
_cell_length_c                    17.361114
_cell_angle_alpha                 94.527279
_cell_angle_beta                  96.17119
_cell_angle_gamma                 98.095799
_cell_volume                      1769.38065739

loop_
_atom_site_label
_atom_site_type_symbol
_atom_type_description
_atom_site_fract_x
_atom_site_fract_y
_atom_site_fract_z
_atom_type_partial_charge
Ba1   Ba    Ba6+2 0.158660 0.552610 0.463110 1.667345
Ba2   Ba    Ba6+2 0.651510 0.447380 0.536830 1.677229
C1    C     C_3   0.379570 0.846744 0.169796 -0.183674
C2    C     C_R   0.733601 0.814745 0.467552 -0.285171
C3    C     C_R   0.702924 0.996112 0.439173 -0.101566
C4    C     C_3   0.929582 0.844218 0.263197 0.339779
C5    C     C_R   0.638460 0.887048 0.435660 -0.027099
C6    C     C_R   0.888402 0.849905 0.509352 0.061437
C7    C     C_R   0.952395 0.962419 0.517494 -0.035513
C8    C     C_R   0.858856 0.036567 0.480917 -0.062681
C9    C     C_R   0.922767 0.149034 0.489184 0.029886
C10   C     C_R   0.171686 0.112147 0.564531 0.017375
C11   C     C_R   0.107776 0.002923 0.559809 -0.078792
C12   C     C_3   0.437117 0.820196 0.251852 0.378469
C13   C     C_R   0.597681 0.551181 0.281506 -0.279372
C14   C     C_R   0.441459 0.492886 0.257173 0.077496
C15   C     C_R   0.378488 0.483336 0.177920 -0.113655
C16   C     C_3   0.857770 0.902404 0.197244 -0.428373
C17   C     C_R   0.473833 0.529778 0.123257 -0.002387
C18   C     C_R   0.634840 0.582667 0.148045 -0.147320
C19   C     C_R   0.697281 0.591567 0.227011 -0.012467
C20   C     C_R   0.410067 0.535304 0.836865 -0.108941
C21   C     C_R   0.356233 0.522660 0.756763 0.039708
C22   C     C_R   0.093565 0.426756 0.781119 0.006588
C23   C     C_3   0.574961 0.774420 0.638880 0.273747
C24   C     C_R   0.146526 0.438681 0.861402 -0.132330
C25   C     C_R   0.306092 0.492205 0.889533 0.007907
C26   C     C_1   0.362306 0.505276 0.972253 -0.006756
C27   C     C_1   0.411746 0.516484 0.041166 -0.004330
C28   C     C_3   0.741767 0.320366 0.305783 0.316463
C29   C     C_R   0.200441 0.465926 0.729406 -0.282677
C30   C     C_3   0.670223 0.289226 0.221006 -0.408622
C31   C     C_3   0.058150 0.688081 0.697553 0.305661
C32   C     C_3   0.088705 0.720123 0.784835 -0.402996
C33   C     C_3   0.195629 0.216575 0.340220 0.680364
C34   C     C_3   0.571137 0.894599 0.645597 -0.339931
C35   C     C_3   0.063115 0.156342 0.278749 -0.324147
C36   C     C_3   0.403144 0.967780 0.162774 -0.380247
C37   C     C_3   0.382032 0.236062 0.792062 -0.288090
C38   C     C_3   0.896924 0.160351 0.720989 0.390190
C39   C     C_3   0.924615 0.064300 0.765846 -0.400019
C40   C     C_3   0.361458 0.125803 0.745974 0.363611
C41   C     C_3   0.392949 0.040144 0.800999 -0.346883
C42   C     C_R   0.076724 0.184291 0.532061 -0.215577
Cl1   Cl    Cl    0.294362 0.119178 0.387425 -0.704837
H1    H     H_    0.414113 0.731279 0.252467 0.004613
H2    H     H_    0.140759 0.265194 0.383758 -0.045669
H3    H     H_    0.247305 0.813327 0.153851 0.148279
H4    H     H_    0.002672 0.214664 0.245939 0.078051
H5    H     H_    0.971774 0.103914 0.306677 0.089783
H6    H     H_    0.118267 0.105416 0.236793 0.106647
H7    H     H_    0.570864 0.849387 0.265217 -0.071651
H8    H     H_    0.450611 0.807726 0.127735 0.052778
H9    H     H_    0.704018 0.760108 0.638268 0.021261
H10   H     H_    0.500690 0.740332 0.582962 0.059366
H11   H     H_    0.625092 0.930320 0.704489 0.125838
H12   H     H_    0.548102 0.238175 0.217679 0.151529
H13   H     H_    0.642263 0.933604 0.602177 0.063928
H14   H     H_    0.441818 0.909749 0.635523 0.126745
H15   H     H_    0.762528 0.846012 0.158319 0.108479
H16   H     H_    0.807000 0.132875 0.668422 0.068875
H17   H     H_    0.016638 0.194431 0.702247 -0.112078
H18   H     H_    0.955144 0.998334 0.726252 0.083952
H19   H     H_    0.027443 0.088502 0.813405 0.105708
H20   H     H_    0.812727 0.035007 0.792695 0.126886
H21   H     H_    0.232861 0.103226 0.718209 -0.044161
H22   H     H_    0.309855 0.040461 0.847275 0.071011
H23   H     H_    0.656180 0.361989 0.190834 0.062881
H24   H     H_    0.523004 0.054856 0.828634 0.125080
H25   H     H_    0.026561 0.901483 0.300484 0.112742
H26   H     H_    0.368214 0.959323 0.768120 0.111674
H27   H     H_    0.627369 0.048303 0.411038 0.160561
H28   H     H_    0.183051 0.950728 0.587900 0.085118
H29   H     H_    0.127882 0.268652 0.536215 0.064780
H30   H     H_    0.682048 0.730499 0.463943 0.063200
H31   H     H_    0.530780 0.579936 0.858042 0.068694
H32   H     H_    0.713102 0.613283 0.106008 0.074778
H33   H     H_    0.063945 0.407321 0.901462 0.074967
H34   H     H_    0.752676 0.243558 0.189804 0.110806
H35   H     H_    0.258032 0.437062 0.158655 0.081499
H36   H     H_    0.647506 0.556606 0.342174 0.063864
H37   H     H_    0.832183 0.819195 0.300520 -0.068085
H38   H     H_    0.159071 0.456913 0.667608 0.059989
H39   H     H_    0.800590 0.970201 0.221242 0.086498
H40   H     H_    0.956640 0.934230 0.162823 0.125990
H41   H     H_    0.651276 0.358302 0.336738 0.035907
H42   H     H_    0.856570 0.378478 0.307852 0.054213
H43   H     H_    0.360718 0.982911 0.102302 0.103962
H44   H     H_    0.330077 0.008287 0.202862 0.178467
H45   H     H_    0.169722 0.661476 0.677549 0.012960
H46   H     H_    0.534963 0.003080 0.176748 0.126772
H47   H     H_    0.364676 0.297891 0.751499 0.088137
H48   H     H_    0.288923 0.237172 0.833695 0.047475
H49   H     H_    0.507610 0.256497 0.824609 0.147028
H50   H     H_    0.952746 0.621613 0.685573 0.064042
H51   H     H_    0.200498 0.781726 0.798835 0.122367
H52   H     H_    0.106818 0.649444 0.816802 0.067602
H53   H     H_    0.980955 0.753653 0.804566 0.123897
O1    O     O_2   0.163080 0.763400 0.536930 -0.462962
O2    O     O_2   0.753130 0.425798 0.772466 -0.476866
O3    O     O_3   0.832439 0.234547 0.769236 -0.581007
O4    O     O_3   0.893330 0.628980 0.538660 -0.496360
O5    O     O_3   0.422000 0.445190 0.409310 -0.470244
O6    O     O_2   0.648720 0.552000 0.685060 -0.458705
O7    O     O_3   0.511979 0.731231 0.703595 -0.647106
O8    O     O_2   0.498125 0.115192 0.544677 -0.428235
O9    O     O_3   0.475743 0.127187 0.691369 -0.589128
O10   O     O_3   0.379830 0.697590 0.399610 -0.489364
O11   O     O_2   0.307616 0.885853 0.452360 -0.429019
O12   O     O_3   0.312644 0.276500 0.302183 -0.645032
O13   O     O_3   0.023743 0.778034 0.660685 -0.651184
O14   O     O_3   0.350377 0.869632 0.306224 -0.554438
O15   O     O_2   0.161570 0.447940 0.314920 -0.484124
O16   O     O_3   0.953630 0.643360 0.361440 -0.471082
O17   O     O_2   0.019313 0.555762 0.225710 -0.479938
O18   O     O_3   0.003314 0.759798 0.230923 -0.581780
O19   O     O_2   0.647210 0.236530 0.463040 -0.399521
O20   O     O_3   0.916960 0.371010 0.461280 -0.504959
O21   O     O_3   0.430470 0.302400 0.600330 -0.455287
O22   O     O_3   0.776106 0.227394 0.339081 -0.642019
O23   O     O_3   0.388290 0.554800 0.590630 -0.477285
O24   O     O_3   0.856660 0.356630 0.638500 -0.485684
P1    P     P_3+3 0.990420 0.746550 0.559720 0.965742
P2    P     P_3+3 0.330880 0.415450 0.326700 0.990569
P3    P     P_3+3 0.916694 0.637161 0.260087 0.968511
P4    P     P_3+3 0.819870 0.253440 0.440220 0.991898
P5    P     P_3+3 0.884036 0.363489 0.740610 0.974342
P6    P     P_3+3 0.421039 0.837023 0.398688 1.022059
P7    P     P_3+3 0.476263 0.590874 0.686797 0.948386
P8    P     P_3+3 0.389995 0.162471 0.601684 1.012990

loop_
_geom_bond_atom_site_label_1
_geom_bond_atom_site_label_2
_ccdc_geom_bond_type
C4    H37   S    
O2    P5    D    
C17   C18   A    
C20   H31   S    
C2    C6    A    
C34   H14   S    
C33   H2    S    
Ba1   O1    S    
Ba2   O20   S    
C23   O7    S    
C13   H36   S    
C12   O14   S    
C10   C11   A    
C36   H44   S    
C24   C25   A    
C24   H33   S    
C10   P8    S    
C18   H32   S    
C26   C27   T    
C33   C35   S    
C22   C24   A    
C3    H27   S    
C34   H13   S    
C2    C5    A    
C35   H6    S    
O22   P4    S    
Ba2   O4    S    
C13   C14   A    
C1    H3    S    
O21   P8    S    
C29   H38   S    
C21   P7    S    
C4    H25   S    
Ba1   Ba2   S    
O24   P5    S    
C7    C11   A    
C37   H48   S    
C2    H30   S    
O12   P2    S    
C38   O3    S    
C12   H7    S    
C1    C36   S    
C6    C7    A    
C22   P5    S    
C16   H39   S    
C31   O13   S    
C5    P6    S    
C28   H41   S    
O19   P4    D    
Ba1   O5    S    
C30   H23   S    
C38   H17   S    
C32   H52   S    
C41   H24   S    
Ba1   O15   S    
C30   H12   S    
O9    P8    S    
O5    P2    S    
C31   H50   S    
Ba2   O19   S    
C37   C40   S    
Ba2   O24   S    
C4    C16   S    
C16   H40   S    
O13   P1    S    
O3    P5    S    
C9    P4    S    
C23   H9    S    
C12   H1    S    
O23   P7    S    
C3    C5    A    
O16   P3    S    
C14   C15   A    
O7    P7    S    
Ba1   O10   S    
C22   C29   A    
C36   H46   S    
C15   H35   S    
C38   H16   S    
C36   H43   S    
C21   C29   A    
Ba1   P1    S    
C37   H49   S    
C34   H11   S    
C35   H4    S    
O11   P6    D    
Ba2   O6    S    
C31   C32   S    
C9    C42   A    
O10   P6    S    
C42   H29   S    
C33   O12   S    
C4    O18   S    
C1    C12   S    
Ba2   P4    S    
C16   H15   S    
C38   C39   S    
C11   H28   S    
O18   P3    S    
C40   O9    S    
Ba1   O16   S    
C39   H18   S    
C19   P3    S    
O4    P1    S    
C17   C27   S    
C37   H47   S    
O1    P1    D    
C7    C8    A    
Ba2   O23   S    
O8    P8    D    
C41   H26   S    
C23   H10   S    
C32   H51   S    
C39   H20   S    
Ba2   O21   S    
C6    P1    S    
O17   P3    D    
C20   C25   A    
C32   H53   S    
C14   P2    S    
Ba1   P2    S    
C3    C8    A    
C10   C42   A    
C31   H45   S    
C30   H34   S    
C28   C30   S    
C35   H5    S    
C1    H8    S    
O15   P2    D    
C28   O22   S    
Ba2   O5    S    
C15   C17   A    
Ba1   O20   S    
O6    P7    D    
Ba1   O23   S    
O14   P6    S    
C8    C9    A    
C23   C34   S    
C13   C19   A    
C18   C19   A    
C41   H22   S    
C40   C41   S    
C25   C26   S    
C40   H21   S    
C20   C21   A    
O20   P4    S    
C39   H19   S    
C28   H42   S    
Ba1   O4    S    
C33   Cl1   S    
