data_mof_unit_47899.cif
_audit_creation_date              2012-12-11T16:04:53-0500
_audit_creation_method            fapswitch 2.2
_symmetry_space_group_name_H-M    P1
_symmetry_Int_Tables_number       1
_space_group_crystal_system       triclinic
_cell_length_a                    10.657497
_cell_length_b                    10.606078
_cell_length_c                    16.912751
_cell_angle_alpha                 98.835489
_cell_angle_beta                  98.822148
_cell_angle_gamma                 62.138382
_cell_volume                      1662.75646277

loop_
_atom_site_label
_atom_site_type_symbol
_atom_type_description
_atom_site_fract_x
_atom_site_fract_y
_atom_site_fract_z
_atom_type_partial_charge
C1    C     C_R   0.352550 0.779711 0.400646 0.536836
C2    C     C_3   0.710234 0.328051 0.232801 -0.148845
C3    C     C_3   0.774315 0.375077 0.312774 0.026158
C4    C     C_3   0.923952 0.254797 0.298328 -0.104931
C5    C     C_3   0.950798 0.359167 0.256908 -0.152615
C6    C     C_3   0.800878 0.478678 0.271587 -0.018218
C7    C     C_3   0.738105 0.431700 0.191850 -0.023466
C8    C     C_3   0.887078 0.312764 0.177262 0.021165
C9    C     C_3   0.458879 0.815290 0.227489 -0.106230
C10   C     C_3   0.422040 0.707473 0.258796 -0.123880
C11   C     C_3   0.337369 0.826111 0.322352 0.030653
C12   C     C_R   0.370319 0.346095 0.359158 0.530062
C13   C     C_3   0.374851 0.932824 0.292550 -0.132752
C14   C     C_3   0.236793 0.978739 0.234267 -0.161630
C15   C     C_3   0.201476 0.870855 0.264940 -0.035467
C16   C     C_3   0.284954 0.754131 0.201836 0.005704
C17   C     C_3   0.321944 0.859000 0.171006 0.059117
C18   C     C_3   0.453875 0.256517 0.771999 -0.016148
C19   C     C_3   0.395653 0.399027 0.734662 -0.136456
C20   C     C_3   0.334807 0.331205 0.660808 0.057267
C21   C     C_3   0.394704 0.189201 0.698511 -0.129720
C22   C     C_3   0.252167 0.246642 0.736561 -0.158170
C23   C     C_R   0.715792 0.410583 0.389665 0.545002
C24   C     C_3   0.193992 0.388016 0.697592 -0.009543
C25   C     C_3   0.253474 0.453410 0.771648 -0.052132
C26   C     C_3   0.313957 0.313270 0.809786 0.015779
C27   C     C_1   0.769258 0.367285 0.715467 -0.056523
C28   C     C_1   0.814148 0.329229 0.781978 -0.035634
C29   C     C_1   0.323866 0.842179 0.705742 -0.041437
C30   C     C_1   0.287055 0.887595 0.772336 -0.034302
C31   C     C_R   0.949229 0.288542 0.103001 0.532957
C32   C     C_R   0.318400 0.298181 0.120565 0.568836
C33   C     C_R   0.294018 0.891891 0.088760 0.612395
C34   C     C_R   0.354231 0.777451 0.626062 0.533440
C35   C     C_R   0.879297 0.301795 0.861963 0.562377
C36   C     C_R   0.306249 0.291149 0.890300 0.565930
C37   C     C_R   0.248292 0.940277 0.852447 0.544547
C38   C     C_R   0.366417 0.344637 0.583972 0.568759
C39   C     C_R   0.718522 0.410315 0.635762 0.545840
C40   C     C_1   0.342904 0.334268 0.275537 -0.069731
C41   C     C_1   0.330868 0.323811 0.204317 -0.073550
C42   C     C_3   0.861153 0.207537 0.217000 -0.109205
Cr1   Cr    Cr6+3 0.608340 0.611040 0.520430 1.066240
Cr2   Cr    Cr6+3 0.287650 0.601120 0.489350 1.078960
Cr3   Cr    Cr6+3 0.604040 0.287870 0.490280 1.060232
Cr4   Cr    Cr6+3 0.054020 0.052700 0.970850 1.090880
Cr5   Cr    Cr6+3 0.059230 0.375120 0.993390 1.071114
Cr6   Cr    Cr6+3 0.374950 0.061200 0.992340 1.059109
H1    H     H_    0.610752 0.316510 0.224742 0.127840
H2    H     H_    0.165013 0.089785 0.220059 0.097099
H3    H     H_    0.454111 0.461825 0.732699 0.104777
H4    H     H_    0.452303 0.080887 0.667017 0.137719
H5    H     H_    0.191558 0.186419 0.739401 0.104069
H6    H     H_    0.885172 0.097973 0.189273 0.156992
H7    H     H_    0.998742 0.184630 0.344479 0.150028
H8    H     H_    0.050270 0.370867 0.264936 0.115654
H9    H     H_    0.493746 0.595803 0.272079 0.089023
H10   H     H_    0.560417 0.796577 0.206833 0.153304
H11   H     H_    0.410259 0.006536 0.331673 0.150839
O1    O     O_R   0.751220 0.499230 0.435170 -0.464510
O2    O     O_R   0.297880 0.469080 0.560050 -0.464373
O3    O     O_R   0.489720 0.254590 0.564810 -0.531184
O4    O     O_R   0.725220 0.304230 0.585080 -0.473837
O5    O     O_3   0.500010 0.500010 0.500020 -0.315932
O6    O     O_R   0.171830 0.913880 0.057510 -0.485471
O7    O     O_R   0.940690 0.186050 0.054730 -0.495906
O8    O     O_R   0.920470 0.405720 0.075010 -0.497020
O9    O     O_R   0.196690 0.370460 0.084120 -0.491014
O10   O     O_R   0.412990 0.180750 0.091610 -0.500127
O11   O     O_R   0.366620 0.943130 0.065760 -0.502401
O12   O     O_R   0.477220 0.727600 0.436870 -0.512552
O13   O     O_R   0.160510 0.906330 0.879210 -0.457268
O14   O     O_R   0.930190 0.179050 0.889450 -0.476938
O15   O     O_R   0.909140 0.398170 0.896710 -0.503493
O16   O     O_R   0.186190 0.363460 0.918830 -0.485233
O17   O     O_R   0.401670 0.173200 0.913310 -0.508071
O18   O     O_R   0.356120 0.936130 0.900470 -0.484360
O19   O     O_3   0.162740 0.163010 0.985530 -0.325712
O20   O     O_R   0.258650 0.745120 0.411470 -0.500444
O21   O     O_R   0.297070 0.467240 0.395960 -0.489816
O22   O     O_R   0.488830 0.252610 0.387790 -0.510765
O23   O     O_R   0.724400 0.302390 0.420980 -0.473257
O24   O     O_R   0.752100 0.501210 0.612190 -0.480229
O25   O     O_R   0.478040 0.729440 0.600970 -0.515219
O26   O     O_R   0.259530 0.747110 0.588490 -0.492079
C43   C     C_1   0.062342 0.896584 0.286396 0.189967
N1    N     N_1   0.953501 0.915528 0.303682 -0.261782
C44   C     C_2   0.234345 0.654183 0.152443 0.237453
H12   H     H_    0.175690 0.614465 0.179638 0.112359
O27   O     O_2   0.258294 0.617332 0.082148 -0.460627
C45   C     C_1   0.596120 0.176073 0.812362 0.227077
N2    N     N_1   0.707487 0.109738 0.844320 -0.248925
C46   C     C_2   0.048150 0.464293 0.656395 0.258766
H13   H     H_    0.958386 0.518585 0.692348 0.131816
O28   O     O_2   0.029976 0.468068 0.583624 -0.456311
C47   C     C_1   0.163760 0.590404 0.814422 0.223849
N3    N     N_1   0.088663 0.696164 0.848444 -0.212307
C48   C     C_1   0.779223 0.623398 0.303797 0.224714
N4    N     N_1   0.763780 0.736646 0.329905 -0.261979
C49   C     C_1   0.641307 0.516562 0.127203 0.228969
N5    N     N_1   0.566761 0.581241 0.075160 -0.241943

loop_
_geom_bond_atom_site_label_1
_geom_bond_atom_site_label_2
_ccdc_geom_bond_type
C31   O7    A    
C35   O15   A    
C46   H13   S    
C23   O23   A    
C18   C21   S    
Cr1   O24   S    
Cr6   O17   S    
C5    H8    S    
C3    C23   S    
C2    C7    S    
C1    C11   S    
Cr6   O10   S    
C3    C6    S    
C33   O6    A    
C7    C8    S    
Cr2   O5    S    
C31   O8    A    
C1    O12   A    
C17   C33   S    
C18   C45   S    
C6    C48   S    
C2    H1    S    
C8    C42   S    
Cr4   O7    S    
C5    C6    S    
Cr3   O23   S    
C15   C16   S    
Cr3   O3    S    
C9    H10   S    
Cr6   O19   S    
C9    C13   S    
C36   O17   A    
C11   C15   S    
C20   C24   S    
C28   C35   S    
C27   C39   S    
C16   C17   S    
C18   C26   S    
C32   C41   S    
C9    C10   S    
Cr4   O13   S    
C32   O9    A    
C38   O2    A    
C46   O28   D    
C21   C22   S    
Cr1   O25   S    
C14   C17   S    
C34   O25   A    
Cr5   O8    S    
Cr1   O5    S    
C22   H5    S    
C23   O1    A    
C7    C49   S    
Cr2   O21   S    
C10   H9    S    
C24   C25   S    
Cr4   O6    S    
C45   N2    T    
Cr4   O19   S    
C43   N1    T    
C18   C19   S    
C25   C26   S    
C37   O18   A    
C29   C34   S    
Cr3   O4    S    
C30   C37   S    
C34   O26   A    
Cr6   O18   S    
C12   C40   S    
C29   C30   T    
C36   O16   A    
C20   C38   S    
C47   N3    T    
C20   C21   S    
C6    C7    S    
Cr1   O1    S    
C15   C43   S    
C33   O11   A    
C9    C17   S    
C40   C41   T    
C44   O27   D    
C4    H7    S    
C1    O20   A    
C22   C24   S    
C3    C4    S    
Cr5   O9    S    
C26   C36   S    
C35   O14   A    
Cr1   O12   S    
C8    C31   S    
Cr2   O20   S    
Cr3   O22   S    
Cr5   O15   S    
Cr6   O11   S    
C4    C5    S    
C5    C8    S    
C32   O10   A    
C13   H11   S    
Cr2   O2    S    
C39   O4    A    
Cr3   O5    S    
C19   C20   S    
C2    C3    S    
Cr5   O16   S    
C10   C16   S    
C24   C46   S    
C42   H6    S    
C11   C13   S    
C14   H2    S    
C4    C42   S    
C2    C42   S    
C12   O21   A    
C49   N5    T    
C12   O22   A    
Cr4   O14   S    
C19   C25   S    
C10   C11   S    
C39   O24   A    
C19   H3    S    
C44   H12   S    
C25   C47   S    
C48   N4    T    
C22   C26   S    
C37   O13   A    
C27   C28   T    
C16   C44   S    
C14   C15   S    
Cr5   O19   S    
C13   C14   S    
C21   H4    S    
Cr2   O26   S    
C38   O3    A    
