data_mof_unit_61621.cif
_audit_creation_date              2012-12-10T16:51:54-0500
_audit_creation_method            fapswitch 2.2
_symmetry_space_group_name_H-M    P1
_symmetry_Int_Tables_number       1
_space_group_crystal_system       triclinic
_cell_length_a                    30.105336
_cell_length_b                    30.439203
_cell_length_c                    21.789897
_cell_angle_alpha                 90.001777
_cell_angle_beta                  134.449457
_cell_angle_gamma                 89.997568
_cell_volume                      14254.4391665

loop_
_atom_site_label
_atom_site_type_symbol
_atom_type_description
_atom_site_fract_x
_atom_site_fract_y
_atom_site_fract_z
_atom_type_partial_charge
C1    C     C_R   0.689104 0.809813 0.881185 0.957721
C2    C     C_R   0.522120 0.670667 0.998144 -0.219531
C3    C     C_R   0.662538 0.249654 0.998715 0.897162
C4    C     C_R   0.406392 0.790129 0.998779 -0.222121
C5    C     C_R   0.593928 0.790123 0.001892 -0.222071
C6    C     C_R   0.906193 0.290125 0.998365 -0.222080
C7    C     C_R   0.093730 0.290127 0.001483 -0.222089
C8    C     C_R   0.385231 0.750057 0.001217 -0.077140
C9    C     C_R   0.614766 0.750063 0.998799 -0.077469
C10   C     C_R   0.885236 0.250060 0.001213 -0.077350
C11   C     C_R   0.114771 0.250060 0.998796 -0.077267
C12   C     C_R   0.409236 0.710376 0.003275 -0.257034
C13   C     C_R   0.977654 0.170664 0.001406 -0.219516
C14   C     C_R   0.590444 0.710392 0.996117 -0.257014
C15   C     C_R   0.909444 0.210386 0.003666 -0.257024
C16   C     C_R   0.090652 0.210382 0.996508 -0.257026
C17   C     C_R   0.454427 0.710466 0.001471 0.155405
C18   C     C_R   0.545257 0.710474 0.997927 0.155345
C19   C     C_R   0.954634 0.210470 0.001861 0.155369
C20   C     C_R   0.045464 0.210469 0.998317 0.155383
C21   C     C_R   0.476832 0.750988 0.000085 0.005606
C22   C     C_R   0.523182 0.750989 0.999975 0.005676
C23   C     C_R   0.976829 0.250989 0.000060 0.005652
C24   C     C_R   0.022533 0.170663 0.998940 -0.219502
C25   C     C_R   0.023180 0.250989 0.999951 0.005632
C26   C     C_3   0.034852 0.730628 0.839551 -0.851614
C27   C     C_3   0.965149 0.730624 0.160447 -0.851615
C28   C     C_3   0.534851 0.230629 0.839550 -0.851613
C29   C     C_3   0.465148 0.230622 0.160446 -0.851607
C30   C     C_3   0.927476 0.818512 0.748749 -0.786602
C31   C     C_3   0.072526 0.818506 0.251260 -0.786598
C32   C     C_3   0.427476 0.318514 0.748750 -0.786606
C33   C     C_3   0.572527 0.318504 0.251262 -0.786595
C34   C     C_3   0.827340 0.772558 0.761220 -0.942190
C35   C     C_R   0.524906 0.831619 0.002916 0.140546
C36   C     C_3   0.172658 0.772551 0.238781 -0.942190
C37   C     C_3   0.327340 0.272560 0.761220 -0.942187
C38   C     C_3   0.672659 0.272550 0.238782 -0.942184
C39   C     C_3   0.755865 0.610558 0.131638 -0.807004
C40   C     C_3   0.244140 0.610558 0.868362 -0.807162
C41   C     C_3   0.255858 0.110569 0.131648 -0.807122
C42   C     C_3   0.744136 0.110551 0.868370 -0.807057
C43   C     C_3   0.605739 0.886274 0.091538 -0.820253
C44   C     C_3   0.395446 0.886699 0.910858 -0.820349
C45   C     C_3   0.104997 0.386542 0.090054 -0.820306
C46   C     C_R   0.475786 0.831629 0.998498 0.140607
C47   C     C_3   0.894700 0.386435 0.909361 -0.820275
C48   C     C_3   0.594280 0.960175 0.845728 -0.812450
C49   C     C_3   0.406548 0.959728 0.154712 -0.812492
C50   C     C_3   0.094214 0.460141 0.845694 -0.812481
C51   C     C_3   0.905824 0.460112 0.154322 -0.812473
C52   C     C_R   0.024475 0.331627 0.002044 0.140586
C53   C     C_R   0.975353 0.331624 0.997623 0.140565
C54   C     C_2   0.604423 0.915288 0.761535 0.262141
C55   C     C_2   0.395736 0.915224 0.238540 0.262283
C56   C     C_2   0.104409 0.415284 0.761529 0.262161
C57   C     C_R   0.310889 0.809812 0.118816 0.957669
C58   C     C_2   0.895599 0.415279 0.238474 0.262166
C59   C     C_2   0.599879 0.913206 0.695495 -0.413246
C60   C     C_2   0.400087 0.913252 0.304418 -0.413619
C61   C     C_2   0.099881 0.413211 0.695503 -0.413267
C62   C     C_2   0.900120 0.413212 0.304495 -0.413287
C63   C     C_2   0.646134 0.883571 0.832382 -0.188731
C64   C     C_2   0.353978 0.883533 0.167661 -0.188759
C65   C     C_2   0.146123 0.383568 0.832378 -0.188734
C66   C     C_2   0.853882 0.383565 0.167623 -0.188730
C67   C     C_2   0.650263 0.842504 0.814891 -0.398357
C68   C     C_R   0.189104 0.309812 0.881185 0.957695
C69   C     C_2   0.349723 0.842499 0.185116 -0.398316
C70   C     C_2   0.150263 0.342504 0.814891 -0.398353
C71   C     C_2   0.849738 0.342503 0.185109 -0.398353
C72   C     C_R   0.131077 0.756082 0.074281 -0.284699
C73   C     C_R   0.868921 0.756080 0.925717 -0.284695
C74   C     C_R   0.631077 0.256082 0.074282 -0.284692
C75   C     C_R   0.368921 0.256080 0.925717 -0.284693
C76   C     C_R   0.113680 0.750144 0.996851 -0.087868
C77   C     C_R   0.886319 0.750140 0.003147 -0.087878
C78   C     C_R   0.613679 0.250144 0.996850 -0.087879
C79   C     C_R   0.810895 0.309812 0.118815 0.957705
C80   C     C_R   0.386319 0.250140 0.003147 -0.087874
C81   C     C_R   0.050908 0.747826 0.918673 0.162221
C82   C     C_R   0.949091 0.747822 0.081325 0.162223
C83   C     C_R   0.550908 0.247827 0.918673 0.162219
C84   C     C_R   0.449091 0.247821 0.081325 0.162223
C85   C     C_R   0.663003 0.749875 0.999710 0.892749
C86   C     C_R   0.336992 0.749871 0.000288 0.892684
C87   C     C_R   0.163007 0.249873 0.999713 0.892704
C88   C     C_R   0.836996 0.249873 0.000290 0.892725
C89   C     C_R   0.004662 0.756536 0.918678 0.032203
C90   C     C_R   0.452733 0.791252 0.998703 0.044187
C91   C     C_R   0.995336 0.756533 0.081321 0.032200
C92   C     C_R   0.504662 0.256537 0.918678 0.032204
C93   C     C_R   0.495336 0.256532 0.081321 0.032201
C94   C     C_R   0.022765 0.758532 0.999008 -0.068315
C95   C     C_R   0.977233 0.758531 0.000990 -0.068314
C96   C     C_R   0.522765 0.258532 0.999008 -0.068314
C97   C     C_R   0.477233 0.258531 0.000991 -0.068313
C98   C     C_R   0.086503 0.759307 0.077384 0.092339
C99   C     C_R   0.913496 0.759307 0.922615 0.092339
C100  C     C_R   0.586503 0.259306 0.077384 0.092338
C101  C     C_R   0.547611 0.791244 0.002015 0.044111
C102  C     C_R   0.413496 0.259307 0.922615 0.092340
C103  C     C_R   0.941410 0.763642 0.841417 0.198715
C104  C     C_R   0.058588 0.763638 0.158583 0.198713
C105  C     C_R   0.441410 0.263643 0.841417 0.198715
C106  C     C_R   0.558588 0.263637 0.158583 0.198714
C107  C     C_R   0.895386 0.764755 0.843059 0.144954
C108  C     C_R   0.104612 0.764751 0.156941 0.144959
C109  C     C_R   0.395386 0.264756 0.843059 0.144954
C110  C     C_R   0.604612 0.264750 0.156941 0.144957
C111  C     C_2   0.939938 0.623846 0.313296 -0.152510
C112  C     C_R   0.952521 0.291247 0.998263 0.044137
C113  C     C_2   0.060060 0.623846 0.686710 -0.152523
C114  C     C_2   0.439937 0.123845 0.313293 -0.152475
C115  C     C_2   0.560059 0.123847 0.686706 -0.152521
C116  C     C_2   0.914063 0.600190 0.332971 -0.280120
C117  C     C_2   0.085933 0.600190 0.667029 -0.280126
C118  C     C_2   0.414064 0.100191 0.332973 -0.280157
C119  C     C_2   0.585934 0.100190 0.667030 -0.280120
C120  C     C_2   0.904002 0.659629 0.251280 -0.238214
C121  C     C_2   0.095996 0.659629 0.748726 -0.238225
C122  C     C_2   0.404000 0.159627 0.251276 -0.238208
C123  C     C_R   0.047400 0.291250 0.001579 0.044154
C124  C     C_2   0.595995 0.159630 0.748723 -0.238224
C125  C     C_2   0.843210 0.654523 0.179773 0.068854
C126  C     C_2   0.156790 0.654523 0.820228 0.068885
C127  C     C_2   0.343207 0.154524 0.179774 0.068886
C128  C     C_2   0.656788 0.154523 0.820228 0.068861
C129  C     C_R   0.057438 0.561508 0.614270 0.921376
C130  C     C_R   0.942561 0.561508 0.385730 0.921371
C131  C     C_R   0.557438 0.061508 0.614270 0.921389
C132  C     C_R   0.442561 0.061508 0.385731 0.921288
C133  C     C_R   0.809788 0.689897 0.118118 0.875484
C134  C     C_R   0.477241 0.670662 0.000610 -0.219486
C135  C     C_R   0.190212 0.689897 0.881882 0.875446
C136  C     C_R   0.309787 0.189898 0.118118 0.875459
C137  C     C_R   0.690212 0.189897 0.881882 0.875474
C138  C     C_R   0.561272 0.942129 0.621925 0.955514
C139  C     C_R   0.438718 0.942141 0.378049 0.955365
C140  C     C_R   0.061273 0.442130 0.621928 0.955469
C141  C     C_R   0.938727 0.442130 0.378071 0.955460
C142  C     C_R   0.837461 0.749653 0.001284 0.897169
C143  C     C_R   0.162539 0.749654 0.998715 0.897141
C144  C     C_R   0.337461 0.249653 0.001283 0.897165
H1    H     H_    0.387193 0.820257 0.998745 0.179522
H2    H     H_    0.129723 0.610409 0.688976 0.182347
H3    H     H_    0.642104 0.860352 0.125608 0.256815
H4    H     H_    0.482546 0.896734 0.034066 0.234986
H5    H     H_    0.406757 0.894814 0.873369 0.235580
H6    H     H_    0.376754 0.916535 0.915564 0.242272
H7    H     H_    0.358850 0.860936 0.876316 0.256817
H8    H     H_    0.017930 0.396793 0.966916 0.234994
H9    H     H_    0.093713 0.394590 0.127600 0.235566
H10   H     H_    0.123788 0.416387 0.085552 0.242256
H11   H     H_    0.141508 0.360720 0.124422 0.256814
H12   H     H_    0.981742 0.396833 0.032453 0.234991
H13   H     H_    0.370274 0.110412 0.311027 0.182349
H14   H     H_    0.905964 0.394434 0.871778 0.235560
H15   H     H_    0.875840 0.416287 0.913726 0.242257
H16   H     H_    0.858250 0.360572 0.875114 0.256813
H17   H     H_    0.523212 0.943110 0.716633 0.246295
H18   H     H_    0.566978 0.988438 0.836993 0.243673
H19   H     H_    0.643734 0.970501 0.890017 0.246951
H20   H     H_    0.589606 0.932462 0.874084 0.237841
H21   H     H_    0.477209 0.942797 0.283926 0.246385
H22   H     H_    0.434086 0.987844 0.163578 0.243602
H23   H     H_    0.357126 0.970192 0.110100 0.246927
H24   H     H_    0.629726 0.110408 0.688980 0.182341
H25   H     H_    0.411266 0.931859 0.126659 0.237999
H26   H     H_    0.023177 0.443086 0.716590 0.246298
H27   H     H_    0.066896 0.488395 0.836950 0.243667
H28   H     H_    0.143667 0.470476 0.890010 0.246945
H29   H     H_    0.089534 0.432418 0.874027 0.237883
H30   H     H_    0.976839 0.443074 0.283438 0.246309
H31   H     H_    0.933152 0.488356 0.163069 0.243662
H32   H     H_    0.856371 0.470453 0.109985 0.246945
H33   H     H_    0.910511 0.432377 0.126013 0.237880
H34   H     H_    0.928186 0.689806 0.262778 0.149339
H35   H     H_    0.071810 0.689806 0.737231 0.149340
H36   H     H_    0.428187 0.189802 0.262770 0.149332
H37   H     H_    0.571811 0.189809 0.737225 0.149343
H38   H     H_    0.391655 0.679559 0.004340 0.141975
H39   H     H_    0.607773 0.679578 0.994556 0.142237
H40   H     H_    0.892022 0.179570 0.005042 0.142141
H41   H     H_    0.613359 0.820253 0.002401 0.179803
H42   H     H_    0.108139 0.179566 0.995256 0.142072
H43   H     H_    0.460076 0.639557 0.001307 0.144943
H44   H     H_    0.539030 0.639566 0.996940 0.144929
H45   H     H_    0.960650 0.139562 0.002421 0.144934
H46   H     H_    0.039604 0.139560 0.998054 0.144938
H47   H     H_    0.630818 0.891958 0.699393 0.141299
H48   H     H_    0.368981 0.892110 0.300331 0.141490
H49   H     H_    0.130834 0.391971 0.699417 0.141313
H50   H     H_    0.869163 0.391977 0.300574 0.141326
H51   H     H_    0.671679 0.893145 0.897946 0.180393
H52   H     H_    0.886845 0.320254 0.998031 0.179704
H53   H     H_    0.328530 0.893089 0.102123 0.180336
H54   H     H_    0.171658 0.393140 0.897940 0.180389
H55   H     H_    0.828348 0.393136 0.102061 0.180386
H56   H     H_    0.620905 0.831486 0.748888 0.159949
H57   H     H_    0.378997 0.831497 0.251112 0.159952
H58   H     H_    0.120913 0.331487 0.748888 0.159949
H59   H     H_    0.879086 0.331487 0.251112 0.159948
H60   H     H_    0.180311 0.757677 0.132088 0.170402
H61   H     H_    0.819687 0.757673 0.867910 0.170407
H62   H     H_    0.680311 0.257676 0.132088 0.170407
H63   H     H_    0.113014 0.320256 0.001693 0.179640
H64   H     H_    0.319687 0.257675 0.867910 0.170406
H65   H     H_    0.993584 0.708736 0.801483 0.233968
H66   H     H_    0.026695 0.758359 0.799593 0.264809
H67   H     H_    0.072572 0.709808 0.856947 0.206578
H68   H     H_    0.006415 0.708729 0.198511 0.233965
H69   H     H_    0.973307 0.758355 0.200409 0.264810
H70   H     H_    0.927428 0.709807 0.143051 0.206578
H71   H     H_    0.493583 0.208738 0.801481 0.233968
H72   H     H_    0.526695 0.258361 0.799592 0.264808
H73   H     H_    0.572571 0.209810 0.856945 0.206577
H74   H     H_    0.986580 0.617053 0.341750 0.167429
H75   H     H_    0.506414 0.208728 0.198509 0.233967
H76   H     H_    0.473307 0.258353 0.200409 0.264808
H77   H     H_    0.427427 0.209806 0.143049 0.206581
H78   H     H_    0.888056 0.755327 0.710116 0.227454
H79   H     H_    0.918334 0.821842 0.689977 0.234326
H80   H     H_    0.974299 0.832314 0.803881 0.252940
H81   H     H_    0.891790 0.837463 0.739887 0.245701
H82   H     H_    0.111940 0.755317 0.289881 0.227454
H83   H     H_    0.081667 0.821835 0.310031 0.234329
H84   H     H_    0.025705 0.832313 0.196129 0.252936
H85   H     H_    0.013420 0.617053 0.658260 0.167430
H86   H     H_    0.108215 0.837454 0.260128 0.245703
H87   H     H_    0.388056 0.255329 0.710116 0.227456
H88   H     H_    0.418335 0.321845 0.689979 0.234328
H89   H     H_    0.474299 0.332317 0.803884 0.252937
H90   H     H_    0.391789 0.337465 0.739888 0.245702
H91   H     H_    0.611940 0.255315 0.289881 0.227453
H92   H     H_    0.581667 0.321832 0.310033 0.234327
H93   H     H_    0.525706 0.332311 0.196132 0.252938
H94   H     H_    0.608216 0.337452 0.260131 0.245705
H95   H     H_    0.799706 0.742772 0.745536 0.241073
H96   H     H_    0.486577 0.117050 0.341742 0.167443
H97   H     H_    0.809397 0.800934 0.770570 0.242958
H98   H     H_    0.818380 0.780623 0.703951 0.247630
H99   H     H_    0.200293 0.742767 0.254456 0.241073
H100  H     H_    0.190600 0.800930 0.229439 0.242951
H101  H     H_    0.181619 0.780609 0.296054 0.247632
H102  H     H_    0.299706 0.242775 0.745536 0.241074
H103  H     H_    0.309397 0.300936 0.770570 0.242957
H104  H     H_    0.318380 0.280625 0.703951 0.247631
H105  H     H_    0.700293 0.242765 0.254456 0.241071
H106  H     H_    0.690600 0.300929 0.229440 0.242958
H107  H     H_    0.513417 0.117056 0.658253 0.167428
H108  H     H_    0.681619 0.280608 0.296054 0.247630
H109  H     H_    0.812788 0.596221 0.112050 0.241214
H110  H     H_    0.742378 0.575736 0.125797 0.243900
H111  H     H_    0.718428 0.627079 0.068938 0.245821
H112  H     H_    0.760522 0.626542 0.181759 0.237883
H113  H     H_    0.187212 0.596218 0.887939 0.241225
H114  H     H_    0.257627 0.575737 0.874194 0.243922
H115  H     H_    0.281575 0.627075 0.931068 0.245816
H116  H     H_    0.239485 0.626548 0.818248 0.237857
H117  H     H_    0.312774 0.096221 0.112054 0.241240
H118  H     H_    0.870271 0.610409 0.311020 0.182337
H119  H     H_    0.242365 0.075749 0.125808 0.243916
H120  H     H_    0.218422 0.127091 0.068948 0.245817
H121  H     H_    0.260520 0.126557 0.181771 0.237870
H122  H     H_    0.687202 0.096218 0.887940 0.241216
H123  H     H_    0.757619 0.075728 0.874205 0.243906
H124  H     H_    0.781571 0.127068 0.931075 0.245824
H125  H     H_    0.739484 0.126537 0.818256 0.237872
H126  H     H_    0.518729 0.896889 0.968521 0.234994
H127  H     H_    0.594505 0.894206 0.129178 0.235549
H128  H     H_    0.624696 0.916135 0.087372 0.242262
N1    N     N_2   0.925256 0.772614 0.763618 -0.307691
N2    N     N_2   0.450589 0.871984 0.996310 -0.316480
N3    N     N_2   0.049805 0.371978 0.004504 -0.316449
N4    N     N_2   0.949926 0.371973 0.994979 -0.316454
N5    N     N_2   0.570742 0.947637 0.763262 -0.276823
N6    N     N_2   0.429698 0.947397 0.237035 -0.276693
N7    N     N_2   0.070706 0.447618 0.763239 -0.276805
N8    N     N_2   0.929310 0.447605 0.236771 -0.276807
N9    N     N_2   0.074742 0.772609 0.236382 -0.307691
N10   N     N_2   0.425256 0.272617 0.763619 -0.307690
N11   N     N_2   0.574742 0.272606 0.236383 -0.307692
N12   N     N_2   0.814337 0.612234 0.155231 -0.286164
N13   N     N_2   0.185666 0.612234 0.844765 -0.286137
N14   N     N_2   0.314329 0.112237 0.155236 -0.286158
N15   N     N_2   0.685660 0.112232 0.844769 -0.286153
N16   N     N_2   0.550464 0.871963 0.005825 -0.316451
O1    O     O_R   0.679230 0.769690 0.858450 -0.623744
O2    O     O_R   0.492070 0.954750 0.409550 -0.622031
O3    O     O_R   0.007930 0.454750 0.590450 -0.621995
O4    O     O_R   0.992070 0.454750 0.409550 -0.622004
O5    O     O_R   0.582530 0.954770 0.590430 -0.619469
O6    O     O_R   0.417470 0.954770 0.409570 -0.619468
O7    O     O_R   0.082530 0.454770 0.590430 -0.619468
O8    O     O_R   0.917470 0.454770 0.409570 -0.619465
O9    O     O_R   0.730270 0.820760 0.960570 -0.621422
O10   O     O_R   0.269730 0.820760 0.039430 -0.621407
O11   O     O_R   0.230270 0.320760 0.960570 -0.621424
O12   O     O_R   0.320770 0.769690 0.141550 -0.623740
O13   O     O_R   0.769730 0.320760 0.039430 -0.621423
O14   O     O_R   0.658400 0.724440 0.948940 -0.623585
O15   O     O_R   0.341600 0.724440 0.051060 -0.623503
O16   O     O_R   0.158400 0.224440 0.948940 -0.623537
O17   O     O_R   0.841600 0.224440 0.051060 -0.623558
O18   O     O_R   0.709450 0.775510 0.051050 -0.624922
O19   O     O_R   0.290550 0.775510 0.948950 -0.624840
O20   O     O_R   0.209450 0.275510 0.051050 -0.624871
O21   O     O_R   0.790550 0.275510 0.948950 -0.624892
O22   O     O_R   0.769710 0.679220 0.039380 -0.625199
O23   O     O_R   0.179230 0.269690 0.858450 -0.623744
O24   O     O_R   0.230290 0.679220 0.960620 -0.625193
O25   O     O_R   0.269710 0.179220 0.039380 -0.625194
O26   O     O_R   0.730290 0.179220 0.960620 -0.625195
O27   O     O_R   0.820750 0.730290 0.141500 -0.628580
O28   O     O_R   0.179250 0.730290 0.858500 -0.628587
O29   O     O_R   0.320750 0.230290 0.141500 -0.628587
O30   O     O_R   0.679250 0.230290 0.858500 -0.628583
O31   O     O_R   0.790530 0.724470 0.948890 -0.627155
O32   O     O_R   0.209470 0.724470 0.051110 -0.627163
O33   O     O_R   0.290530 0.224470 0.948890 -0.627153
O34   O     O_R   0.820770 0.269690 0.141550 -0.623744
O35   O     O_R   0.709470 0.224470 0.051110 -0.627156
O36   O     O_R   0.841580 0.775540 0.051010 -0.614610
O37   O     O_R   0.158420 0.775540 0.948990 -0.614615
O38   O     O_R   0.341580 0.275540 0.051010 -0.614612
O39   O     O_R   0.658420 0.275540 0.948990 -0.614612
O40   O     O_R   0.007900 0.545210 0.590430 -0.619812
O41   O     O_R   0.992100 0.545210 0.409570 -0.619813
O42   O     O_R   0.507900 0.045210 0.590430 -0.619811
O43   O     O_R   0.492100 0.045210 0.409570 -0.619783
O44   O     O_R   0.082500 0.545230 0.590410 -0.630332
O45   O     O_R   0.917500 0.545230 0.409590 -0.630328
O46   O     O_R   0.582500 0.045230 0.590410 -0.630328
O47   O     O_R   0.417500 0.045230 0.409590 -0.630343
O48   O     O_R   0.507930 0.954750 0.590450 -0.621973
Zn1   Zn    Zn3+2 0.715910 0.715890 0.931790 0.945821
Zn2   Zn    Zn3+2 0.549820 0.999980 0.500010 0.947978
Zn3   Zn    Zn3+2 0.950180 0.499980 0.499990 0.947974
Zn4   Zn    Zn3+2 0.049820 0.499980 0.500010 0.947964
Zn5   Zn    Zn3+2 0.284090 0.715890 0.068210 0.945875
Zn6   Zn    Zn3+2 0.215910 0.215890 0.931790 0.945865
Zn7   Zn    Zn3+2 0.784090 0.215890 0.068210 0.945839
Zn8   Zn    Zn3+2 0.784070 0.784090 0.068160 0.946658
Zn9   Zn    Zn3+2 0.215930 0.784090 0.931840 0.946690
Zn10  Zn    Zn3+2 0.284070 0.284090 0.068160 0.946675
Zn11  Zn    Zn3+2 0.715930 0.284090 0.931840 0.946665
Zn12  Zn    Zn3+2 0.450180 0.999980 0.499990 0.947963

loop_
_geom_bond_atom_site_label_1
_geom_bond_atom_site_label_2
_ccdc_geom_bond_type
C28   H72   S    
C44   N2    S    
C33   N11   S    
H87   N10   S    
C59   H47   S    
C127  N14   S    
C57   O12   A    
O44   Zn4   S    
C6    H52   S    
C32   H90   S    
C23   C112  A    
C46   N2    S    
O31   Zn1   S    
C95   C99   A    
C38   H105  S    
C48   H18   S    
C54   C63   S    
C98   C108  A    
O25   Zn6   S    
C89   C94   A    
O20   Zn10  S    
H122  N15   S    
C50   H27   S    
C111  H74   S    
O41   Zn4   S    
C43   H127  S    
C55   C60   D    
C21   C22   A    
C28   C83   S    
C52   N3    S    
C63   C67   D    
C21   C90   A    
C5    C101  A    
O11   Zn10  S    
C127  C136  S    
C67   H56   S    
O34   Zn7   S    
C40   H114  S    
C120  C125  D    
C74   C100  A    
C44   H6    S    
C82   C91   A    
C117  H2    S    
H91   N11   S    
C15   C19   A    
C104  N9    S    
O14   Zn1   S    
C125  N12   S    
C16   C20   A    
C15   H40   S    
C1    O1    A    
C2    C134  A    
O47   Zn12  S    
C33   H92   S    
C26   C81   S    
H4    N2    S    
C62   H50   S    
C133  O22   A    
C114  H96   S    
C36   H99   S    
C7    C123  A    
C141  O8    A    
C48   H20   S    
C136  O25   A    
C37   H103  S    
C49   H22   S    
O19   Zn9   S    
C140  O3    A    
C130  O41   A    
C77   C82   A    
C8    C86   S    
C84   C93   A    
C51   H32   S    
O13   Zn11  S    
H12   N4    S    
C39   H111  S    
C30   N1    S    
C73   C77   A    
C102  C109  A    
C24   H46   S    
C45   H10   S    
C70   H58   S    
C32   H88   S    
C56   C61   D    
C36   C108  S    
O17   Zn7   S    
H21   N6    S    
O26   Zn7   S    
C71   C79   S    
C40   H116  S    
C47   H15   S    
O28   Zn9   S    
C10   C88   S    
C31   N9    S    
C115  H107  S    
O45   Zn3   S    
C65   C70   D    
O6    Zn12  S    
C92   C96   A    
O42   Zn12  S    
C122  C127  D    
O27   Zn8   S    
C33   H94   S    
C9    C85   S    
C3    O35   A    
C11   C87   S    
C80   C144  S    
C27   H70   S    
C119  C131  S    
C68   O23   A    
C117  C129  S    
C60   H48   S    
C31   H84   S    
C55   C64   S    
C34   H97   S    
C36   H101  S    
O8    Zn3   S    
O38   Zn10  S    
C54   C59   D    
C53   N4    S    
C29   C84   S    
C7    H63   S    
C9    C14   A    
C47   N4    S    
C132  O43   A    
C59   C138  S    
C87   O20   A    
O48   Zn12  S    
C5    C9    A    
C93   C106  A    
C135  O28   A    
C39   N12   S    
C8    C12   A    
C116  C130  S    
C26   H66   S    
C64   C69   D    
C25   C123  A    
C113  C117  D    
C115  C119  D    
O36   Zn8   S    
C129  O40   A    
C93   C97   A    
O32   Zn5   S    
C144  O38   A    
C52   C53   A    
C43   N16   S    
C105  C109  A    
C18   C22   A    
C37   C109  S    
C41   H120  S    
C97   C102  A    
C139  O6    A    
C103  C107  A    
C61   C140  S    
C113  H85   S    
C30   H79   S    
O35   Zn7   S    
C124  C128  D    
O10   Zn9   S    
O23   Zn6   S    
H17   N5    S    
C3    C78   S    
C38   H106  S    
O4    Zn4   S    
C4    H1    S    
C96   C100  A    
C27   H68   S    
C1    C67   S    
C118  C132  S    
C91   C95   A    
C65   H54   S    
C113  C121  S    
C50   H28   S    
C42   H123  S    
C51   H33   S    
C129  O44   A    
O1    Zn1   S    
O22   Zn1   S    
O12   Zn5   S    
C85   O18   A    
C58   C62   D    
C100  C110  A    
C28   H73   S    
C61   H49   S    
C5    H41   S    
C80   C84   A    
C140  O7    A    
C14   H39   S    
C121  H35   S    
C130  O45   A    
C48   N5    S    
C29   H77   S    
C88   O21   A    
C22   C101  A    
C50   H29   S    
C34   C107  S    
C1    O9    A    
O7    Zn4   S    
C74   H62   S    
C2    C18   A    
C20   C25   A    
C94   C98   A    
C40   N13   S    
C120  H34   S    
C73   H61   S    
C131  O46   A    
C78   C83   A    
C29   H76   S    
C12   H38   S    
C12   C17   A    
C111  C116  D    
C38   C110  S    
C42   N15   S    
C72   C76   A    
C72   H60   S    
C81   C89   A    
C28   H71   S    
C85   O14   A    
C64   H53   S    
C56   N7    S    
C138  O5    A    
C32   N10   S    
C4    C90   A    
C32   H89   S    
C27   C82   S    
C13   C19   A    
C36   H100  S    
C103  N1    S    
C137  O26   A    
C39   H110  S    
C39   H112  S    
C45   N3    S    
C37   H102  S    
C7    C11   A    
C143  O32   A    
C75   H64   S    
O46   Zn2   S    
C66   C71   D    
O30   Zn11  S    
H113  N13   S    
C105  N10   S    
C51   H31   S    
H26   N7    S    
C43   H128  S    
C122  H36   S    
C135  O24   A    
C86   O19   A    
C58   N8    S    
C126  C135  S    
C54   N5    S    
C63   H51   S    
C45   H9    S    
C133  O27   A    
C41   N14   S    
C104  C108  A    
C132  O47   A    
H117  N14   S    
O3    Zn3   S    
C115  C124  S    
C6    C112  A    
C134  H43   S    
C128  N15   S    
C35   C101  A    
H8    N3    S    
C6    C10   A    
C46   C90   A    
C99   C107  A    
C44   H5    S    
H78   N1    S    
H82   N9    S    
C124  H37   S    
C49   H25   S    
C51   N8    S    
C94   C95   A    
C2    H44   S    
C33   H93   S    
C76   C143  S    
C92   C105  A    
C55   N6    S    
C86   O15   A    
C74   C78   A    
C17   C134  A    
C27   H69   S    
C35   N16   S    
C118  H13   S    
C35   C46   A    
C119  H24   S    
C139  O2    A    
C17   C21   A    
H30   N8    S    
C69   H57   S    
C31   H83   S    
C34   H98   S    
C14   C18   A    
C19   C23   A    
C91   C104  A    
C4    C8    A    
O33   Zn6   S    
C48   H19   S    
C72   C98   A    
C71   H59   S    
C83   C92   A    
C37   H104  S    
C142  O31   A    
O15   Zn5   S    
C49   H23   S    
C10   C15   A    
C52   C123  A    
C56   C65   S    
C31   H86   S    
C13   H45   S    
C106  N11   S    
C11   C16   A    
C142  O36   A    
C77   C142  S    
C58   C66   S    
C20   C24   A    
O21   Zn11  S    
C75   C102  A    
C26   H67   S    
C45   H11   S    
C75   C80   A    
C79   O13   A    
C66   H55   S    
H109  N12   S    
C3    O39   A    
C88   O17   A    
C87   O16   A    
C30   H81   S    
C79   O34   A    
O37   Zn9   S    
C40   H115  S    
C47   H16   S    
C68   O11   A    
C38   H108  S    
C44   H7    S    
C41   H119  S    
C116  H118  S    
C57   O10   A    
C131  O42   A    
C30   H80   S    
C50   N7    S    
C13   C24   A    
C111  C120  S    
C128  C137  S    
C34   H95   S    
C136  O29   A    
C96   C97   A    
C141  O4    A    
C144  O33   A    
C114  C118  D    
C53   C112  A    
C143  O37   A    
O5    Zn2   S    
C62   C141  S    
C42   H124  S    
C137  O30   A    
O29   Zn10  S    
C106  C110  A    
C125  C133  S    
C73   C99   A    
O9    Zn8   S    
C138  O48   A    
H126  N16   S    
C76   C81   A    
O43   Zn2   S    
O18   Zn8   S    
C42   H125  S    
C121  C126  D    
C16   H42   S    
O24   Zn5   S    
C49   N6    S    
C41   H121  S    
C26   H65   S    
O16   Zn6   S    
C23   C25   A    
O40   Zn3   S    
C43   H3    S    
C60   C139  S    
C114  C122  S    
C29   H75   S    
O39   Zn11  S    
C68   C70   S    
C126  N13   S    
O2    Zn2   S    
C57   C69   S    
C89   C103  A    
C47   H14   S    
