data_mof_unit_23730.cif
_audit_creation_date              2012-12-10T17:32:19-0500
_audit_creation_method            fapswitch 2.2
_symmetry_space_group_name_H-M    P1
_symmetry_Int_Tables_number       1
_space_group_crystal_system       triclinic
_cell_length_a                    12.316979
_cell_length_b                    13.192012
_cell_length_c                    15.073782
_cell_angle_alpha                 77.304423
_cell_angle_beta                  101.488383
_cell_angle_gamma                 116.503977
_cell_volume                      2123.89172809

loop_
_atom_site_label
_atom_site_type_symbol
_atom_type_description
_atom_site_fract_x
_atom_site_fract_y
_atom_site_fract_z
_atom_type_partial_charge
C1    C     C_R   0.855029 0.286588 0.509343 0.875606
C2    C     C_R   0.104106 0.500312 0.109928 -0.097543
C3    C     C_R   0.793503 0.485910 0.014298 -0.105946
C4    C     C_R   0.794054 0.486976 0.922031 -0.217526
C5    C     C_R   0.896601 0.492284 0.891365 0.160989
C6    C     C_R   0.999931 0.495864 0.954008 0.024917
C7    C     C_R   0.102922 0.500521 0.923144 -0.093636
C8    C     C_R   0.205655 0.504477 0.985094 0.520281
C9    C     C_R   0.207701 0.504228 0.078703 0.353706
C10   C     C_R   0.897324 0.494197 0.798790 -0.233520
C11   C     C_R   0.999493 0.498743 0.768036 -0.093167
C12   C     C_R   0.999680 0.499645 0.671165 0.792384
C13   C     C_R   0.101613 0.501543 0.830123 -0.129103
C14   C     C_R   0.276555 0.025566 0.386295 -0.205118
C15   C     C_R   0.227455 0.835468 0.471062 -0.204680
C16   C     C_R   0.812379 0.092734 0.590665 -0.295556
C17   C     C_R   0.728583 0.987895 0.628219 -0.171110
C18   C     C_R   0.604623 0.952280 0.598668 0.622620
C19   C     C_R   0.562853 0.016202 0.521936 -0.092744
C20   C     C_R   0.649855 0.122847 0.482241 -0.128738
C21   C     C_R   0.437902 0.980304 0.484691 0.087306
C22   C     C_R   0.400558 0.056244 0.417844 -0.050507
C23   C     C_R   0.144991 0.713566 0.486441 0.839123
C24   C     C_R   0.487747 0.157719 0.377658 -0.233680
C25   C     C_R   0.610919 0.186426 0.404548 0.640144
C26   C     C_R   0.350100 0.868500 0.506498 -0.229403
C27   C     C_R   0.189676 0.916123 0.413968 0.614576
C28   C     C_R   0.773114 0.164135 0.522528 -0.073361
C29   C     C_R   0.347973 0.329003 0.646583 -0.269818
C30   C     C_R   0.758553 0.645000 0.375493 0.165912
C31   C     C_R   0.661824 0.676817 0.348839 -0.166175
C32   C     C_R   0.559066 0.622499 0.395909 -0.170327
C33   C     C_R   0.551293 0.534536 0.470351 -0.033702
C34   C     C_R   0.999547 0.499253 0.328788 0.884313
C35   C     C_R   0.653171 0.505159 0.495441 0.294340
C36   C     C_R   0.447078 0.475124 0.521026 -0.024241
C37   C     C_R   0.447547 0.388353 0.595478 0.173079
C38   C     C_R   0.547438 0.361265 0.618861 -0.280072
C39   C     C_R   0.647728 0.418331 0.570173 -0.188234
C40   C     C_R   0.341595 0.497515 0.501593 0.055341
C41   C     C_R   0.247731 0.355487 0.624212 0.096053
C42   C     C_R   0.101404 0.502125 0.202071 -0.196156
C43   C     C_R   0.998361 0.497362 0.231904 -0.219326
C44   C     C_R   0.895259 0.490863 0.169428 0.606295
C45   C     C_R   0.895812 0.490588 0.077164 0.018544
C46   C     C_R   0.000089 0.495377 0.047154 -0.075687
Cu1   Cu    Cu3+1 0.098270 0.475420 0.521130 0.966223
Cu2   Cu    Cu3+1 0.901730 0.524580 0.478870 1.026086
H1    H     H_    0.179675 0.508733 0.251744 0.236920
H2    H     H_    0.460723 0.211695 0.321122 0.196605
H3    H     H_    0.247549 0.084609 0.336959 0.187018
H4    H     H_    0.376591 0.802613 0.544847 0.245396
H5    H     H_    0.906653 0.122329 0.621210 0.180090
H6    H     H_    0.759170 0.937554 0.685636 0.181783
H7    H     H_    0.170615 0.309986 0.663410 0.125497
H8    H     H_    0.548420 0.295090 0.675878 0.161773
H9    H     H_    0.347783 0.262565 0.703606 0.151442
H10   H     H_    0.333050 0.561505 0.445971 0.125320
H11   H     H_    0.837946 0.687790 0.338628 0.176666
H12   H     H_    0.487374 0.651138 0.372786 0.173162
H13   H     H_    0.666604 0.744024 0.291574 0.186912
H14   H     H_    0.719333 0.391369 0.594201 0.194385
H15   H     H_    0.712915 0.482045 0.036141 0.225182
H16   H     H_    0.714298 0.483855 0.874584 0.163740
H17   H     H_    0.817926 0.491240 0.750897 0.157324
H18   H     H_    0.180600 0.505500 0.805639 0.217793
N1    N     N_R   0.246280 0.438190 0.553160 -0.185899
N2    N     N_R   0.754320 0.561190 0.447410 -0.215324
O1    O     O_R   0.972510 0.318130 0.526570 -0.596907
O2    O     O_R   0.806530 0.359650 0.490890 -0.564105
O3    O     O_R   0.082980 0.479210 0.647590 -0.588747
O4    O     O_R   0.917000 0.520730 0.611900 -0.612695
O5    O     O_R   0.193470 0.640350 0.509110 -0.599068
O6    O     O_R   0.027490 0.681870 0.473430 -0.539050
O7    O     O_R   0.083000 0.479270 0.388100 -0.605080
O8    O     O_R   0.917020 0.520790 0.352410 -0.497861
F1    F     F_    0.528370 0.861148 0.651757 -0.675263
F2    F     F_    0.691163 0.273309 0.350906 -0.618255
F3    F     F_    0.793753 0.483779 0.198092 -0.612713
F4    F     F_    0.304040 0.509502 0.953404 -0.608576
S1    S     S_3+6 0.340793 0.510896 0.154939 0.040507
O9    O     O_2   0.434333 0.505543 0.107754 -0.164925
O10   O     O_2   0.396095 0.621617 0.193333 -0.334537
O11   O     O_3   0.301271 0.400599 0.241166 -0.552866
H19   H     H_    0.375447 0.417185 0.286120 0.369455
F5    F     F_    0.071189 0.886712 0.378364 -0.663863

loop_
_geom_bond_atom_site_label_1
_geom_bond_atom_site_label_2
_ccdc_geom_bond_type
C16   C28   A    
C21   C26   A    
C31   H13   S    
C19   C20   A    
S1    O9    D    
C7    C8    A    
C41   N1    A    
C31   C32   A    
C45   C46   A    
C2    C46   A    
C5    C6    A    
C36   C37   A    
C19   C21   A    
C23   O5    A    
C38   C39   A    
C20   C25   A    
C33   C36   A    
C18   C19   A    
Cu2   O8    S    
C16   H5    S    
C41   H7    S    
Cu1   O1    S    
Cu1   Cu2   S    
C8    C9    A    
C40   N1    A    
C1    C28   S    
C14   C27   A    
C34   O7    A    
C15   C23   S    
C12   O4    A    
C21   C22   A    
Cu2   O4    S    
Cu1   N1    S    
S1    O10   D    
C13   H18   S    
C24   H2    S    
C40   H10   S    
C25   F2    S    
Cu2   O6    S    
C36   C40   A    
C24   C25   A    
Cu1   O5    S    
C16   C17   A    
C15   C26   A    
C20   C28   A    
C3    C45   A    
C1    O1    A    
C27   F5    S    
C35   C39   A    
C43   C44   A    
C37   C38   A    
C26   H4    S    
C15   C27   A    
C14   H3    S    
C30   H11   S    
C17   C18   A    
O11   H19   S    
Cu1   O3    S    
C12   O3    A    
C29   H9    S    
C22   C24   A    
C34   O8    A    
C42   C43   A    
C32   H12   S    
C23   O6    A    
C3    C4    A    
S1    O11   S    
C44   C45   A    
C10   H17   S    
C39   H14   S    
C6    C46   A    
C29   C41   A    
C44   F3    S    
C34   C43   S    
Cu2   O2    S    
C4    C5    A    
Cu2   N2    S    
C11   C12   S    
C6    C7    A    
C3    H15   S    
C4    H16   S    
C1    O2    A    
C32   C33   A    
C14   C22   A    
Cu1   O7    S    
C5    C10   A    
C11   C13   A    
C30   C31   A    
C35   N2    A    
C2    C42   A    
C18   F1    S    
C33   C35   A    
C10   C11   A    
C42   H1    S    
C7    C13   A    
C38   H8    S    
C29   C37   A    
C8    F4    S    
C2    C9    A    
C17   H6    S    
C30   N2    A    
C9    S1    S    
