data_mof_unit_60031.cif
_audit_creation_date              2012-12-10T20:26:43-0500
_audit_creation_method            fapswitch 2.2
_symmetry_space_group_name_H-M    P1
_symmetry_Int_Tables_number       1
_space_group_crystal_system       triclinic
_cell_length_a                    41.263992
_cell_length_b                    35.445071
_cell_length_c                    21.618845
_cell_angle_alpha                 90.000617
_cell_angle_beta                  120.641345
_cell_angle_gamma                 90.001588
_cell_volume                      27204.8976545

loop_
_atom_site_label
_atom_site_type_symbol
_atom_type_description
_atom_site_fract_x
_atom_site_fract_y
_atom_site_fract_z
_atom_type_partial_charge
C1    C     C_R   0.073352 0.999967 0.073516 0.855099
C2    C     C_R   0.926647 0.999966 0.926477 0.855085
C3    C     C_R   0.573352 0.499967 0.073516 0.855099
C4    C     C_R   0.426647 0.499966 0.926477 0.855085
C5    C     C_R   0.001076 0.001577 0.315170 -0.174025
C6    C     C_R   0.998926 0.001591 0.684831 -0.173902
C7    C     C_R   0.501076 0.501577 0.315170 -0.174025
C8    C     C_R   0.498925 0.501591 0.684831 -0.173902
C9    C     C_R   0.024507 0.026325 0.304516 -0.066626
C10   C     C_R   0.975508 0.026345 0.695499 -0.066564
C11   C     C_R   0.524507 0.526325 0.304516 -0.066626
C12   C     C_R   0.475508 0.526345 0.695499 -0.066564
C13   C     C_R   0.022973 0.025285 0.239001 0.577550
C14   C     C_R   0.977038 0.025297 0.761016 0.577474
C15   C     C_R   0.522973 0.525285 0.239001 0.577550
C16   C     C_R   0.477038 0.525297 0.761016 0.577474
C17   C     C_R   0.000055 0.998671 0.186957 -0.213923
C18   C     C_R   0.999942 0.998666 0.813038 -0.213873
C19   C     C_R   0.500055 0.498671 0.186957 -0.213923
C20   C     C_R   0.499942 0.498666 0.813038 -0.213873
C21   C     C_R   0.979159 0.971688 0.201072 0.079554
C22   C     C_R   0.020818 0.971674 0.798895 0.079557
C23   C     C_R   0.479159 0.471689 0.201072 0.079554
C24   C     C_R   0.520818 0.471674 0.798895 0.079557
C25   C     C_R   0.090348 0.048451 0.386187 -0.255585
C26   C     C_R   0.909683 0.048555 0.613957 -0.255538
C27   C     C_R   0.590348 0.548451 0.386187 -0.255585
C28   C     C_R   0.409683 0.548555 0.613957 -0.255538
C29   C     C_R   0.116689 0.070203 0.444004 0.590061
C30   C     C_R   0.883341 0.070334 0.556195 0.590169
C31   C     C_R   0.616689 0.570203 0.444004 0.590061
C32   C     C_R   0.383341 0.570334 0.556195 0.590169
C33   C     C_R   0.104776 0.095918 0.477255 0.632288
C34   C     C_R   0.895256 0.096014 0.522885 0.632240
C35   C     C_R   0.604776 0.595918 0.477255 0.632288
C36   C     C_R   0.395256 0.596014 0.522885 0.632240
C37   C     C_R   0.066326 0.100793 0.451017 -0.294833
C38   C     C_R   0.933700 0.100826 0.549015 -0.294866
C39   C     C_R   0.566326 0.600794 0.451017 -0.294833
C40   C     C_R   0.433700 0.600826 0.549015 -0.294866
C41   C     C_R   0.039774 0.078961 0.393311 -0.218793
C42   C     C_R   0.960250 0.078970 0.606679 -0.218719
C43   C     C_R   0.539774 0.578961 0.393311 -0.218793
C44   C     C_R   0.460250 0.578971 0.606679 -0.218719
C45   C     C_R   0.998875 0.999668 0.119443 0.925173
C46   C     C_R   0.001125 0.999667 0.880557 0.925176
C47   C     C_R   0.498875 0.499668 0.119443 0.925173
C48   C     C_R   0.501125 0.499667 0.880557 0.925176
C49   C     C_R   0.051727 0.052001 0.361574 0.098802
C50   C     C_R   0.948295 0.052039 0.638467 0.098658
C51   C     C_R   0.551727 0.552001 0.361574 0.098802
C52   C     C_R   0.448295 0.552039 0.638467 0.098658
C53   C     C_R   0.327053 0.023504 0.287309 0.695318
C54   C     C_R   0.672946 0.023435 0.712808 0.695317
C55   C     C_R   0.827052 0.523504 0.287309 0.695318
C56   C     C_R   0.172946 0.523435 0.712808 0.695317
C57   C     C_R   0.366342 0.023093 0.325897 -0.240157
C58   C     C_R   0.633657 0.023053 0.674162 -0.240137
C59   C     C_R   0.866342 0.523093 0.325897 -0.240157
C60   C     C_R   0.133657 0.523053 0.674162 -0.240137
C61   C     C_R   0.385665 0.000291 0.387035 -0.107200
C62   C     C_R   0.614337 0.000267 0.612996 -0.107182
C63   C     C_R   0.885665 0.500291 0.387035 -0.107200
C64   C     C_R   0.114337 0.500267 0.612996 -0.107182
C65   C     C_R   0.365528 0.977686 0.409064 -0.146810
C66   C     C_R   0.634475 0.977634 0.591016 -0.146843
C67   C     C_R   0.865529 0.477686 0.409064 -0.146810
C68   C     C_R   0.134476 0.477634 0.591016 -0.146843
C69   C     C_R   0.326237 0.977541 0.369686 -0.212715
C70   C     C_R   0.673767 0.977458 0.630455 -0.212711
C71   C     C_R   0.826237 0.477541 0.369686 -0.212715
C72   C     C_R   0.173767 0.477458 0.630455 -0.212711
C73   C     C_R   0.307022 0.000550 0.309042 -0.015352
C74   C     C_R   0.692978 0.000464 0.691108 -0.015364
C75   C     C_R   0.807022 0.500550 0.309042 -0.015352
C76   C     C_R   0.192978 0.500464 0.691108 -0.015364
C77   C     C_1   0.266838 0.000410 0.269216 0.084456
C78   C     C_1   0.733162 0.000326 0.730938 0.084486
C79   C     C_1   0.766837 0.500410 0.269216 0.084456
C80   C     C_1   0.233162 0.500326 0.730938 0.084486
C81   C     C_1   0.233081 0.000195 0.235708 0.003650
C82   C     C_1   0.766918 0.000123 0.764424 0.003714
C83   C     C_1   0.733081 0.500195 0.235708 0.003650
C84   C     C_1   0.266918 0.500123 0.764424 0.003714
C85   C     C_R   0.173937 0.024483 0.136530 -0.084388
C86   C     C_R   0.826066 0.024445 0.863538 -0.084199
C87   C     C_R   0.673937 0.524483 0.136530 -0.084388
C88   C     C_R   0.326066 0.524445 0.863538 -0.084199
C89   C     C_R   0.946405 0.890309 0.068908 -0.409265
C90   C     C_R   0.053521 0.890247 0.930963 -0.409405
C91   C     C_R   0.446405 0.390309 0.068908 -0.409265
C92   C     C_R   0.553521 0.390246 0.930963 -0.409405
C93   C     C_R   0.134690 0.024600 0.096965 -0.176284
C94   C     C_R   0.865313 0.024583 0.903061 -0.176242
C95   C     C_R   0.634690 0.524600 0.096965 -0.176284
C96   C     C_R   0.365313 0.524583 0.903061 -0.176242
C97   C     C_R   0.114389 0.999904 0.115259 -0.035848
C98   C     C_R   0.885611 0.999896 0.884745 -0.035928
C99   C     C_R   0.614389 0.499904 0.115259 -0.035848
C100  C     C_R   0.385611 0.499896 0.884745 -0.035928
C101  C     C_R   0.133507 0.975350 0.173824 -0.124758
C102  C     C_R   0.866488 0.975334 0.826189 -0.124574
C103  C     C_R   0.633507 0.475350 0.173824 -0.124758
C104  C     C_R   0.366488 0.475334 0.826189 -0.124574
C105  C     C_R   0.172762 0.975705 0.214247 -0.112010
C106  C     C_R   0.827231 0.975669 0.785806 -0.111865
C107  C     C_R   0.672762 0.475705 0.214247 -0.112010
C108  C     C_R   0.327231 0.475669 0.785806 -0.111865
C109  C     C_R   0.192925 0.000137 0.195262 0.120991
C110  C     C_R   0.807074 0.000087 0.804824 0.121033
C111  C     C_R   0.692925 0.500137 0.195262 0.120991
C112  C     C_R   0.307074 0.500087 0.804824 0.121033
C113  C     C_R   0.000001 0.073319 0.499996 0.917608
C114  C     C_R   0.500001 0.573319 0.499996 0.917608
C115  C     C_R   0.000346 0.001278 0.380307 0.907680
C116  C     C_R   0.999657 0.001289 0.619692 0.907667
C117  C     C_R   0.500346 0.501278 0.380307 0.907680
C118  C     C_R   0.499657 0.501289 0.619692 0.907667
C119  C     C_R   0.999999 0.926713 0.499999 0.858580
C120  C     C_R   0.499998 0.426712 0.499999 0.858580
C121  C     C_R   0.500000 0.073230 0.499999 1.044064
C122  C     C_R   1.000000 0.573230 0.499999 1.044064
C123  C     C_R   0.426676 0.999895 0.427120 0.891323
C124  C     C_R   0.573323 0.999890 0.572882 0.891305
C125  C     C_R   0.926676 0.499895 0.427120 0.891323
C126  C     C_R   0.073323 0.499890 0.572882 0.891305
C127  C     C_R   0.970242 0.912422 0.128704 0.658850
C128  C     C_R   0.029686 0.912397 0.871228 0.658879
C129  C     C_R   0.470242 0.412422 0.128704 0.658850
C130  C     C_R   0.529686 0.412397 0.871228 0.658879
C131  C     C_R   0.500000 0.926594 0.499999 0.962449
C132  C     C_R   0.000000 0.426594 0.499999 0.962449
C133  C     C_R   0.520188 0.826259 0.564920 -0.200519
C134  C     C_R   0.479819 0.826265 0.435027 -0.200523
C135  C     C_R   0.020188 0.326259 0.564920 -0.200519
C136  C     C_R   0.979819 0.326265 0.435027 -0.200523
C137  C     C_R   0.520102 0.865538 0.565163 0.582407
C138  C     C_R   0.479900 0.865545 0.434808 0.582427
C139  C     C_R   0.020102 0.365538 0.565163 0.582407
C140  C     C_R   0.979900 0.365545 0.434808 0.582427
C141  C     C_R   0.499999 0.885425 0.499991 -0.339708
C142  C     C_R   0.999999 0.385425 0.499991 -0.339708
C143  C     C_R   0.500004 0.806808 0.499968 -0.085250
C144  C     C_R   0.000004 0.306808 0.499968 -0.085250
C145  C     C_1   0.500003 0.766674 0.499957 0.101515
C146  C     C_1   0.000003 0.266674 0.499957 0.101515
C147  C     C_1   0.000002 0.232929 0.499956 0.166094
C148  C     C_1   0.500002 0.732929 0.499956 0.166094
C149  C     C_R   0.024118 0.173211 0.563416 0.639712
C150  C     C_R   0.975887 0.173201 0.436520 0.639733
C151  C     C_R   0.524118 0.673211 0.563416 0.639712
C152  C     C_R   0.475887 0.673201 0.436520 0.639733
C153  C     C_R   0.024308 0.133961 0.563191 -0.288401
C154  C     C_R   0.975699 0.133951 0.436768 -0.288451
C155  C     C_R   0.524308 0.633961 0.563191 -0.288401
C156  C     C_R   0.475699 0.633951 0.436768 -0.288451
C157  C     C_R   0.000003 0.114274 0.499985 -0.266576
C158  C     C_R   0.500003 0.614274 0.499985 -0.266576
C159  C     C_R   0.954931 0.942200 0.149345 -0.107689
C160  C     C_R   0.045018 0.942148 0.850564 -0.107666
C161  C     C_R   0.454931 0.442200 0.149345 -0.107689
C162  C     C_R   0.545018 0.442148 0.850564 -0.107666
C163  C     C_R   0.000002 0.192773 0.499962 -0.190212
C164  C     C_R   0.500002 0.692773 0.499962 -0.190212
C165  C     C_R   0.521120 0.173569 0.476239 0.545294
C166  C     C_R   0.478822 0.173568 0.523640 0.545427
C167  C     C_R   0.021120 0.673569 0.476239 0.545294
C168  C     C_R   0.978822 0.673568 0.523640 0.545427
C169  C     C_R   0.521031 0.134253 0.475910 0.508050
C170  C     C_R   0.478941 0.134253 0.524024 0.507905
C171  C     C_R   0.021031 0.634253 0.475910 0.508050
C172  C     C_R   0.978941 0.634253 0.524024 0.507905
C173  C     C_R   0.499991 0.114394 0.499986 -0.531026
C174  C     C_R   0.999991 0.614394 0.499986 -0.531026
C175  C     C_R   0.499970 0.193102 0.499928 -0.380572
C176  C     C_R   0.999970 0.693102 0.499928 -0.380572
C177  C     C_1   0.499969 0.233344 0.499932 0.267244
C178  C     C_1   0.999969 0.733344 0.499932 0.267244
C179  C     C_1   0.999972 0.767068 0.499942 -0.005698
C180  C     C_1   0.499972 0.267068 0.499942 -0.005698
C181  C     C_R   0.022514 0.826797 0.479573 -0.106573
C182  C     C_R   0.977447 0.826797 0.520347 -0.106583
C183  C     C_R   0.522514 0.326797 0.479573 -0.106573
C184  C     C_R   0.477447 0.326797 0.520347 -0.106583
C185  C     C_R   0.022800 0.866081 0.480209 -0.173692
C186  C     C_R   0.977174 0.866082 0.519741 -0.173724
C187  C     C_R   0.522800 0.366081 0.480209 -0.173692
C188  C     C_R   0.477174 0.366082 0.519741 -0.173725
C189  C     C_R   0.999994 0.885767 0.499989 -0.035079
C190  C     C_R   0.499994 0.385767 0.499989 -0.035079
C191  C     C_R   0.915978 0.943312 0.120831 -0.471000
C192  C     C_R   0.083963 0.943171 0.878933 -0.470964
C193  C     C_R   0.415978 0.443312 0.120831 -0.471000
C194  C     C_R   0.583963 0.443171 0.878933 -0.470964
C195  C     C_R   0.999978 0.807270 0.499955 0.098957
C196  C     C_R   0.499978 0.307270 0.499955 0.098957
C197  C     C_R   0.892316 0.918871 0.065309 0.628458
C198  C     C_R   0.107610 0.918675 0.934354 0.628602
C199  C     C_R   0.392316 0.418871 0.065309 0.628458
C200  C     C_R   0.607610 0.418675 0.934354 0.628602
C201  C     C_R   0.907412 0.893985 0.036313 0.553834
C202  C     C_R   0.092513 0.893832 0.963415 0.553834
C203  C     C_R   0.407412 0.393985 0.036313 0.553834
C204  C     C_R   0.592513 0.393832 0.963415 0.553834
C205  C     C_R   0.978902 0.974712 0.264147 -0.219325
C206  C     C_R   0.021085 0.974713 0.735830 -0.219482
C207  C     C_R   0.478902 0.474712 0.264147 -0.219325
C208  C     C_R   0.521085 0.474713 0.735830 -0.219482
H1    H     H_    0.189462 0.043262 0.121376 0.171246
H2    H     H_    0.810545 0.043215 0.878713 0.171236
H3    H     H_    0.689462 0.543262 0.121376 0.171246
H4    H     H_    0.310545 0.543215 0.878713 0.171236
H5    H     H_    0.040200 0.881133 0.464173 0.160335
H6    H     H_    0.959773 0.881134 0.535768 0.160341
H7    H     H_    0.540200 0.381133 0.464173 0.160335
H8    H     H_    0.459773 0.381134 0.535768 0.160341
H9    H     H_    0.099968 0.028214 0.361447 0.208039
H10   H     H_    0.900060 0.028347 0.638749 0.208158
H11   H     H_    0.599968 0.528214 0.361447 0.208039
H12   H     H_    0.400060 0.528347 0.638749 0.208158
O1    O     O_R   0.055440 0.968710 0.055440 -0.616488
O2    O     O_R   0.944560 0.968710 0.944560 -0.616435
O3    O     O_R   0.555440 0.468710 0.055440 -0.616488
O4    O     O_R   0.444560 0.468710 0.944560 -0.616435
O5    O     O_R   0.444560 0.999900 0.496290 -0.609554
O6    O     O_R   0.555440 0.999900 0.503710 -0.609534
O7    O     O_R   0.944560 0.499900 0.496290 -0.609554
O8    O     O_R   0.055440 0.499900 0.503710 -0.609534
O9    O     O_R   0.444560 0.999880 0.392840 -0.606345
O10   O     O_R   0.555440 0.999880 0.607160 -0.606375
O11   O     O_R   0.944560 0.499880 0.392840 -0.606345
O12   O     O_R   0.055440 0.499880 0.607160 -0.606375
O13   O     O_R   0.500000 0.944470 0.551750 -0.574313
O14   O     O_R   0.500000 0.944470 0.448250 -0.574319
O15   O     O_R   0.000000 0.444470 0.551750 -0.574313
O16   O     O_R   0.000000 0.444470 0.448250 -0.574319
O17   O     O_R   0.055440 0.031290 0.055450 -0.600144
O18   O     O_R   0.944560 0.031290 0.944550 -0.600147
O19   O     O_R   0.555440 0.531290 0.055450 -0.600144
O20   O     O_R   0.444560 0.531290 0.944550 -0.600147
O21   O     O_R   0.000000 0.968710 0.091620 -0.594890
O22   O     O_R   0.000000 0.968710 0.908380 -0.594821
O23   O     O_R   0.500000 0.468710 0.091620 -0.594890
O24   O     O_R   0.500000 0.468710 0.908380 -0.594821
O25   O     O_R   1.000000 0.031290 0.091630 -0.565997
O26   O     O_R   0.000000 0.031290 0.908370 -0.565975
O27   O     O_R   0.500000 0.531290 0.091630 -0.565997
O28   O     O_R   0.500000 0.531290 0.908370 -0.565975
O29   O     O_R   0.968720 0.055450 0.468730 -0.610263
O30   O     O_R   0.031280 0.055450 0.531270 -0.610268
O31   O     O_R   0.468720 0.555450 0.468730 -0.610263
O32   O     O_R   0.531280 0.555450 0.531270 -0.610268
O33   O     O_R   0.968700 0.000020 0.377090 -0.617164
O34   O     O_R   0.031300 0.000020 0.622910 -0.617183
O35   O     O_R   0.468700 0.500020 0.377090 -0.617164
O36   O     O_R   0.531300 0.500020 0.622910 -0.617183
O37   O     O_R   0.031300 1.000000 0.439680 -0.612996
O38   O     O_R   0.968700 0.000000 0.560320 -0.612954
O39   O     O_R   0.531300 0.500000 0.439680 -0.612996
O40   O     O_R   0.468700 0.500000 0.560320 -0.612954
O41   O     O_R   0.968690 0.944590 0.468690 -0.609200
O42   O     O_R   0.031310 0.944590 0.531310 -0.609163
O43   O     O_R   0.468690 0.444590 0.468690 -0.609200
O44   O     O_R   0.531310 0.444590 0.531310 -0.609163
O45   O     O_R   0.500000 0.055330 0.551710 -0.574392
O46   O     O_R   0.500000 0.055330 0.448290 -0.574403
O47   O     O_R   0.000000 0.555330 0.551710 -0.574392
O48   O     O_R   0.000000 0.555330 0.448290 -0.574403
Zn1   Zn    Zn3+2 0.000000 0.958210 0.000000 1.066789
Zn2   Zn    Zn3+2 0.500000 0.458210 0.000000 1.066789
Zn3   Zn    Zn3+2 0.000000 0.041790 0.000000 1.097376
Zn4   Zn    Zn3+2 0.500000 0.541790 0.000000 1.097376
Zn5   Zn    Zn3+2 0.958200 0.000020 0.458210 1.021781
Zn6   Zn    Zn3+2 0.041800 0.000020 0.541790 1.021833
Zn7   Zn    Zn3+2 0.458200 0.500020 0.458210 1.021781
Zn8   Zn    Zn3+2 0.541800 0.500020 0.541790 1.021833
Zn9   Zn    Zn3+2 0.500000 0.999910 0.569080 1.108075
Zn10  Zn    Zn3+2 0.500000 0.999910 0.430920 1.108097
Zn11  Zn    Zn3+2 1.000000 0.499910 0.569080 1.108075
Zn12  Zn    Zn3+2 0.000000 0.499910 0.430920 1.108097
F1    F     F_    0.884192 0.873132 0.977287 -0.574805
F2    F     F_    0.115732 0.872930 0.022360 -0.574718
F3    F     F_    0.384192 0.373132 0.977287 -0.574805
F4    F     F_    0.615732 0.372930 0.022360 -0.574718
F5    F     F_    0.130318 0.116156 0.534971 -0.581479
F6    F     F_    0.869713 0.116280 0.465220 -0.581453
F7    F     F_    0.630318 0.616156 0.534971 -0.581479
F8    F     F_    0.369713 0.616280 0.465220 -0.581453
H13   H     H_    0.057283 0.121293 0.476008 0.205341
H14   H     H_    0.942740 0.121301 0.523976 0.205350
H15   H     H_    0.557283 0.621293 0.476008 0.205341
H16   H     H_    0.442740 0.621301 0.523976 0.205350
H17   H     H_    0.010072 0.082571 0.373971 0.158388
H18   H     H_    0.989949 0.082543 0.625952 0.158319
H19   H     H_    0.510072 0.582571 0.373971 0.158388
H20   H     H_    0.489949 0.582543 0.625952 0.158319
F9    F     F_    0.308659 0.046321 0.228918 -0.629679
F10   F     F_    0.691337 0.046239 0.771221 -0.629656
F11   F     F_    0.808659 0.546321 0.228918 -0.629679
F12   F     F_    0.191337 0.546239 0.771221 -0.629656
H21   H     H_    0.381675 0.040948 0.308912 0.188518
H22   H     H_    0.618322 0.040918 0.691129 0.188529
H23   H     H_    0.881675 0.540948 0.308912 0.188518
H24   H     H_    0.118322 0.540918 0.691129 0.188529
H25   H     H_    0.380090 0.959556 0.455750 0.174240
H26   H     H_    0.619916 0.959504 0.544327 0.174215
H27   H     H_    0.880090 0.459556 0.455750 0.174240
H28   H     H_    0.119916 0.459505 0.544327 0.174215
H29   H     H_    0.310831 0.959492 0.386269 0.180912
H30   H     H_    0.689177 0.959392 0.613912 0.180906
H31   H     H_    0.810831 0.459493 0.386269 0.180912
H32   H     H_    0.189177 0.459392 0.613912 0.180906
H33   H     H_    0.120209 0.043506 0.051375 0.158543
H34   H     H_    0.879797 0.043496 0.948640 0.158545
H35   H     H_    0.620209 0.543506 0.051375 0.158543
H36   H     H_    0.379797 0.543496 0.948640 0.158545
H37   H     H_    0.118058 0.956480 0.188978 0.172761
H38   H     H_    0.881933 0.956471 0.811016 0.172784
H39   H     H_    0.618058 0.456480 0.188978 0.172761
H40   H     H_    0.381933 0.456471 0.811016 0.172784
H41   H     H_    0.958184 0.870401 0.047419 0.223301
H42   H     H_    0.041744 0.870377 0.952518 0.223307
H43   H     H_    0.458184 0.370401 0.047419 0.223301
H44   H     H_    0.541744 0.370377 0.952518 0.223307
H45   H     H_    0.187375 0.957030 0.260147 0.156256
H46   H     H_    0.812615 0.956988 0.739914 0.156239
H47   H     H_    0.687375 0.457030 0.260147 0.156256
H48   H     H_    0.312615 0.456988 0.739914 0.156239
H49   H     H_    0.536037 0.811131 0.615241 0.208891
H50   H     H_    0.463971 0.811144 0.384697 0.208882
H51   H     H_    0.036037 0.311131 0.615241 0.208891
H52   H     H_    0.963970 0.311144 0.384697 0.208882
F13   F     F_    0.540391 0.884041 0.628653 -0.615791
F14   F     F_    0.459607 0.884054 0.371328 -0.615789
F15   F     F_    0.040391 0.384041 0.628653 -0.615791
F16   F     F_    0.959607 0.384053 0.371328 -0.615789
F17   F     F_    0.047179 0.192060 0.625242 -0.617831
F18   F     F_    0.952824 0.192039 0.374685 -0.617825
F19   F     F_    0.547179 0.692060 0.625242 -0.617831
F20   F     F_    0.452824 0.692039 0.374685 -0.617825
H53   H     H_    0.042910 0.118898 0.612469 0.203025
H54   H     H_    0.957097 0.118878 0.387499 0.203005
H55   H     H_    0.542910 0.618898 0.612469 0.203025
H56   H     H_    0.457097 0.618878 0.387499 0.203005
F21   F     F_    0.541838 0.192536 0.453752 -0.574272
F22   F     F_    0.458099 0.192534 0.546102 -0.574327
F23   F     F_    0.041838 0.692536 0.453752 -0.574272
F24   F     F_    0.958099 0.692534 0.546102 -0.574327
F25   F     F_    0.542110 0.115601 0.453895 -0.568639
F26   F     F_    0.457864 0.115598 0.546053 -0.568607
F27   F     F_    0.042110 0.615601 0.453895 -0.568639
F28   F     F_    0.957864 0.615598 0.546053 -0.568607
H57   H     H_    0.039804 0.811671 0.463291 0.172761
H58   H     H_    0.960148 0.811672 0.536614 0.172749
H59   H     H_    0.539805 0.311671 0.463291 0.172761
H60   H     H_    0.460148 0.311672 0.536614 0.172749
F29   F     F_    0.008085 0.906568 0.164293 -0.618807
F30   F     F_    0.991836 0.906598 0.835708 -0.618793
F31   F     F_    0.508085 0.406568 0.164293 -0.618807
F32   F     F_    0.491836 0.406598 0.835708 -0.618793
H61   H     H_    0.903964 0.963652 0.140959 0.232029
H62   H     H_    0.095985 0.963476 0.858757 0.232019
H63   H     H_    0.403964 0.463652 0.140959 0.232029
H64   H     H_    0.595985 0.463476 0.858757 0.232019
F33   F     F_    0.854754 0.919690 0.039464 -0.582058
F34   F     F_    0.145159 0.919399 0.960036 -0.581944
F35   F     F_    0.354754 0.419690 0.039464 -0.582058
F36   F     F_    0.645159 0.419399 0.960036 -0.581944
H65   H     H_    0.961797 0.955298 0.274881 0.179390
H66   H     H_    0.038180 0.955296 0.725085 0.179396
H67   H     H_    0.461797 0.455298 0.274881 0.179390
H68   H     H_    0.538180 0.455296 0.725085 0.179396
F37   F     F_    0.044383 0.049687 0.226454 -0.640166
F38   F     F_    0.955641 0.049702 0.773581 -0.640233
F39   F     F_    0.544383 0.549686 0.226454 -0.640166
F40   F     F_    0.455641 0.549702 0.773581 -0.640233
F41   F     F_    0.153917 0.066062 0.468099 -0.585129
F42   F     F_    0.846122 0.066260 0.532216 -0.585125
F43   F     F_    0.653917 0.566062 0.468099 -0.585129
F44   F     F_    0.346122 0.566260 0.532216 -0.585125

loop_
_geom_bond_atom_site_label_1
_geom_bond_atom_site_label_2
_ccdc_geom_bond_type
C99   C103  A    
C133  C137  A    
C55   C59   A    
C26   H10   S    
C166  F22   S    
C136  C140  A    
C47   O27   A    
O34   Zn6   S    
C175  C177  S    
C179  C195  S    
O46   Zn10  S    
C135  C139  A    
C150  C163  A    
C84   C112  S    
C119  C189  S    
O24   Zn2   S    
O25   Zn3   S    
C43   H19   S    
C26   C50   A    
C117  O39   A    
C139  C142  A    
C95   C99   A    
C118  O40   A    
C29   C33   A    
C100  C104  A    
C1    O1    A    
O6    Zn10  S    
C9    C13   A    
C134  C143  A    
C54   C74   A    
O40   Zn7   S    
C11   C15   A    
C121  C173  S    
C152  C156  A    
C172  C174  A    
C70   C74   A    
C192  C198  A    
C90   H42   S    
C80   C84   T    
C23   C207  A    
C138  F14   S    
C28   H12   S    
C155  C158  A    
C101  C105  A    
C21   C159  S    
C150  F18   S    
C41   C49   A    
C15   F39   S    
C187  H7    S    
C165  C169  A    
O42   Zn6   S    
C39   H15   S    
C86   H2    S    
C28   C32   A    
C121  O45   A    
C62   C66   A    
C116  O34   A    
C198  F34   S    
C98   C102  A    
C170  F26   S    
C56   F12   S    
C85   H1    S    
C19   C23   A    
C78   C82   T    
C115  O33   A    
C16   C20   A    
C183  C196  A    
C166  C175  A    
O39   Zn8   S    
C132  O16   A    
C6    C116  S    
C63   C125  S    
C123  O5    A    
C167  F23   S    
C33   F5    S    
C10   C14   A    
C193  C199  A    
C36   F8    S    
C201  F1    S    
C128  F30   S    
C145  C148  T    
C202  F2    S    
C146  C147  T    
C89   C127  A    
C86   C110  A    
C53   C73   A    
C138  C141  A    
C29   F41   S    
C57   C61   A    
C91   C129  A    
C59   C63   A    
C167  C171  A    
C60   C64   A    
O15   Zn11  S    
C156  C158  A    
C48   O28   A    
C137  F13   S    
C155  H55   S    
O27   Zn4   S    
C66   H26   S    
C66   C70   A    
C114  O31   A    
C31   C35   A    
O30   Zn6   S    
C61   C65   A    
C127  F29   S    
C88   H4    S    
C152  F20   S    
C73   C77   S    
C92   C130  A    
O36   Zn8   S    
C103  C107  A    
C113  C157  S    
C75   C79   S    
C90   C202  A    
C41   H17   S    
C47   O23   A    
C192  H62   S    
O14   Zn10  S    
C7    C117  S    
C43   C51   A    
C62   C124  S    
C178  C179  T    
C122  O48   A    
C67   H27   S    
C131  O13   A    
O44   Zn8   S    
C64   C68   A    
C17   C45   S    
C133  H49   S    
C19   C47   S    
C113  O29   A    
C22   C206  A    
C25   C29   A    
C188  C190  A    
C183  H59   S    
C32   F44   S    
C149  C153  A    
C85   C93   A    
C194  C200  A    
C42   H18   S    
C25   C49   A    
C87   C95   A    
C198  C202  A    
C13   F37   S    
C54   F10   S    
C131  C141  S    
C200  C204  A    
C55   C75   A    
C130  C162  A    
C176  C178  S    
C5    C115  S    
C27   C51   A    
C59   H23   S    
C60   H24   S    
C30   C34   A    
C129  C161  A    
C148  C164  S    
O22   Zn1   S    
C12   C16   A    
C136  H52   S    
C9    C49   S    
C46   O26   A    
C7    C207  A    
C115  O37   A    
C1    O17   A    
C122  C174  S    
C5    C9    A    
C107  C111  A    
C129  F31   S    
C8    C12   A    
C120  O43   A    
C161  C193  A    
O32   Zn8   S    
C206  H66   S    
C42   C50   A    
C55   F11   S    
C26   C30   A    
C151  C155  A    
C44   H20   S    
C93   C97   A    
C168  C176  A    
C105  C109  A    
C3    O3    A    
C18   C22   A    
C87   H3    S    
C68   H28   S    
C76   C80   S    
C69   H29   S    
C14   F38   S    
C180  C196  S    
C32   C36   A    
C185  C189  A    
O43   Zn7   S    
C13   C17   A    
C61   C123  S    
C153  H53   S    
O23   Zn2   S    
C147  C163  S    
C117  O35   A    
C22   C160  S    
C34   F6    S    
O21   Zn1   S    
C37   C41   A    
O18   Zn3   S    
C6    C206  A    
C203  F3    S    
C40   C44   A    
C56   C60   A    
C37   H13   S    
C172  F28   S    
C194  H64   S    
O5    Zn9   S    
C208  H68   S    
C182  C195  A    
C58   C62   A    
C88   C96   A    
C27   H11   S    
C127  C159  A    
C25   H9    S    
C165  F21   S    
C48   O24   A    
C188  H8    S    
O8    Zn12  S    
C15   C19   A    
C128  C160  A    
O37   Zn6   S    
O19   Zn4   S    
C140  C142  A    
C85   C109  A    
C54   C58   A    
C119  O42   A    
C87   C111  A    
C94   C98   A    
C2    O2    A    
C182  C186  A    
C114  C158  S    
C187  C190  A    
O2    Zn1   S    
C193  H63   S    
C135  H51   S    
C69   C73   A    
C91   H43   S    
C96   H36   S    
C92   C204  A    
C31   F43   S    
O16   Zn12  S    
C199  C203  A    
C151  F19   S    
C57   H21   S    
C18   C46   S    
C12   C52   S    
C101  H37   S    
C171  C174  A    
C24   C162  S    
C103  H39   S    
C159  C191  A    
C160  C192  A    
C154  C157  A    
C144  C146  S    
O26   Zn3   S    
C45   O25   A    
C53   C57   A    
C125  O11   A    
C184  C196  A    
C197  F33   S    
C24   C208  A    
C169  F25   S    
C108  C112  A    
O35   Zn7   S    
C199  F35   S    
C156  H56   S    
C126  O12   A    
C120  C190  S    
O28   Zn4   S    
C77   C81   T    
C114  O32   A    
C4    O20   A    
C58   H22   S    
C118  O36   A    
C81   C109  S    
C134  H50   S    
C64   C126  S    
C16   F40   S    
C27   C31   A    
C83   C111  S    
C46   O22   A    
C10   C50   S    
C82   C110  S    
C104  C108  A    
C116  O38   A    
C33   C37   A    
C137  C141  A    
C181  H57   S    
C30   F42   S    
C121  O46   A    
C6    C10   A    
C124  O6    A    
O48   Zn12  S    
C186  C189  A    
C95   H35   S    
C136  C144  A    
O33   Zn5   S    
C79   C83   T    
O45   Zn9   S    
C65   C69   A    
O47   Zn11  S    
C149  F17   S    
C40   H16   S    
C67   C71   A    
C153  C157  A    
C181  C195  A    
C132  O15   A    
C17   C21   A    
C88   C112  A    
C94   H34   S    
C168  C172  A    
C74   C78   S    
C125  O7    A    
O7    Zn11  S    
C70   H30   S    
C91   C203  A    
C3    O19   A    
C92   H44   S    
C170  C173  A    
C89   C201  A    
C56   C76   A    
C14   C18   A    
C35   C39   A    
C53   F9    S    
C72   C76   A    
C8    C118  S    
C7    C11   A    
O11   Zn12  S    
C140  F16   S    
O12   Zn11  S    
O31   Zn7   S    
C38   C42   A    
C183  C187  A    
O41   Zn5   S    
C96   C100  A    
O9    Zn10  S    
C38   H14   S    
C21   C205  A    
C8    C208  A    
C182  H58   S    
C86   C94   A    
C20   C24   A    
C185  H5    S    
C120  O44   A    
C200  F36   S    
C197  C201  A    
C149  C163  A    
C68   C72   A    
O38   Zn5   S    
C122  O47   A    
C131  O14   A    
C132  C142  S    
C171  F27   S    
C63   C67   A    
C133  C143  A    
O10   Zn9   S    
C104  H40   S    
C36   C40   A    
O3    Zn2   S    
C1    C97   S    
C181  C185  A    
C2    O18   A    
C39   C43   A    
C4    O4    A    
C5    C205  A    
C204  F4    S    
C113  O30   A    
C184  C188  A    
C93   H33   S    
C108  H48   S    
C3    C99   S    
C191  H61   S    
C123  O9    A    
C177  C180  T    
C162  C194  A    
C105  H45   S    
O17   Zn3   S    
C20   C48   S    
C107  H47   S    
C152  C164  A    
C65   H25   S    
C205  H65   S    
C135  C144  A    
C102  H38   S    
C151  C164  A    
C4    C100  S    
O29   Zn5   S    
C45   O21   A    
O1    Zn1   S    
C72   H32   S    
C106  C110  A    
C143  C145  S    
C169  C173  A    
C34   C38   A    
C71   H31   S    
C126  O8    A    
C191  C197  A    
C134  C138  A    
C165  C175  A    
O13   Zn9   S    
C207  H67   S    
C130  F32   S    
C154  H54   S    
C89   H41   S    
O20   Zn4   S    
C168  F24   S    
C71   C75   A    
C28   C52   A    
C44   C52   A    
C119  O41   A    
C139  F15   S    
C186  H6    S    
C166  C170  A    
C102  C106  A    
C35   F7    S    
C124  O10   A    
C106  H46   S    
C11   C51   S    
C184  H60   S    
O4    Zn2   S    
C2    C98   S    
C150  C154  A    
C90   C128  A    
C97   C101  A    
C167  C176  A    
C23   C161  S    
