data_mof_unit_27142.cif
_audit_creation_date              2012-10-26T19:14:42-0400
_audit_creation_method            fapswitch 2.2
_symmetry_space_group_name_H-M    P1
_symmetry_Int_Tables_number       1
_space_group_crystal_system       triclinic
_cell_length_a                    19.443337
_cell_length_b                    18.370363
_cell_length_c                    10.724343
_cell_angle_alpha                 90.082839
_cell_angle_beta                  92.545523
_cell_angle_gamma                 89.822415
_cell_volume                      3826.73181586

loop_
_atom_site_label
_atom_site_type_symbol
_atom_type_description
_atom_site_fract_x
_atom_site_fract_y
_atom_site_fract_z
_atom_type_partial_charge
C1    C     C_R   0.367688 0.499952 0.502008 0.571644
C2    C     C_R   0.527724 0.278235 0.600981 0.344701
C3    C     C_R   0.556007 0.722379 0.547025 0.330254
C4    C     C_R   0.470949 0.277156 0.401381 0.342996
C5    C     C_R   0.439471 0.797955 0.469035 -0.056856
C6    C     C_R   0.521531 0.202246 0.607927 -0.104700
C7    C     C_R   0.557870 0.798653 0.538106 -0.114875
C8    C     C_R   0.477741 0.201126 0.396427 -0.096935
C9    C     C_R   0.498064 0.838660 0.505143 -0.056971
C10   C     C_R   0.499854 0.161381 0.502689 -0.085770
C11   C     C_R   0.539779 0.962063 0.593442 0.247920
C12   C     C_R   0.631922 0.500084 0.499399 0.566183
C13   C     C_R   0.448818 0.038308 0.432280 0.197288
C14   C     C_R   0.454776 0.961661 0.420577 0.263554
C15   C     C_R   0.547941 0.037549 0.578361 0.263375
C16   C     C_R   0.499095 0.078492 0.504193 -0.064246
C17   C     C_R   0.496952 0.921556 0.507538 -0.028742
C18   C     C_R   0.502432 0.499769 0.259703 0.519900
C19   C     C_R   0.500186 0.500126 0.740612 0.529318
C20   C     C_3   0.439813 0.513306 0.038254 -0.015572
C21   C     C_3   0.567553 0.486082 0.961546 -0.005069
C22   C     C_3   0.482306 0.566037 0.960088 0.000906
C23   C     C_R   0.960962 0.570412 0.471426 0.010087
C24   C     C_3   0.525431 0.433439 0.040417 0.012064
C25   C     C_3   0.460105 0.447709 0.956843 0.006084
C26   C     C_3   0.547648 0.551524 0.044263 -0.004472
C27   C     C_3   0.502000 0.500455 0.877927 0.013662
C28   C     C_3   0.504813 0.498996 0.122776 0.008013
C29   C     C_R   0.738569 0.469614 0.386785 0.184906
C30   C     C_R   0.256210 0.543641 0.407346 0.210111
C31   C     C_R   0.253003 0.459390 0.583367 0.178727
C32   C     C_R   0.747315 0.535220 0.585599 0.208202
C33   C     C_R   0.809989 0.471668 0.381333 -0.088195
C34   C     C_R   0.035533 0.438865 0.455987 0.007163
C35   C     C_R   0.184063 0.543363 0.398502 -0.148081
C36   C     C_R   0.181556 0.466156 0.580232 -0.081365
C37   C     C_R   0.819233 0.532273 0.581981 -0.146726
C38   C     C_R   0.850505 0.501425 0.479466 -0.063000
C39   C     C_R   0.146803 0.505881 0.486004 -0.063110
C40   C     C_R   0.706842 0.500858 0.490794 0.065606
C41   C     C_R   0.291578 0.500109 0.497764 0.054565
C42   C     C_3   0.411110 0.390854 0.897868 -0.258175
C43   C     C_3   0.377980 0.341540 0.993642 -0.302690
C44   C     C_3   0.317183 0.299844 0.934250 -0.438329
C45   C     C_R   0.033457 0.571310 0.490676 0.010838
C46   C     C_3   0.596994 0.606299 0.109870 -0.246332
C47   C     C_3   0.634469 0.655542 0.019883 -0.304602
C48   C     C_3   0.690272 0.699831 0.089573 -0.445961
C49   C     C_3   0.368789 0.529791 0.089348 -0.235948
C50   C     C_3   0.311380 0.532532 0.985872 -0.294357
C51   C     C_3   0.247623 0.572829 0.027031 -0.449348
C52   C     C_3   0.635828 0.471746 0.899056 -0.262506
C53   C     C_3   0.696835 0.458365 0.991543 -0.295868
C54   C     C_3   0.762362 0.441298 0.923805 -0.447743
C55   C     C_3   0.460185 0.639847 0.903085 -0.238515
C56   C     C_R   0.963774 0.436466 0.472377 0.008054
C57   C     C_3   0.437405 0.695677 0.999558 -0.307015
C58   C     C_3   0.437802 0.772680 0.946320 -0.441431
C59   C     C_3   0.550417 0.360335 0.095778 -0.258142
C60   C     C_3   0.569922 0.303598 0.998461 -0.302482
C61   C     C_3   0.587741 0.230813 0.060408 -0.443698
C62   C     C_3   0.921833 0.641162 0.442137 -0.253965
C63   C     C_3   0.933668 0.665487 0.307918 -0.302967
C64   C     C_3   0.895407 0.736249 0.276606 -0.450747
C65   C     C_3   0.073039 0.371242 0.410219 -0.254030
C66   C     C_3   0.054797 0.357853 0.271321 -0.301778
C67   C     C_R   0.070826 0.505595 0.476459 0.011366
C68   C     C_3   0.089834 0.289231 0.224499 -0.450194
C69   C     C_3   0.069281 0.640672 0.537962 -0.253669
C70   C     C_3   0.058260 0.651048 0.677690 -0.299862
C71   C     C_3   0.092923 0.720312 0.727325 -0.452004
C72   C     C_3   0.929463 0.363943 0.501040 -0.254323
C73   C     C_3   0.945725 0.342371 0.637376 -0.300924
C74   C     C_3   0.912791 0.269705 0.668381 -0.448748
C75   C     C_R   0.926150 0.502695 0.473268 0.011817
C76   C     C_R   0.443349 0.722161 0.454978 0.331637
Cu1   Cu    Cu3+1 0.500000 0.573360 0.500000 0.970888
Cu2   Cu    Cu3+1 0.500000 0.426640 0.500000 0.933772
H1    H     H_    0.834230 0.449091 0.300733 0.137297
H2    H     H_    0.333950 0.267082 0.853839 0.168470
H3    H     H_    0.295911 0.262575 0.004183 0.153230
H4    H     H_    0.416138 0.301228 0.030569 0.188528
H5    H     H_    0.359702 0.373721 0.073121 0.182218
H6    H     H_    0.371222 0.421119 0.843353 0.175598
H7    H     H_    0.438709 0.356452 0.831291 0.185277
H8    H     H_    0.667348 0.734082 0.162519 0.167509
H9    H     H_    0.729662 0.663078 0.134022 0.150600
H10   H     H_    0.715921 0.735913 0.022992 0.157047
H11   H     H_    0.658962 0.623026 0.947083 0.178157
H12   H     H_    0.156746 0.573762 0.325147 0.098159
H13   H     H_    0.597449 0.693954 0.973689 0.170520
H14   H     H_    0.567837 0.641221 0.173421 0.167076
H15   H     H_    0.634959 0.575322 0.169309 0.147984
H16   H     H_    0.225149 0.544020 0.106458 0.166080
H17   H     H_    0.260709 0.629660 0.054061 0.150869
H18   H     H_    0.208416 0.574463 0.948530 0.142672
H19   H     H_    0.329738 0.559454 0.901144 0.169256
H20   H     H_    0.295256 0.476459 0.960576 0.178149
H21   H     H_    0.356162 0.487941 0.159192 0.161848
H22   H     H_    0.372408 0.582348 0.139710 0.183774
H23   H     H_    0.152486 0.436684 0.647708 0.140636
H24   H     H_    0.754639 0.393008 0.862335 0.159155
H25   H     H_    0.777375 0.488542 0.866915 0.163203
H26   H     H_    0.804955 0.429411 0.993282 0.145821
H27   H     H_    0.706294 0.507026 0.050884 0.187373
H28   H     H_    0.685950 0.411531 0.052129 0.207759
H29   H     H_    0.629335 0.424407 0.835660 0.163203
H30   H     H_    0.646548 0.519005 0.839766 0.191941
H31   H     H_    0.490841 0.788351 0.922907 0.154157
H32   H     H_    0.403424 0.776094 0.860949 0.154688
H33   H     H_    0.419206 0.811666 0.016627 0.173820
H34   H     H_    0.851015 0.556409 0.656562 0.098910
H35   H     H_    0.384211 0.683448 0.025999 0.166545
H36   H     H_    0.471632 0.694067 0.084871 0.174434
H37   H     H_    0.504088 0.661692 0.852296 0.158027
H38   H     H_    0.417322 0.631375 0.832808 0.154597
H39   H     H_    0.631926 0.237229 0.128793 0.166018
H40   H     H_    0.542741 0.209493 0.109080 0.161074
H41   H     H_    0.602036 0.190764 0.988266 0.174172
H42   H     H_    0.526586 0.294796 0.929871 0.206164
H43   H     H_    0.615179 0.321829 0.948061 0.194257
H44   H     H_    0.594903 0.369831 0.161622 0.169508
H45   H     H_    0.390745 0.824208 0.446184 0.196058
H46   H     H_    0.508976 0.337911 0.150283 0.219409
H47   H     H_    0.653524 0.453801 0.288031 0.318519
H48   H     H_    0.261382 0.619633 0.282713 0.324656
H49   H     H_    0.327848 0.398257 0.648968 0.341711
H50   H     H_    0.751102 0.595620 0.734999 0.315370
H51   H     H_    0.839124 0.728930 0.285365 0.159179
H52   H     H_    0.913853 0.780498 0.340266 0.157827
H53   H     H_    0.904907 0.752293 0.179096 0.143370
H54   H     H_    0.989399 0.673617 0.294217 0.156886
H55   H     H_    0.914875 0.622453 0.241886 0.162198
H56   H     H_    0.537211 0.175687 0.694574 0.175895
H57   H     H_    0.865592 0.635670 0.449863 0.163248
H58   H     H_    0.936930 0.684575 0.509763 0.138012
H59   H     H_    0.146685 0.294325 0.236034 0.160590
H60   H     H_    0.072792 0.240891 0.276898 0.156116
H61   H     H_    0.075854 0.281223 0.123909 0.142645
H62   H     H_    0.998277 0.352229 0.254803 0.157373
H63   H     H_    0.071887 0.405182 0.216159 0.162988
H64   H     H_    0.129683 0.376163 0.419374 0.159413
H65   H     H_    0.060903 0.322869 0.466822 0.138859
H66   H     H_    0.149286 0.717745 0.714714 0.159956
H67   H     H_    0.605543 0.826038 0.564049 0.184365
H68   H     H_    0.071064 0.768701 0.677612 0.155675
H69   H     H_    0.084081 0.726147 0.828437 0.141141
H70   H     H_    0.002409 0.654078 0.694983 0.156300
H71   H     H_    0.080335 0.603645 0.730196 0.163163
H72   H     H_    0.125377 0.639835 0.525784 0.158822
H73   H     H_    0.050812 0.689008 0.484475 0.136408
H74   H     H_    0.855917 0.273179 0.654368 0.161443
H75   H     H_    0.932705 0.225870 0.608179 0.156004
H76   H     H_    0.925451 0.255726 0.767470 0.144551
H77   H     H_    0.002267 0.338052 0.655861 0.158015
H78   H     H_    0.461122 0.173527 0.311229 0.176681
H79   H     H_    0.925695 0.385015 0.700070 0.164319
H80   H     H_    0.872871 0.365739 0.486989 0.157661
H81   H     H_    0.945781 0.320359 0.437153 0.137872
H82   H     H_    0.410009 0.651068 0.338990 0.372588
H83   H     H_    0.590102 0.351317 0.661107 0.360689
H84   H     H_    0.592029 0.650342 0.659725 0.368258
H85   H     H_    0.410192 0.353056 0.341085 0.369888
H86   H     H_    0.547630 0.889296 0.722913 0.308204
H87   H     H_    0.377326 0.111576 0.429707 0.333121
H88   H     H_    0.398598 0.960417 0.264597 0.374387
H89   H     H_    0.275920 0.338199 0.901841 0.187015
H90   H     H_    0.620605 0.108820 0.586102 0.316356
N1    N     N_R   0.500000 0.683620 0.500000 -0.250817
N2    N     N_R   0.500000 0.316380 0.500000 -0.228583
O1    O     O_R   0.400190 0.561980 0.499980 -0.433559
O2    O     O_3   0.293031 0.584792 0.326597 -0.705198
O3    O     O_3   0.281729 0.413549 0.672931 -0.754564
O4    O     O_3   0.715605 0.571779 0.679791 -0.717221
O5    O     O_3   0.389580 0.689101 0.391080 -0.660581
O6    O     O_3   0.563255 0.311970 0.697782 -0.738671
O7    O     O_3   0.611077 0.689065 0.607652 -0.658110
O8    O     O_3   0.431546 0.309131 0.307168 -0.747908
O9    O     O_3   0.575716 0.930049 0.692743 -0.649386
O10   O     O_3   0.391843 0.071229 0.375258 -0.719782
O11   O     O_3   0.418998 0.925119 0.325503 -0.709499
O12   O     O_R   0.599810 0.438020 0.500020 -0.532574
O13   O     O_3   0.604248 0.069004 0.639422 -0.649107
O14   O     O_R   0.599810 0.561980 0.500020 -0.449859
O15   O     O_R   0.400190 0.438020 0.499980 -0.557112
O16   O     O_R   0.499980 0.561940 0.316860 -0.539087
O17   O     O_R   0.500020 0.438060 0.683140 -0.496187
O18   O     O_R   0.500020 0.561940 0.683140 -0.541855
O19   O     O_R   0.499980 0.438060 0.316860 -0.506802
O20   O     O_3   0.702204 0.438322 0.287416 -0.747080

loop_
_geom_bond_atom_site_label_1
_geom_bond_atom_site_label_2
_ccdc_geom_bond_type
H49   O3    S    
C66   C68   S    
C21   C26   S    
C8    C10   A    
C18   O19   A    
C34   C56   A    
C23   C45   A    
C29   C33   A    
C61   H41   S    
C58   H31   S    
C43   H5    S    
C73   C74   S    
C71   H69   S    
C4    C8    A    
C76   N1    A    
C66   H63   S    
C53   C54   S    
Cu2   O19   S    
C37   C38   A    
C72   H81   S    
C4    N2    A    
C30   C35   A    
C69   H72   S    
C63   H55   S    
C54   H26   S    
C68   H60   S    
C3    C7    A    
C31   C36   A    
C65   H65   S    
C46   H14   S    
C20   C25   S    
C15   C16   A    
C73   H79   S    
Cu2   N2    S    
Cu1   O14   S    
C72   H80   S    
C74   H76   S    
C62   H58   S    
C37   H34   S    
C2    O6    S    
C11   C15   A    
C53   H28   S    
C23   C62   S    
C12   O12   A    
C52   H29   S    
C56   C72   S    
C15   O13   S    
C45   C67   A    
C48   H10   S    
C30   C41   A    
C70   C71   S    
C19   C27   S    
C51   H18   S    
C19   O17   A    
C59   H44   S    
C21   C27   S    
C59   C60   S    
C56   C75   A    
C13   C14   A    
Cu1   O16   S    
C47   H11   S    
C14   C17   A    
C74   H74   S    
C68   H59   S    
C2    C6    A    
C70   H71   S    
C39   C67   S    
H85   O8    S    
H87   O10   S    
C34   C65   S    
C26   C28   S    
C38   C75   S    
C36   C39   A    
C50   H20   S    
C61   H39   S    
C58   H33   S    
C69   H73   S    
C54   H25   S    
C44   H2    S    
C42   H6    S    
C24   C25   S    
C46   H15   S    
C44   H3    S    
C4    O8    S    
C42   H7    S    
H83   O6    S    
C33   H1    S    
C57   H35   S    
C20   C28   S    
Cu1   Cu2   S    
C45   C69   S    
C18   O16   A    
C63   C64   S    
C74   H75   S    
C36   H23   S    
Cu2   O12   S    
C44   H89   S    
C62   H57   S    
C12   C40   S    
C35   C39   A    
C43   C44   S    
C5    C9    A    
C20   C49   S    
C1    O1    A    
C19   O18   A    
C49   H21   S    
C47   C48   S    
C64   H53   S    
H88   O11   S    
Cu1   O1    S    
H90   O13   S    
C73   H77   S    
C62   C63   S    
C50   C51   S    
C48   H9    S    
C18   C28   S    
Cu2   O15   S    
C32   C37   A    
C30   O2    S    
H47   O20   S    
H86   O9    S    
C2    N2    A    
C9    C17   S    
C66   H62   S    
C64   H52   S    
C65   C66   S    
C22   C27   S    
C55   C57   S    
C22   C26   S    
H82   O5    S    
C48   H8    S    
C21   C24   S    
C11   O9    S    
C42   C43   S    
C20   C22   S    
C14   O11   S    
C52   C53   S    
C31   O3    S    
C1    C41   S    
C59   H46   S    
C7    C9    A    
C46   C47   S    
C11   C17   A    
C50   H19   S    
C31   C41   A    
C61   H40   S    
C58   H32   S    
C47   H13   S    
C54   H24   S    
C76   O5    S    
C3    N1    A    
C24   C28   S    
C23   C75   A    
C72   C73   S    
C25   C42   S    
C6    C10   A    
C22   C55   S    
C1    O15   A    
C25   C27   S    
C13   O10   S    
C5    H45   S    
H50   O4    S    
C33   C38   A    
C5    C76   A    
C3    O7    S    
C6    H56   S    
C10   C16   S    
C49   H22   S    
C65   H64   S    
C55   H37   S    
C57   C58   S    
C12   O14   A    
C57   H36   S    
C32   O4    S    
C24   C59   S    
C60   H43   S    
C29   C40   A    
C63   H54   S    
C60   H42   S    
C32   C40   A    
C69   C70   S    
C8    H78   S    
H48   O2    S    
C26   C46   S    
C51   H16   S    
C34   C67   A    
C35   H12   S    
C53   H27   S    
C71   H68   S    
C70   H70   S    
C64   H51   S    
C52   H30   S    
Cu1   N1    S    
C49   C50   S    
C55   H38   S    
C13   C16   A    
Cu1   O18   S    
C29   O20   S    
C60   C61   S    
C68   H61   S    
Cu2   O17   S    
H84   O7    S    
C21   C52   S    
C43   H4    S    
C51   H17   S    
C71   H66   S    
C7    H67   S    
