data_mof_unit_63092.cif
_audit_creation_date              2012-12-10T19:32:03-0500
_audit_creation_method            fapswitch 2.2
_symmetry_space_group_name_H-M    P1
_symmetry_Int_Tables_number       1
_space_group_crystal_system       triclinic
_cell_length_a                    18.832364
_cell_length_b                    18.62818
_cell_length_c                    18.659542
_cell_angle_alpha                 109.108074
_cell_angle_beta                  109.745964
_cell_angle_gamma                 109.450594
_cell_volume                      5045.76759185

loop_
_atom_site_label
_atom_site_type_symbol
_atom_type_description
_atom_site_fract_x
_atom_site_fract_y
_atom_site_fract_z
_atom_type_partial_charge
C1    C     C_R   0.378904 0.379671 0.499030 0.878108
C2    C     C_R   0.222582 0.164252 0.451782 0.061984
C3    C     C_3   0.227853 0.090310 0.396069 -0.530840
C4    C     C_R   0.618955 0.498412 0.621020 0.833546
C5    C     C_3   0.296909 0.160419 0.392409 -0.000876
C6    C     C_R   0.240369 0.424388 0.244733 0.118512
C7    C     C_R   0.314936 0.501229 0.313579 -0.101941
C8    C     C_R   0.324233 0.581230 0.318827 -0.216902
C9    C     C_R   0.259145 0.581179 0.253898 -0.213822
C10   C     C_R   0.183649 0.501305 0.185504 -0.089480
C11   C     C_R   0.176547 0.424509 0.184253 0.077601
C12   C     C_3   0.809260 0.499406 0.807638 0.182654
C13   C     C_3   0.120241 0.327259 0.134939 -0.484955
C14   C     C_3   0.193394 0.327141 0.204938 -0.040910
C15   C     C_R   0.765470 0.690271 0.521275 0.099320
C16   C     C_R   0.619612 0.620367 0.499774 0.881567
C17   C     C_R   0.686464 0.687922 0.502603 -0.082356
C18   C     C_R   0.676503 0.757716 0.497481 -0.217999
C19   C     C_R   0.740908 0.822196 0.497687 -0.220737
C20   C     C_R   0.815853 0.817657 0.505731 -0.094126
C21   C     C_R   0.829998 0.755125 0.523709 0.148588
C22   C     C_3   0.855709 0.693475 0.480482 -0.495229
C23   C     C_3   0.847867 0.552411 0.767825 -0.373622
C24   C     C_3   0.784218 0.621809 0.477674 -0.481671
C25   C     C_R   0.998030 0.379941 0.878248 0.882390
C26   C     C_R   0.876907 0.499129 0.875301 0.831422
C27   C     C_R   0.997715 0.620445 0.117511 0.880786
C28   C     C_R   0.379516 0.499920 0.379257 0.889194
C29   C     C_R   0.117727 0.499924 0.118149 0.883557
C30   C     C_R   0.999653 0.119951 0.619613 0.879408
C31   C     C_R   0.119297 0.119269 0.499289 0.884834
C32   C     C_R   0.000151 0.879807 0.380174 0.872584
C33   C     C_R   0.880222 0.879955 0.500509 0.873243
C34   C     C_3   0.764743 0.541421 0.849070 -0.415537
C35   C     C_R   0.923871 0.241951 0.742903 0.132191
C36   C     C_R   0.000144 0.314463 0.814890 -0.100620
C37   C     C_R   0.080023 0.322815 0.823178 -0.221025
C38   C     C_R   0.080437 0.257760 0.759068 -0.223455
C39   C     C_R   0.000982 0.186213 0.685739 -0.097252
C40   C     C_3   0.666820 0.403374 0.664105 -0.397326
C41   C     C_R   0.924277 0.181358 0.680059 0.136424
C42   C     C_3   0.827616 0.128522 0.625603 -0.493629
C43   C     C_3   0.827171 0.198778 0.697449 -0.499068
C44   C     C_R   0.922770 0.689448 0.170251 0.097948
C45   C     C_R   0.282404 0.225660 0.448967 0.134670
C46   C     C_R   0.999317 0.688023 0.183206 -0.083803
C47   C     C_R   0.079293 0.758011 0.256353 -0.214944
C48   C     C_R   0.080249 0.821981 0.322080 -0.224358
C49   C     C_R   0.001323 0.816627 0.312676 -0.093314
C50   C     C_R   0.923924 0.753799 0.234014 0.149295
C51   C     C_3   0.838941 0.691517 0.218925 -0.497985
C52   C     C_3   0.740432 0.403904 0.733093 -0.401768
C53   C     C_3   0.837863 0.620354 0.148549 -0.478701
C54   C     C_3   0.775033 0.549957 0.695953 -0.416725
C55   C     C_3   0.693940 0.543246 0.779439 -0.377293
C56   C     C_R   0.310394 0.314018 0.496848 -0.141371
C57   C     C_3   0.687052 0.498796 0.688904 0.181385
C58   C     C_3   0.267859 0.149945 0.300695 -0.860318
C59   C     C_3   0.167953 0.297560 0.264251 -0.864642
C60   C     C_R   0.270102 0.337772 0.544895 -0.200870
C61   C     C_R   0.205976 0.273163 0.545523 -0.227865
C62   C     C_R   0.183209 0.185329 0.499229 -0.059721
H1    H     H_    0.660247 0.368919 0.598975 0.184469
H2    H     H_    0.381687 0.642885 0.371877 0.151234
H3    H     H_    0.604022 0.365999 0.659756 0.153306
H4    H     H_    0.267209 0.642888 0.257600 0.155082
H5    H     H_    0.058321 0.306295 0.136329 0.218034
H6    H     H_    0.112744 0.297666 0.068701 0.178323
H7    H     H_    0.227115 0.296318 0.178952 0.171674
H8    H     H_    0.617429 0.759698 0.488756 0.149042
H9    H     H_    0.731293 0.873709 0.489226 0.156718
H10   H     H_    0.843074 0.684161 0.414517 0.191338
H11   H     H_    0.922181 0.709305 0.525030 0.207976
H12   H     H_    0.813653 0.609395 0.904206 0.157543
H13   H     H_    0.729955 0.570866 0.410010 0.217621
H14   H     H_    0.712178 0.363473 0.759284 0.184253
H15   H     H_    0.809416 0.596274 0.520598 0.194928
H16   H     H_    0.141229 0.378504 0.878933 0.159169
H17   H     H_    0.141961 0.263988 0.765832 0.158167
H18   H     H_    0.803010 0.127628 0.561958 0.209745
H19   H     H_    0.801513 0.063391 0.621497 0.197045
H20   H     H_    0.802888 0.238827 0.675418 0.190914
H21   H     H_    0.800227 0.174153 0.734495 0.211668
H22   H     H_    0.140020 0.760554 0.264569 0.151237
H23   H     H_    0.789741 0.618088 0.711747 0.160802
H24   H     H_    0.141666 0.873948 0.380453 0.157008
H25   H     H_    0.845334 0.682105 0.276184 0.191653
H26   H     H_    0.771466 0.373238 0.701970 0.149025
H27   H     H_    0.787011 0.706840 0.192261 0.207827
H28   H     H_    0.843737 0.569613 0.165014 0.217943
H29   H     H_    0.785305 0.594574 0.081255 0.195140
H30   H     H_    0.772160 0.518180 0.632269 0.172018
H31   H     H_    0.882100 0.524468 0.739498 0.167308
H32   H     H_    0.710505 0.612590 0.799968 0.183749
H33   H     H_    0.630413 0.508663 0.775077 0.163607
H34   H     H_    0.896244 0.621840 0.819719 0.181147
H35   H     H_    0.734893 0.503449 0.876358 0.176014
H36   H     H_    0.202511 0.143709 0.271460 0.247612
H37   H     H_    0.315161 0.207357 0.303841 0.255643
H38   H     H_    0.265001 0.090255 0.257556 0.237961
H39   H     H_    0.226778 0.310824 0.319558 0.244172
H40   H     H_    0.137562 0.332645 0.291192 0.251847
H41   H     H_    0.121081 0.226057 0.226212 0.243528
H42   H     H_    0.288266 0.405572 0.582242 0.172364
H43   H     H_    0.175392 0.291589 0.582628 0.141711
H44   H     H_    0.255019 0.060971 0.433211 0.181411
H45   H     H_    0.165754 0.042648 0.332900 0.214884
H46   H     H_    0.363465 0.170402 0.426159 0.158990
O1    O     O_R   0.408690 0.356690 0.448570 -0.630860
O2    O     O_R   0.947510 0.091650 0.539220 -0.624552
O3    O     O_R   0.143610 0.091630 0.552030 -0.626536
O4    O     O_R   0.408080 0.460090 0.551420 -0.625470
O5    O     O_R   0.039620 0.091690 0.448080 -0.619966
O6    O     O_R   0.052490 0.908450 0.460880 -0.624424
O7    O     O_R   0.948500 0.908500 0.356930 -0.620921
O8    O     O_R   0.960380 0.908410 0.552020 -0.619181
O9    O     O_R   0.856390 0.908470 0.448070 -0.625614
O10   O     O_R   0.592400 0.448300 0.540680 -0.632502
O11   O     O_R   0.591790 0.551700 0.643540 -0.630476
O12   O     O_R   0.049530 0.460080 0.906210 -0.623701
O13   O     O_R   0.591920 0.539910 0.448580 -0.621904
O14   O     O_R   0.591310 0.643310 0.551430 -0.623487
O15   O     O_R   0.408210 0.448300 0.356460 -0.628183
O16   O     O_R   0.407600 0.551700 0.459320 -0.621748
O17   O     O_R   0.946090 0.356720 0.906270 -0.622860
O18   O     O_R   0.853510 0.448360 0.905260 -0.632767
O19   O     O_R   0.956950 0.551730 0.905200 -0.631050
O20   O     O_R   0.945130 0.540000 0.088470 -0.622675
O21   O     O_R   0.048570 0.643360 0.088400 -0.624584
O22   O     O_R   0.037700 0.448350 0.089480 -0.619770
O23   O     O_R   0.141150 0.551720 0.089410 -0.628540
O24   O     O_R   0.051500 0.091600 0.643170 -0.623483
Zn1   Zn    Zn3+2 0.500410 0.430960 0.431320 0.923879
Zn2   Zn    Zn3+2 0.499590 0.569040 0.568680 0.939217
Zn3   Zn    Zn3+2 0.928260 0.431020 0.997380 0.934717
Zn4   Zn    Zn3+2 0.066400 0.569060 0.997290 0.938785
Zn5   Zn    Zn3+2 0.069430 0.000010 0.569450 0.945950
Zn6   Zn    Zn3+2 0.930570 0.000090 0.430650 0.945702

loop_
_geom_bond_atom_site_label_1
_geom_bond_atom_site_label_2
_ccdc_geom_bond_type
C18   H8    S    
C33   O9    A    
C43   H21   S    
C41   C42   S    
C19   H9    S    
C35   C36   A    
C58   H36   S    
C54   C57   S    
C28   O15   A    
C7    C8    A    
C39   C41   A    
C42   H18   S    
C14   C59   S    
C12   C23   S    
C40   H1    S    
C5    C58   S    
C30   O2    A    
C21   C22   S    
C36   C37   A    
C1    C56   S    
C1    O4    A    
C38   C39   A    
C13   H6    S    
C38   H17   S    
C34   H35   S    
C23   H34   S    
C18   C19   A    
C26   O18   A    
O6    Zn5   S    
C16   O14   A    
C9    H4    S    
O14   Zn2   S    
C25   O17   A    
C1    O1    A    
C44   C53   S    
C47   C48   A    
C45   C56   A    
C16   C17   S    
C4    C57   S    
C53   H29   S    
C4    O11   A    
C61   H43   S    
C9    C10   A    
O17   Zn3   S    
C34   C55   S    
C2    C45   A    
C13   C14   S    
C31   C62   S    
C4    O10   A    
C42   H19   S    
C55   H32   S    
C22   H10   S    
C12   C52   S    
C44   C46   A    
C50   C51   S    
C3    H44   S    
O13   Zn1   S    
O11   Zn2   S    
O1    Zn1   S    
C59   H39   S    
C52   H26   S    
C58   H38   S    
O19   Zn4   S    
C55   H33   S    
O23   Zn4   S    
O20   Zn3   S    
C51   H25   S    
C6    C11   A    
C8    C9    A    
C3    H45   S    
O24   Zn5   S    
C40   C52   S    
C5    C45   S    
C7    C28   S    
C23   H31   S    
C12   C26   S    
C60   C61   A    
O12   Zn4   S    
C16   O13   A    
C54   H30   S    
C37   C38   A    
C6    C14   S    
O21   Zn4   S    
C27   O20   A    
C29   O22   A    
O7    Zn6   S    
O2    Zn6   S    
C17   C18   A    
C47   H22   S    
O10   Zn1   S    
C8    H2    S    
C20   C33   S    
C27   C46   S    
C48   C49   A    
O22   Zn3   S    
C34   H12   S    
O18   Zn3   S    
C40   H3    S    
C55   C57   S    
C27   O21   A    
C14   H7    S    
C48   H24   S    
C42   C43   S    
C12   C34   S    
C25   O12   A    
C3    C5    S    
C35   C43   S    
O3    Zn5   S    
C23   C54   S    
O8    Zn5   S    
C13   H5    S    
C44   C50   A    
C15   C17   A    
C46   C47   A    
C15   C24   S    
C33   O8    A    
C40   C57   S    
C59   H40   S    
C58   H37   S    
O4    Zn2   S    
C52   H14   S    
O9    Zn6   S    
C54   H23   S    
C28   O16   A    
C24   H13   S    
C6    C7    A    
C37   H16   S    
O16   Zn2   S    
C32   O6    A    
C19   C20   A    
C2    C3    S    
C59   H41   S    
C51   H27   S    
C11   C13   S    
C10   C29   S    
C29   O23   A    
C30   O24   A    
C30   C39   S    
C22   C24   S    
C26   O19   A    
C32   O7    A    
C61   C62   A    
C35   C41   A    
C32   C49   S    
C10   C11   A    
C25   C36   S    
C56   C60   A    
C24   H15   S    
C15   C21   A    
C20   C21   A    
O15   Zn1   S    
C49   C50   A    
C53   H28   S    
C43   H20   S    
C31   O3    A    
O5    Zn6   S    
C22   H11   S    
C51   C53   S    
C60   H42   S    
C31   O5    A    
C2    C62   A    
C5    H46   S    
