data_mof_unit_51010.cif
_audit_creation_date              2012-12-10T17:05:23-0500
_audit_creation_method            fapswitch 2.2
_symmetry_space_group_name_H-M    P1
_symmetry_Int_Tables_number       1
_space_group_crystal_system       triclinic
_cell_length_a                    10.096071
_cell_length_b                    10.707734
_cell_length_c                    15.396946
_cell_angle_alpha                 89.927184
_cell_angle_beta                  67.125246
_cell_angle_gamma                 89.13264
_cell_volume                      1533.40607414

loop_
_atom_site_label
_atom_site_type_symbol
_atom_type_description
_atom_site_fract_x
_atom_site_fract_y
_atom_site_fract_z
_atom_type_partial_charge
C1    C     C_R   0.496659 0.737190 0.504457 0.980815
C2    C     C_R   0.733821 0.537741 0.026686 0.079050
C3    C     C_R   0.605685 0.471746 0.078571 0.086211
C4    C     C_R   0.409286 0.499491 0.676056 0.931896
C5    C     C_R   0.825343 0.576166 0.072274 -0.042229
C6    C     C_R   0.781113 0.557339 0.169598 -0.205322
C7    C     C_R   0.566719 0.455095 0.175259 -0.223665
C8    C     C_2   0.596010 0.066252 0.514734 -0.211597
C9    C     C_2   0.522450 0.132333 0.473500 -0.189062
C10   C     C_2   0.603677 0.932183 0.511162 -0.100751
C11   C     C_2   0.487615 0.868996 0.517521 -0.265859
C12   C     C_R   0.424384 0.467245 0.909110 0.039809
C13   C     C_2   0.077094 0.401024 0.494638 -0.214718
C14   C     C_2   0.943829 0.405243 0.472953 -0.008642
C15   C     C_R   0.504233 0.262923 0.494666 0.849775
C16   C     C_R   0.590819 0.499715 0.323725 0.890679
C17   C     C_R   0.351871 0.480895 0.777400 -0.122532
C18   C     C_R   0.650005 0.501378 0.220974 -0.080069
C19   C     C_R   0.228509 0.339551 0.904767 -0.138505
C20   C     C_R   0.251287 0.386696 0.816006 -0.154657
C21   C     C_R   0.421406 0.534819 0.830881 -0.123434
C22   C     C_2   0.962968 0.642091 0.023144 0.909399
C23   C     C_R   0.318251 0.375661 0.950086 0.141113
C24   C     C_2   0.479974 0.083435 0.397216 0.913539
C25   C     C_2   0.125898 0.612053 0.457589 1.048636
C26   C     C_2   0.921938 0.299258 0.418914 1.002401
C27   C     C_2   0.464179 0.669109 0.815520 0.873917
C28   C     C_R   0.531766 0.484679 0.945854 0.097028
C29   C     C_R   0.511764 0.434938 0.034958 0.074631
C30   C     C_R   0.399195 0.349567 0.077171 -0.188041
C31   C     C_R   0.306322 0.318393 0.033987 -0.187186
C32   C     C_R   0.662802 0.542820 0.893217 -0.167388
C33   C     C_R   0.761664 0.568975 0.932735 -0.178745
H1    H     H_    0.225206 0.248713 0.066243 0.165823
H2    H     H_    0.703638 0.886490 0.505308 0.202007
H3    H     H_    0.385234 0.915531 0.530230 0.163753
H4    H     H_    0.119042 0.310193 0.503544 0.218247
H5    H     H_    0.109260 0.697932 0.345395 0.350398
H6    H     H_    0.863448 0.240730 0.314730 0.337113
H7    H     H_    0.866592 0.561997 0.544842 0.171371
H8    H     H_    0.465006 0.414814 0.218303 0.177205
H9    H     H_    0.855534 0.619967 0.889673 0.199901
H10   H     H_    0.520345 0.817168 0.727900 0.345147
H11   H     H_    0.846267 0.591019 0.206179 0.203492
H12   H     H_    0.149048 0.267830 0.934358 0.147218
H13   H     H_    0.194775 0.346244 0.776003 0.157918
H14   H     H_    0.385971 0.299416 0.140779 0.166816
H15   H     H_    0.691241 0.567770 0.820171 0.149956
H16   H     H_    0.143152 0.661394 0.906442 0.355514
H17   H     H_    0.642840 0.110930 0.559308 0.185180
H18   H     H_    0.523363 0.965173 0.287196 0.352825
N1    N     N_2   0.148330 0.498670 0.499030 -0.174530
N2    N     N_2   0.852680 0.498640 0.499000 -0.210866
O1    O     O_R   0.386950 0.680940 0.500010 -0.592008
O2    O     O_R   0.055248 0.606913 0.932158 -0.818272
O3    O     O_2   0.375747 0.128336 0.385886 -0.604465
O4    O     O_R   0.562591 0.989579 0.336111 -0.780409
O5    O     O_2   0.112404 0.710466 0.500482 -0.624951
O6    O     O_R   0.124869 0.611447 0.366926 -0.797643
O7    O     O_2   0.953249 0.193092 0.434342 -0.634040
O8    O     O_R   0.872939 0.320659 0.346941 -0.757578
O9    O     O_2   0.465026 0.732167 0.881517 -0.593483
O10   O     O_R   0.495465 0.725767 0.728025 -0.815936
O11   O     O_R   0.613110 0.680900 0.499990 -0.601825
O12   O     O_R   0.322330 0.500030 0.632270 -0.615432
O13   O     O_R   0.548480 0.499990 0.632240 -0.594325
O14   O     O_R   0.386890 0.319100 0.500010 -0.595460
O15   O     O_R   0.613050 0.319060 0.499990 -0.613659
O16   O     O_R   0.451520 0.500010 0.367760 -0.609522
O17   O     O_R   0.677670 0.499970 0.367730 -0.558760
O18   O     O_2   0.997885 0.725463 0.063863 -0.591026
Zn1   Zn    Zn3+2 0.349000 0.500030 0.500020 1.014326
Zn2   Zn    Zn3+2 0.651000 0.499970 0.499980 1.003483

loop_
_geom_bond_atom_site_label_1
_geom_bond_atom_site_label_2
_ccdc_geom_bond_type
O16   Zn1   S    
C19   C23   A    
O11   Zn2   S    
C19   H12   S    
C9    C24   S    
C24   O4    S    
C29   C30   A    
N1    Zn1   S    
C27   O9    D    
H6    O8    S    
C24   O3    D    
O12   Zn1   S    
C30   H14   S    
C13   H4    S    
C19   C20   A    
C1    C11   S    
C1    O1    A    
C7    C18   A    
C15   O14   A    
C32   C33   A    
C14   N2    D    
O17   Zn2   S    
C2    C3    A    
C9    C15   S    
C25   N1    S    
H10   O10   S    
C6    H11   S    
C13   C14   S    
C14   C26   S    
C4    O13   A    
C5    C6    A    
C32   H15   S    
C12   C23   A    
C4    O12   A    
C27   O10   S    
C12   C28   A    
H18   O4    S    
C15   O15   A    
C5    C22   S    
C2    C33   A    
C8    C10   S    
C28   C29   A    
C26   O8    S    
H7    N2    S    
C3    C7    A    
C7    H8    S    
C21   C27   S    
C30   C31   A    
C6    C18   A    
C10   H2    S    
N2    Zn2   S    
C31   H1    S    
C2    C5    A    
C10   C11   D    
C4    C17   S    
H5    O6    S    
C13   N1    D    
C1    O11   A    
C8    H17   S    
C22   O18   D    
C28   C32   A    
C17   C20   A    
C16   O17   A    
C16   C18   S    
O14   Zn1   S    
C25   O5    D    
C3    C29   A    
C33   H9    S    
C11   H3    S    
C22   O2    S    
C25   O6    S    
O1    Zn1   S    
O15   Zn2   S    
H16   O2    S    
O13   Zn2   S    
C26   O7    D    
C12   C21   A    
C20   H13   S    
C16   O16   A    
C23   C31   A    
C8    C9    D    
C17   C21   A    
