data_mof_unit_10744.cif
_audit_creation_date              2012-12-11T14:17:52-0500
_audit_creation_method            fapswitch 2.2
_symmetry_space_group_name_H-M    P1
_symmetry_Int_Tables_number       1
_space_group_crystal_system       triclinic
_cell_length_a                    11.301034
_cell_length_b                    11.264144
_cell_length_c                    19.113816
_cell_angle_alpha                 90.128476
_cell_angle_beta                  90.248512
_cell_angle_gamma                 120.285425
_cell_volume                      2101.01097755

loop_
_atom_site_label
_atom_site_type_symbol
_atom_type_description
_atom_site_fract_x
_atom_site_fract_y
_atom_site_fract_z
_atom_type_partial_charge
C1    C     C_R   0.526219 0.448610 0.143932 0.539514
C2    C     C_R   0.049288 0.436717 0.531661 -0.145664
C3    C     C_R   0.378684 0.930971 0.529104 -0.141079
C4    C     C_R   0.546243 0.616373 0.525950 -0.160315
C5    C     C_R   0.745013 0.113405 0.585391 -0.076406
C6    C     C_R   0.887230 0.639872 0.585410 -0.072431
C7    C     C_R   0.240908 0.264314 0.564690 -0.090093
C8    C     C_R   0.954326 0.717148 0.446945 -0.096066
C9    C     C_R   0.761417 0.047978 0.447199 -0.083490
C10   C     C_R   0.353586 0.206710 0.453569 -0.087784
C11   C     C_R   0.866885 0.130261 0.560028 -0.118262
C12   C     C_R   0.552574 0.081035 0.143487 0.537864
C13   C     C_R   0.870701 0.744749 0.558024 -0.116826
C14   C     C_R   0.180278 0.131092 0.539909 -0.146120
C15   C     C_R   0.909357 0.786657 0.489600 -0.155879
C16   C     C_R   0.874774 0.096042 0.491121 -0.152292
C17   C     C_R   0.235380 0.102583 0.483445 -0.129252
C18   C     C_R   0.540350 0.428239 0.361596 0.544752
C19   C     C_R   0.546725 0.063276 0.354193 0.531331
C20   C     C_R   0.933465 0.482034 0.355099 0.541600
C21   C     C_R   0.423977 0.539864 0.638449 0.552816
C22   C     C_R   0.062880 0.543572 0.646357 0.526490
C23   C     C_R   0.923826 0.473317 0.144396 0.533038
C24   C     C_R   0.478656 0.933667 0.645505 0.531394
C25   C     C_R   0.485004 0.971229 0.928041 -0.030558
C26   C     C_R   0.032347 0.516032 0.928821 -0.033909
C27   C     C_R   0.462738 0.529726 0.933236 -0.018454
C28   C     C_R   0.971412 0.484427 0.072007 -0.035579
C29   C     C_R   0.518794 0.036224 0.070582 -0.026627
C30   C     C_R   0.509232 0.483602 0.072161 -0.028535
C31   C     C_R   0.377204 0.973425 0.965481 -0.013209
C32   C     C_R   0.029544 0.404795 0.965886 -0.011437
C33   C     C_R   0.579734 0.630067 0.969567 -0.021154
C34   C     C_R   0.429220 0.542088 0.860066 0.547102
C35   C     C_R   0.974169 0.376460 0.034353 -0.002318
C36   C     C_R   0.407336 0.031330 0.033523 -0.016022
C37   C     C_R   0.614464 0.593680 0.034087 -0.017277
C38   C     C_R   0.604349 0.000306 0.035626 0.155185
C39   C     C_R   0.008259 0.606873 0.037361 0.148720
C40   C     C_R   0.383436 0.401141 0.038646 0.119017
C41   C     C_R   0.999575 0.603871 0.964850 0.158522
C42   C     C_R   0.607521 0.008091 0.963185 0.145501
C43   C     C_R   0.381550 0.404828 0.966063 0.149166
C44   C     C_R   0.245140 0.931068 0.937784 -0.081365
C45   C     C_R   0.076008 0.549660 0.855637 0.530508
C46   C     C_R   0.066945 0.312973 0.936336 -0.067099
C47   C     C_R   0.670275 0.759284 0.941761 -0.078316
C48   C     C_R   0.935136 0.245962 0.062943 -0.066908
C49   C     C_R   0.317472 0.069659 0.063148 -0.101161
C50   C     C_R   0.748897 0.675772 0.059211 -0.081043
C51   C     C_R   0.153096 0.953283 0.973790 -0.108618
C52   C     C_R   0.032303 0.190612 0.967325 -0.090997
C53   C     C_R   0.797650 0.840308 0.969939 -0.083115
C54   C     C_R   0.966237 0.156968 0.030205 -0.087505
C55   C     C_R   0.189244 0.022265 0.036633 -0.136802
C56   C     C_R   0.473563 0.923762 0.855570 0.529877
C57   C     C_R   0.835639 0.799784 0.029423 -0.084611
C58   C     C_R   0.494784 0.986158 0.573460 0.001397
C59   C     C_R   0.004411 0.506196 0.575259 -0.006205
C60   C     C_R   0.444465 0.510214 0.565838 0.001414
C61   C     C_R   0.983583 0.510722 0.428355 -0.000315
C62   C     C_R   0.522890 0.006236 0.426463 -0.006034
C63   C     C_R   0.515677 0.455100 0.434020 0.004471
C64   C     C_R   0.625667 0.050412 0.543477 0.023118
C65   C     C_R   0.945756 0.578034 0.544542 0.027194
C66   C     C_R   0.365315 0.374475 0.535956 0.042403
C67   C     C_R   0.393235 0.944993 0.456343 -0.179568
C68   C     C_R   0.960120 0.601438 0.471829 0.034942
C69   C     C_R   0.637243 0.036376 0.471001 0.042750
C70   C     C_R   0.413553 0.345524 0.474552 0.021364
C71   C     C_3   0.547513 0.799727 0.107086 -0.295139
C72   C     C_3   0.206267 0.753248 0.110095 -0.292074
C73   C     C_3   0.245180 0.452001 0.116091 -0.289738
C74   C     C_3   0.792641 0.548445 0.900477 -0.305469
C75   C     C_3   0.747064 0.211347 0.893906 -0.297977
C76   C     C_3   0.449270 0.266191 0.898314 -0.286176
C77   C     C_R   0.029092 0.429653 0.459711 -0.145145
C78   C     C_R   0.578314 0.589817 0.459759 -0.136597
Cr1   Cr    Cr6+3 0.768550 0.541320 0.250660 0.981391
Cr2   Cr    Cr6+3 0.458680 0.227230 0.250660 0.976348
Cr3   Cr    Cr6+3 0.772770 0.231450 0.250660 0.982080
Cr4   Cr    Cr6+3 0.541320 0.768550 0.749340 0.980297
Cr5   Cr    Cr6+3 0.227230 0.458680 0.749340 0.978177
Cr6   Cr    Cr6+3 0.231450 0.772770 0.749340 0.986409
H1    H     H_    0.205053 0.882867 0.888820 0.174196
H2    H     H_    0.940964 0.062868 0.055352 0.080943
H3    H     H_    0.122689 0.048315 0.063379 0.083614
H4    H     H_    0.931633 0.863624 0.053694 0.092485
H5    H     H_    0.303794 0.907000 0.422935 0.112837
H6    H     H_    0.054180 0.365254 0.428327 0.136055
H7    H     H_    0.651887 0.675043 0.428533 0.141685
H8    H     H_    0.103388 0.390392 0.553102 0.125533
H9    H     H_    0.276296 0.874298 0.550502 0.156235
H10   H     H_    0.599703 0.720970 0.545702 0.139750
H11   H     H_    0.742379 0.141399 0.639378 0.127555
H12   H     H_    0.121810 0.325795 0.889498 0.189323
H13   H     H_    0.860141 0.611679 0.639585 0.131906
H14   H     H_    0.180424 0.274231 0.604611 0.144302
H15   H     H_    0.992027 0.762094 0.396297 0.140102
H16   H     H_    0.771522 0.011801 0.396517 0.141748
H17   H     H_    0.397084 0.177091 0.413752 0.173582
H18   H     H_    0.953543 0.167031 0.594844 0.097717
H19   H     H_    0.832818 0.796909 0.590643 0.122184
H20   H     H_    0.088072 0.050293 0.563778 0.114858
H21   H     H_    0.903043 0.872210 0.468855 0.103317
H22   H     H_    0.968933 0.107874 0.470769 0.113193
H23   H     H_    0.647838 0.802343 0.898711 0.178021
H24   H     H_    0.185061 0.999589 0.462527 0.110326
H25   H     H_    0.738357 0.973436 0.099530 0.262032
H26   H     H_    0.595783 0.749397 0.135510 0.156877
H27   H     H_    0.470434 0.726529 0.069412 0.140631
H28   H     H_    0.495137 0.827039 0.147393 0.138560
H29   H     H_    0.030335 0.765228 0.102544 0.263693
H30   H     H_    0.254639 0.851299 0.139682 0.159437
H31   H     H_    0.279904 0.753744 0.071991 0.143519
H32   H     H_    0.180635 0.671844 0.149413 0.132064
H33   H     H_    0.227776 0.260985 0.103102 0.260941
H34   H     H_    0.883144 0.205136 0.110631 0.166562
H35   H     H_    0.328735 0.504842 0.155095 0.145957
H36   H     H_    0.148370 0.402162 0.145957 0.152577
H37   H     H_    0.246096 0.529158 0.080073 0.139048
H38   H     H_    0.971868 0.733600 0.897702 0.264846
H39   H     H_    0.740708 0.596626 0.873532 0.166322
H40   H     H_    0.724977 0.478784 0.941803 0.144054
H41   H     H_    0.810755 0.488751 0.860040 0.131404
H42   H     H_    0.768402 0.039814 0.898395 0.262467
H43   H     H_    0.843602 0.263603 0.863976 0.151403
H44   H     H_    0.744799 0.282235 0.933356 0.143326
H45   H     H_    0.338698 0.135799 0.106393 0.184141
H46   H     H_    0.664012 0.183916 0.855088 0.134473
H47   H     H_    0.267634 0.198244 0.950706 0.268338
H48   H     H_    0.404976 0.171771 0.865667 0.156349
H49   H     H_    0.511762 0.259212 0.941266 0.124606
H50   H     H_    0.516412 0.352897 0.863690 0.162723
H51   H     H_    0.793563 0.649122 0.100379 0.177097
H52   H     H_    0.058364 0.928069 0.949391 0.097555
H53   H     H_    0.054632 0.121036 0.940357 0.079063
H54   H     H_    0.866155 0.933012 0.944040 0.086467
N1    N     N_2   0.651296 0.919217 0.069983 -0.494987
N2    N     N_2   0.085921 0.734928 0.072980 -0.486068
N3    N     N_2   0.258224 0.349925 0.075820 -0.502631
N4    N     N_2   0.919942 0.653600 0.931546 -0.499307
N5    N     N_2   0.734979 0.091711 0.929054 -0.495390
N6    N     N_2   0.339908 0.282907 0.926980 -0.496468
O1    O     O_R   0.910960 0.572410 0.171010 -0.544242
O2    O     O_R   0.528530 0.639750 0.824400 -0.537437
O3    O     O_R   0.111220 0.471470 0.824400 -0.550019
O4    O     O_R   0.360250 0.888780 0.824400 -0.534499
O5    O     O_R   0.909330 0.572400 0.331540 -0.541665
O6    O     O_R   0.427600 0.336930 0.331540 -0.526366
O7    O     O_R   0.663070 0.090670 0.331540 -0.529113
O8    O     O_R   0.572400 0.909330 0.668460 -0.531910
O9    O     O_R   0.336930 0.427600 0.668460 -0.533607
O10   O     O_R   0.090670 0.663070 0.668460 -0.521412
O11   O     O_R   0.638240 0.528520 0.324410 -0.500264
O12   O     O_R   0.427590 0.338550 0.171010 -0.537944
O13   O     O_R   0.471480 0.109720 0.324410 -0.532854
O14   O     O_R   0.890280 0.361760 0.324410 -0.495569
O15   O     O_R   0.528520 0.638240 0.675590 -0.494554
O16   O     O_R   0.109720 0.471480 0.675590 -0.528891
O17   O     O_R   0.361760 0.890280 0.675590 -0.498269
O18   O     O_3   0.666667 0.333333 0.250630 -0.271012
O19   O     O_3   0.333333 0.666667 0.749370 -0.285226
O20   O     O_R   0.661450 0.089040 0.171010 -0.538797
O21   O     O_R   0.572410 0.910960 0.828990 -0.549927
O22   O     O_R   0.338550 0.427590 0.828990 -0.489272
O23   O     O_R   0.089040 0.661450 0.828990 -0.540108
O24   O     O_R   0.639750 0.528530 0.175600 -0.533672
O25   O     O_R   0.471470 0.111220 0.175600 -0.538632
O26   O     O_R   0.888780 0.360250 0.175600 -0.539028

loop_
_geom_bond_atom_site_label_1
_geom_bond_atom_site_label_2
_ccdc_geom_bond_type
C25   C31   A    
C74   H40   S    
C26   C32   A    
C73   H35   S    
C7    H14   S    
C46   C52   A    
C12   C29   S    
C34   O2    A    
Cr3   O18   S    
H33   N3    S    
C24   O17   A    
C25   C56   S    
C39   C41   A    
C73   N3    S    
C27   C33   A    
Cr2   O6    S    
C23   O1    A    
C29   C36   A    
C5    C64   A    
C62   C67   A    
C8    H15   S    
C9    C69   A    
C38   C42   A    
C50   H51   S    
C18   C63   S    
C74   H41   S    
Cr4   O19   S    
C19   C62   S    
C71   H26   S    
C72   H30   S    
H42   N5    S    
C67   H5    S    
C20   O5    A    
C75   H44   S    
C51   H52   S    
C20   C61   S    
C18   O6    A    
C24   O8    A    
C26   C45   S    
Cr4   O2    S    
Cr6   O10   S    
C6    C65   A    
Cr5   O16   S    
C28   C35   A    
C61   C77   A    
C71   H27   S    
C56   O21   A    
C19   O7    A    
C38   N1    S    
Cr1   O24   S    
C13   H19   S    
C75   H43   S    
C75   H46   S    
C16   H22   S    
C47   C53   A    
C74   H39   S    
C74   N4    S    
C60   C66   A    
C73   H36   S    
C20   O14   A    
C40   N3    S    
C21   O15   A    
C14   C17   A    
C4    C60   A    
C43   N6    S    
Cr2   O25   S    
C35   C48   A    
C5    H11   S    
C52   C54   A    
Cr2   O12   S    
Cr6   O4    S    
C27   C34   S    
C58   C64   A    
Cr5   O22   S    
C77   H6    S    
C31   C44   A    
C53   H54   S    
C19   O13   A    
C6    H13   S    
C29   C38   A    
C21   C60   S    
Cr1   O1    S    
C17   H24   S    
C22   C59   S    
C54   H2    S    
C76   H50   S    
C2    C59   A    
C48   H34   S    
C1    O24   A    
C49   C55   A    
C49   H45   S    
C7    C14   A    
C62   C69   A    
C56   O4    A    
C1    O12   A    
C48   C54   A    
C32   C35   A    
C4    C78   A    
C12   O20   A    
C11   C16   A    
C14   H20   S    
C72   H31   S    
C63   C70   A    
C65   C68   A    
C71   H28   S    
C40   C43   A    
C52   H53   S    
H29   N2    S    
C30   C40   A    
C3    H9    S    
Cr3   O26   S    
C2    H8    S    
C45   O23   A    
Cr2   O18   S    
Cr6   O19   S    
C75   N5    S    
C4    H10   S    
C76   N6    S    
C44   C51   A    
C8    C68   A    
C8    C15   A    
C73   H37   S    
C13   C15   A    
C33   C47   A    
Cr3   O20   S    
Cr5   O3    S    
C23   C28   S    
H38   N4    S    
Cr1   O18   S    
C44   H1    S    
C10   C70   A    
C36   C49   A    
C22   O10   A    
Cr5   O19   S    
C39   N2    S    
C53   C57   A    
Cr3   O14   S    
C45   O3    A    
C50   C57   A    
C32   C46   A    
C9    C16   A    
C10   H17   S    
C3    C67   A    
C25   C42   A    
C71   N1    S    
C76   H49   S    
C5    C11   A    
C12   O25   A    
Cr5   O9    S    
H47   N6    S    
C78   H7    S    
C9    H16   S    
C64   C69   A    
C72   H32   S    
C47   H23   S    
C28   C39   A    
C57   H4    S    
Cr1   O5    S    
H25   N1    S    
C15   H21   S    
C41   N4    S    
Cr6   O23   S    
Cr3   O7    S    
C59   C65   A    
C7    C66   A    
Cr4   O15   S    
C76   H48   S    
C61   C68   A    
Cr2   O13   S    
C66   C70   A    
C23   O26   A    
C22   O16   A    
C37   C50   A    
C1    C30   S    
C11   H18   S    
C51   C55   A    
C55   H3    S    
C33   C37   A    
Cr6   O17   S    
Cr1   O11   S    
C3    C58   A    
C27   C43   A    
C72   N2    S    
C46   H12   S    
C30   C37   A    
C24   C58   S    
C42   N5    S    
C2    C77   A    
C21   O9    A    
C31   C36   A    
C10   C17   A    
C34   O22   A    
C63   C78   A    
Cr4   O8    S    
C18   O11   A    
C26   C41   A    
C6    C13   A    
Cr4   O21   S    
