data_mof_unit_20949.cif
_audit_creation_date              2012-12-11T15:53:34-0500
_audit_creation_method            fapswitch 2.2
_symmetry_space_group_name_H-M    P1
_symmetry_Int_Tables_number       1
_space_group_crystal_system       triclinic
_cell_length_a                    6.953041
_cell_length_b                    14.675023
_cell_length_c                    15.997352
_cell_angle_alpha                 90.469493
_cell_angle_beta                  90.054717
_cell_angle_gamma                 90.306074
_cell_volume                      1632.22749002

loop_
_atom_site_label
_atom_site_type_symbol
_atom_type_description
_atom_site_fract_x
_atom_site_fract_y
_atom_site_fract_z
_atom_type_partial_charge
O1    O     O_R   0.361600 0.167310 0.164620 -0.551425
O2    O     O_R   0.638400 0.832690 0.835380 -0.560613
O3    O     O_R   0.691080 0.157570 0.338750 -0.560414
O4    O     O_R   0.308920 0.842430 0.661250 -0.531831
O5    O     O_R   0.861410 0.336420 0.339360 -0.517179
O6    O     O_R   0.138590 0.663580 0.660640 -0.524028
C1    C     C_R   0.521958 0.135589 0.367708 0.693800
C2    C     C_R   0.478454 0.864503 0.632679 0.721711
O7    O     O_R   0.691320 0.156280 0.165240 -0.531383
O8    O     O_R   0.308680 0.843720 0.834760 -0.527112
O9    O     O_R   0.861640 0.335130 0.164600 -0.490609
O10   O     O_R   0.138360 0.664870 0.835400 -0.499623
C3    C     C_R   0.521989 0.133499 0.136439 0.769670
C4    C     C_R   0.478250 0.866180 0.863511 0.783245
O11   O     O_R   0.361370 0.168600 0.339370 -0.551137
O12   O     O_R   0.638630 0.831400 0.660630 -0.567546
O13   O     O_3   0.527990 0.310540 0.251980 -0.343012
O14   O     O_3   0.472010 0.689460 0.748020 -0.340440
V1    V     V_3+5 0.802830 0.240980 0.251990 1.534580
V2    V     V_3+5 0.197170 0.759020 0.748010 1.586593
O15   O     O_R   0.191360 0.346160 0.165220 -0.555806
O16   O     O_R   0.808640 0.653840 0.834780 -0.534482
C5    C     C_R   0.023490 0.365973 0.134309 0.864887
C6    C     C_R   0.976511 0.633703 0.865374 0.892420
O17   O     O_R   0.191130 0.347440 0.338740 -0.543051
O18   O     O_R   0.808870 0.652560 0.661260 -0.538696
C7    C     C_R   0.022517 0.369280 0.367360 0.786186
C8    C     C_R   0.977298 0.631133 0.632443 0.797195
V3    V     V_3+5 0.302840 0.262750 0.251990 1.508663
V4    V     V_3+5 0.697160 0.737250 0.748010 1.546695
O19   O     O_3   0.027820 0.193180 0.251990 -0.401510
O20   O     O_3   0.972180 0.806820 0.748010 -0.404762
C9    C     C_3   0.877063 0.432230 0.513454 0.096429
C10   C     C_3   0.121971 0.568584 0.486507 0.103474
C11   C     C_3   0.042162 0.460262 0.572883 0.312113
C12   C     C_3   0.956643 0.540682 0.427078 0.369183
C13   C     C_3   0.987379 0.562036 0.563009 -0.239485
C14   C     C_3   0.011721 0.438722 0.436750 -0.255545
C15   C     C_3   0.822813 0.533226 0.503556 0.098482
C16   C     C_3   0.176360 0.467502 0.496505 0.082061
C17   C     C_R   0.855497 0.491589 0.937281 0.122129
C18   C     C_R   0.140410 0.509088 0.062447 0.090188
C19   C     C_R   0.881801 0.420360 0.996169 0.404986
C20   C     C_R   0.119549 0.578024 0.002162 0.449797
C21   C     C_R   0.016020 0.431848 0.062835 -0.305601
C22   C     C_R   0.983685 0.567365 0.936401 -0.295962
C23   C     C_R   0.647429 0.994708 0.440271 0.190321
C24   C     C_R   0.356494 0.005593 0.562078 0.198871
C25   C     C_R   0.637261 0.929603 0.503691 0.174862
C26   C     C_R   0.365650 0.071049 0.498197 0.159627
C27   C     C_R   0.490866 0.933903 0.565238 -0.200155
C28   C     C_R   0.511438 0.066469 0.435998 -0.225829
C29   C     C_R   0.644803 0.992226 0.061022 0.178801
C30   C     C_R   0.359117 0.008125 0.937307 0.215982
C31   C     C_R   0.634088 0.928264 0.995531 0.188868
C32   C     C_R   0.368124 0.071151 0.003592 0.218813
C33   C     C_R   0.490520 0.934894 0.932731 -0.240206
C34   C     C_R   0.511239 0.064738 0.066600 -0.275939
S1    S     S_3+6 0.100270 0.407512 0.669873 0.039088
O21   O     O_2   0.260309 0.459845 0.711740 -0.297758
O22   O     O_2   0.927167 0.407764 0.726025 -0.293454
O23   O     O_3   0.172002 0.299755 0.652719 -0.479936
H1    H     H_    0.053215 0.265623 0.638197 0.342189
S2    S     S_3+6 0.894100 0.597051 0.332330 -0.007503
O24   O     O_2   0.072243 0.615552 0.282239 -0.321125
O25   O     O_2   0.758875 0.537714 0.282398 -0.330501
O26   O     O_3   0.786427 0.696382 0.355434 -0.506981
H2    H     H_    0.751772 0.722681 0.300638 0.390127
N1    N     N_3   0.746230 0.356299 0.528253 -0.621151
H3    H     H_    0.703698 0.359627 0.590799 0.287516
H4    H     H_    0.824775 0.296218 0.521309 0.211426
N2    N     N_3   0.251799 0.644970 0.471973 -0.618009
H5    H     H_    0.301470 0.639602 0.410575 0.290992
H6    H     H_    0.170058 0.704467 0.474935 0.245447
N3    N     N_3   0.631503 0.571458 0.505740 -0.566147
H7    H     H_    0.573315 0.559374 0.446537 0.306138
H8    H     H_    0.646074 0.641960 0.511359 0.243686
N4    N     N_3   0.367167 0.428682 0.494864 -0.566875
H9    H     H_    0.425001 0.440512 0.554180 0.311728
H10   H     H_    0.351331 0.358237 0.489460 0.238733
N5    N     N_3   0.697446 0.489746 0.878386 -0.511702
H11   H     H_    0.608497 0.433104 0.883159 0.318363
H12   H     H_    0.604849 0.542222 0.895693 0.262934
N6    N     N_3   0.294453 0.517914 0.121842 -0.502011
H13   H     H_    0.395782 0.467021 0.110293 0.267450
H14   H     H_    0.240825 0.512161 0.182455 0.290042
S3    S     S_3+6 0.760528 0.314046 0.979740 0.008254
O27   O     O_2   0.557873 0.322822 0.011015 -0.376229
O28   O     O_2   0.757540 0.290728 0.887951 -0.283229
O29   O     O_3   0.867631 0.227808 0.028717 -0.521302
H15   H     H_    0.821757 0.172219 0.999174 0.358616
S4    S     S_3+6 0.256898 0.680680 0.014318 0.018368
O30   O     O_2   0.435478 0.673259 0.962191 -0.381737
O31   O     O_2   0.142604 0.761179 0.985988 -0.364297
O32   O     O_3   0.320552 0.699153 0.114571 -0.434998
H16   H     H_    0.405613 0.753508 0.113313 0.370701
N7    N     N_3   0.796202 0.983656 0.379066 -0.587345
H17   H     H_    0.895569 0.036886 0.385016 0.235297
H18   H     H_    0.734098 0.983761 0.319790 0.218493
N8    N     N_3   0.212059 0.013618 0.625780 -0.646137
H19   H     H_    0.076804 0.011953 0.597140 0.247643
H20   H     H_    0.228972 0.076707 0.655827 0.270425
N9    N     N_3   0.776855 0.857868 0.502118 -0.585028
H21   H     H_    0.869529 0.865368 0.553175 0.231155
H22   H     H_    0.705870 0.795149 0.504629 0.236355
N10   N     N_3   0.228346 0.143674 0.500540 -0.670568
H23   H     H_    0.301660 0.205798 0.498500 0.240712
H24   H     H_    0.135636 0.137610 0.449420 0.232616
N11   N     N_3   0.790728 0.979092 0.123058 -0.581225
H25   H     H_    0.725682 0.978221 0.181685 0.213251
H26   H     H_    0.891000 0.032136 0.119948 0.241989
N12   N     N_3   0.216098 0.022258 0.873940 -0.579439
H27   H     H_    0.112219 0.970771 0.877395 0.243889
H28   H     H_    0.281685 0.021278 0.815160 0.232513
N13   N     N_3   0.772282 0.856118 0.995440 -0.546732
H29   H     H_    0.864123 0.864612 0.944483 0.253761
H30   H     H_    0.701395 0.793354 0.991262 0.273069
N14   N     N_3   0.225866 0.141060 0.005407 -0.554767
H31   H     H_    0.292677 0.204700 0.010293 0.295039
H32   H     H_    0.138932 0.129710 0.057403 0.240933

loop_
_geom_bond_atom_site_label_1
_geom_bond_atom_site_label_2
_ccdc_geom_bond_type
V4    O20   S    
S3    O27   D    
C5    C21   S    
C10   C13   S    
O13   V3    S    
O32   H16   S    
O4    C2    A    
V1    O19   S    
N12   H28   S    
N5    H11   S    
C23   C25   A    
O9    V1    S    
C9    C15   S    
C31   N13   S    
C10   C16   S    
O16   C6    A    
C11   C13   S    
N6    H14   S    
C1    C28   S    
O3    C1    A    
N11   H26   S    
C9    C11   S    
N4    H10   S    
N10   H23   S    
C7    C14   S    
O12   V4    S    
N13   H29   S    
N7    H17   S    
C11   S1    S    
N1    H4    S    
O7    C3    A    
N14   H31   S    
S4    O30   D    
N7    H18   S    
O5    C7    A    
O7    V1    S    
C24   C27   A    
O6    C8    A    
O8    V2    S    
C25   C27   A    
C26   C28   A    
C17   C22   A    
O3    V1    S    
O14   V4    S    
C15   N3    S    
C10   C12   S    
C20   S4    S    
C9    N1    S    
C24   C26   A    
S1    O21   D    
C2    O12   A    
C17   C19   A    
C18   C20   A    
O1    V3    S    
N12   H27   S    
N5    H12   S    
C20   C22   A    
O11   V3    S    
C29   C31   A    
O17   V3    S    
C24   N8    S    
C30   C32   A    
S1    O22   D    
O26   H2    S    
S2    O26   S    
C18   N6    S    
N6    H13   S    
N2    H6    S    
O8    C4    A    
N4    H9    S    
C3    C34   S    
N13   H30   S    
O15   V3    S    
S4    O32   S    
C18   C21   A    
S2    O25   D    
N3    H7    S    
O23   H1    S    
C19   C21   A    
C17   N5    S    
O10   V2    S    
S4    O31   D    
C30   N12   S    
N9    H22   S    
N3    H8    S    
C2    C27   S    
O18   V4    S    
C31   C33   A    
C16   N4    S    
O1    C3    A    
C12   C14   S    
C10   N2    S    
N8    H20   S    
V2    O20   S    
C29   N11   S    
C4    C33   S    
S1    O23   S    
O16   V4    S    
C32   N14   S    
C12   C15   S    
N2    H5    S    
C25   N9    S    
C29   C34   A    
C23   C28   A    
O5    V1    S    
O17   C7    A    
O6    V2    S    
O10   C6    A    
O18   C8    A    
C9    C14   S    
C23   N7    S    
O2    V4    S    
C6    C22   S    
S2    O24   D    
O15   C5    A    
C11   C16   S    
C19   S3    S    
C13   C15   S    
N11   H25   S    
C14   C16   S    
O29   H15   S    
N10   H24   S    
C8    C13   S    
C1    O11   A    
O9    C5    A    
N8    H19   S    
O13   V1    S    
C32   C34   A    
O14   V2    S    
N1    H3    S    
O2    C4    A    
N14   H32   S    
O4    V2    S    
V3    O19   S    
S3    O29   S    
N9    H21   S    
C26   N10   S    
S3    O28   D    
C12   S2    S    
C30   C33   A    
