data_mof_unit_47526.cif
_audit_creation_date              2012-12-10T17:18:53-0500
_audit_creation_method            fapswitch 2.2
_symmetry_space_group_name_H-M    P1
_symmetry_Int_Tables_number       1
_space_group_crystal_system       triclinic
_cell_length_a                    9.61839
_cell_length_b                    10.822058
_cell_length_c                    13.429024
_cell_angle_alpha                 94.56171
_cell_angle_beta                  71.926862
_cell_angle_gamma                 91.837839
_cell_volume                      1324.62011302

loop_
_atom_site_label
_atom_site_type_symbol
_atom_type_description
_atom_site_fract_x
_atom_site_fract_y
_atom_site_fract_z
_atom_type_partial_charge
C1    C     C_R   0.497453 0.737552 0.509519 0.881023
C2    C     C_R   0.443249 0.496622 0.978170 0.078976
C3    C     C_R   0.472917 0.533069 0.874505 0.087938
C4    C     C_R   0.548908 0.522478 0.031790 -0.029411
C5    C     C_R   0.667016 0.604546 0.989605 0.117265
C6    C     C_R   0.686478 0.649978 0.892114 -0.209321
C7    C     C_R   0.592310 0.613825 0.835032 -0.202553
C8    C     C_R   0.542556 0.469076 0.125957 0.435705
C9    C     C_R   0.739085 0.604279 0.146954 -0.290460
C10   C     C_R   0.377654 0.493260 0.815250 -0.122892
C11   C     C_R   0.266025 0.887080 0.672959 0.516803
C12   C     C_R   0.421645 0.500955 0.700416 0.818149
C13   C     C_R   0.139861 0.954118 0.728312 -0.341196
C14   C     C_R   0.134581 0.080946 0.720618 0.021778
C15   C     C_R   0.256363 0.140291 0.655422 -0.088516
C16   C     C_R   0.374523 0.071419 0.585353 -0.082732
C17   C     C_R   0.377890 0.941477 0.592021 -0.000771
C18   C     C_R   0.495833 0.872413 0.520658 -0.174183
C19   C     C_R   0.609343 0.931886 0.448918 -0.284936
C20   C     C_R   0.606017 0.058278 0.441342 0.524625
C21   C     C_R   0.490771 0.129083 0.510172 -0.189637
C22   C     C_R   0.920434 0.352094 0.344706 -0.079777
C23   C     C_R   0.496916 0.262806 0.502944 0.801060
C24   C     C_R   0.029964 0.290376 0.264736 -0.247419
C25   C     C_R   0.165685 0.275563 0.277854 -0.213996
C26   C     C_R   0.183655 0.313984 0.374876 0.071903
C27   C     C_R   0.099091 0.415634 0.433230 0.206186
C28   C     C_R   0.953936 0.423372 0.427124 0.188354
C29   C     C_R   0.900303 0.577633 0.566626 -0.028209
C30   C     C_R   0.048803 0.579361 0.565159 -0.027016
C31   C     C_R   0.579196 0.501096 0.300146 0.828004
C32   C     C_R   0.763082 0.642353 0.046421 -0.196861
C33   C     C_R   0.625850 0.520577 0.188103 -0.126795
C34   C     C_R   0.243761 0.436988 0.865397 -0.191070
C35   C     C_R   0.206284 0.415280 0.971082 -0.172473
C36   C     C_R   0.304865 0.443544 0.026835 -0.155155
Cu1   Cu    Cu3+1 0.359340 0.500010 0.500010 0.993116
Cu2   Cu    Cu3+1 0.640660 0.499990 0.499990 0.960123
H1    H     H_    0.805866 0.643056 0.193700 0.175745
H2    H     H_    0.051636 0.908459 0.784981 0.138296
H3    H     H_    0.254514 0.240045 0.658760 0.192624
H4    H     H_    0.824645 0.641960 0.620635 0.121241
H5    H     H_    0.812963 0.339499 0.339547 0.224823
H6    H     H_    0.005227 0.242741 0.198209 0.156936
H7    H     H_    0.237494 0.206700 0.225778 0.162995
H8    H     H_    0.775007 0.714067 0.859672 0.132713
H9    H     H_    0.083069 0.644419 0.618548 0.162341
H10   H     H_    0.852104 0.706445 0.015274 0.147265
H11   H     H_    0.168197 0.409337 0.822541 0.204871
H12   H     H_    0.267641 0.429162 0.109419 0.203082
H13   H     H_    0.100824 0.374713 0.009818 0.151504
H14   H     H_    0.609763 0.656675 0.762404 0.152322
H15   H     H_    0.698130 0.878886 0.393869 0.169098
N1    N     N_R   0.852480 0.498790 0.499000 -0.198510
N2    N     N_R   0.148360 0.498710 0.498970 -0.201622
O1    O     O_R   0.381190 0.680360 0.500010 -0.562267
O2    O     O_R   0.618760 0.680340 0.500000 -0.597092
O3    O     O_R   0.323240 0.499990 0.650990 -0.550121
O4    O     O_R   0.560820 0.499960 0.650980 -0.582125
O5    O     O_R   0.381240 0.319660 0.500000 -0.609241
O6    O     O_R   0.618810 0.319640 0.499990 -0.543047
O7    O     O_R   0.439180 0.500040 0.349020 -0.556399
O8    O     O_R   0.676760 0.500010 0.349010 -0.623920
O9    O     O_3   0.286561 0.775732 0.709339 -0.590750
C37   C     C_3   0.331225 0.802583 0.799857 -0.372845
H16   H     H_    0.304939 0.722672 0.848525 0.198716
H17   H     H_    0.273012 0.881850 0.852933 0.156859
H18   H     H_    0.450688 0.821463 0.776388 0.163819
C38   C     C_2   0.002755 0.150493 0.784088 0.389080
H19   H     H_    0.916771 0.104566 0.842456 0.037614
O10   O     O_2   0.986771 0.258697 0.770590 -0.540296
O11   O     O_3   0.716686 0.112262 0.364803 -0.566647
C39   C     C_3   0.675455 0.108401 0.272561 -0.407746
H20   H     H_    0.574538 0.163024 0.285216 0.163944
H21   H     H_    0.764167 0.150662 0.210420 0.180491
H22   H     H_    0.660108 0.011346 0.243303 0.168888
C40   C     C_2   0.187283 0.202932 0.431132 0.427416
H23   H     H_    0.267538 0.131099 0.395271 0.032441
O12   O     O_2   0.094941 0.187193 0.515180 -0.517943
O13   O     O_3   0.464261 0.361581 0.155539 -0.606874
C41   C     C_3   0.542173 0.260637 0.091643 -0.391580
H24   H     H_    0.489272 0.173104 0.122500 0.172107
H25   H     H_    0.657514 0.259172 0.092574 0.159771
H26   H     H_    0.539524 0.261756 0.009546 0.196389

loop_
_geom_bond_atom_site_label_1
_geom_bond_atom_site_label_2
_ccdc_geom_bond_type
C16   C21   A    
C29   H4    S    
C39   H21   S    
C39   H20   S    
C35   C36   A    
C4    C8    A    
C41   H24   S    
C40   H23   S    
C26   C27   A    
C29   C30   A    
C1    O1    A    
C7    H14   S    
C18   C19   A    
C3    C7    A    
C5    C6    A    
C27   N2    A    
C29   N1    A    
C15   C16   A    
C9    H1    S    
C34   C35   A    
C38   O10   D    
C13   H2    S    
C9    C32   A    
Cu1   O1    S    
C19   C20   A    
C16   C17   A    
C37   H17   S    
C31   C33   S    
Cu1   O3    S    
O11   C39   S    
Cu2   O6    S    
C12   O3    A    
C19   H15   S    
C22   C28   A    
C13   C14   A    
C9    C33   A    
C32   H10   S    
C31   O7    A    
C41   H25   S    
Cu1   O7    S    
C40   O12   D    
C23   O5    A    
C26   C40   S    
C31   O8    A    
C30   H9    S    
C24   C25   A    
C15   H3    S    
C11   O9    S    
C28   N1    A    
O13   C41   S    
C25   C26   A    
C2    C4    A    
Cu1   Cu2   S    
C1    O2    A    
Cu2   O2    S    
C22   H5    S    
Cu2   N1    S    
C37   H18   S    
C17   C18   A    
C1    C18   S    
C10   C34   A    
C10   C12   S    
C21   C23   S    
C35   H13   S    
C24   H6    S    
C39   H22   S    
C22   C24   A    
C25   H7    S    
C41   H26   S    
C36   H12   S    
Cu2   O8    S    
C2    C36   A    
C11   C17   A    
C34   H11   S    
C6    H8    S    
C4    C5    A    
C6    C7    A    
C30   N2    A    
O9    C37   S    
C5    C32   A    
C2    C3    A    
C3    C10   A    
C11   C13   A    
C14   C38   S    
C8    C33   A    
C12   O4    A    
C38   H19   S    
Cu1   O5    S    
Cu2   O4    S    
Cu1   N2    S    
C23   O6    A    
C20   C21   A    
C37   H16   S    
C27   C28   A    
C8    O13   S    
C14   C15   A    
C20   O11   S    
