data_mof_unit_33300.cif
_audit_creation_date              2012-12-11T15:41:25-0500
_audit_creation_method            fapswitch 2.2
_symmetry_space_group_name_H-M    P1
_symmetry_Int_Tables_number       1
_space_group_crystal_system       triclinic
_cell_length_a                    14.865987
_cell_length_b                    15.104571
_cell_length_c                    14.893775
_cell_angle_alpha                 108.968923
_cell_angle_beta                  109.404899
_cell_angle_gamma                 109.69259
_cell_volume                      2585.34899785

loop_
_atom_site_label
_atom_site_type_symbol
_atom_type_description
_atom_site_fract_x
_atom_site_fract_y
_atom_site_fract_z
_atom_type_partial_charge
C1    C     C_R   0.195586 0.995583 0.904207 -0.146326
C2    C     C_R   0.685221 0.871681 0.415841 -0.112195
C3    C     C_R   0.370645 0.282186 0.779040 -0.120073
C4    C     C_R   0.610125 0.776331 0.315876 -0.133808
C5    C     C_R   0.331423 0.318811 0.848692 0.115074
C6    C     C_R   0.645612 0.709402 0.266127 0.117086
C7    C     C_R   0.217664 0.268257 0.810568 -0.187727
C8    C     C_R   0.757364 0.739259 0.319003 -0.173575
C9    C     C_R   0.144376 0.180206 0.704966 -0.115535
C10   C     C_R   0.832080 0.834428 0.419274 -0.106709
C11   C     C_R   0.183961 0.143749 0.636147 -0.104602
C12   C     C_R   0.748231 0.934704 0.025498 -0.125926
C13   C     C_R   0.796074 0.900628 0.467567 -0.096429
C14   C     C_R   0.409569 0.507799 0.973672 -0.239133
C15   C     C_R   0.564161 0.512089 0.146166 -0.251791
C16   C     C_R   0.796176 0.214568 0.306868 -0.171739
C17   C     C_R   0.252227 0.779759 0.686402 -0.141313
C18   C     C_R   0.489786 0.604887 0.069780 0.061629
C19   C     C_R   0.487964 0.416339 0.046656 0.071739
C20   C     C_R   0.565985 0.608367 0.159472 0.022455
C21   C     C_R   0.408655 0.413696 0.959745 0.014263
C22   C     C_R   0.936748 0.489106 0.468803 0.227657
C23   C     C_R   0.849648 0.311424 0.312591 0.068076
C24   C     C_R   0.142655 0.498498 0.519280 0.225888
C25   C     C_R   0.032365 0.579701 0.555992 -0.277460
C26   C     C_R   0.046344 0.407139 0.430510 -0.289299
C27   C     C_R   0.133581 0.584559 0.580291 0.041744
C28   C     C_R   0.945528 0.403770 0.405795 0.028958
C29   C     C_R   0.595184 0.156452 0.619232 -0.178104
C30   C     C_R   0.395922 0.047127 0.424843 -0.164697
C31   C     C_R   0.594748 0.155459 0.525815 -0.180998
C32   C     C_R   0.396354 0.046309 0.517215 -0.201594
C33   C     C_R   0.495810 0.090585 0.425853 0.149185
C34   C     C_R   0.225231 0.678921 0.676409 0.079639
C35   C     C_R   0.496619 0.093068 0.612333 0.144070
C36   C     C_R   0.961605 0.841521 0.938571 -0.176108
C37   C     C_R   0.871620 0.943464 0.841934 -0.166265
C38   C     C_R   0.869847 0.843668 0.940361 -0.169703
C39   C     C_R   0.963214 0.941127 0.839840 -0.171439
C40   C     C_R   0.406520 0.972717 0.221212 -0.129123
C41   C     C_R   0.590696 0.093460 0.789650 -0.144870
C42   C     C_R   0.832784 0.905683 0.903361 0.144100
C43   C     C_R   0.015313 0.900149 0.898410 0.140798
C44   C     C_R   0.589795 0.313968 0.053807 -0.138935
C45   C     C_R   0.497686 0.048602 0.323923 0.033911
C46   C     C_R   0.407353 0.702849 0.004630 -0.155892
C47   C     C_R   0.590663 0.063574 0.314088 -0.128589
C48   C     C_R   0.407855 0.001866 0.699103 -0.133561
C49   C     C_R   0.405287 0.218767 0.968884 -0.109060
C50   C     C_R   0.590418 0.790049 0.093406 -0.131388
C51   C     C_R   0.794559 0.306725 0.215482 -0.121274
C52   C     C_R   0.251592 0.687591 0.778074 -0.142785
C53   C     C_R   0.195001 0.904586 0.995133 -0.140340
C54   C     C_R   0.748405 0.026303 0.933585 -0.126268
C55   C     C_R   0.131006 0.933485 0.932738 0.047935
C56   C     C_R   0.498675 0.062432 0.695884 0.047031
C57   C     C_R   0.773900 0.949572 0.947987 0.039530
C58   C     C_3   0.828185 0.485209 0.449030 -0.367858
C59   C     C_3   0.812736 0.560597 0.405539 -0.909675
C60   C     C_3   0.252045 0.502490 0.547431 -0.378290
C61   C     C_3   0.318447 0.574504 0.514857 -0.870635
C62   C     C_R   0.495021 0.321030 0.032116 0.049229
C63   C     C_R   0.497405 0.699128 0.062916 0.058454
C64   C     C_R   0.296848 0.195321 0.672963 -0.126775
H1    H     H_    0.168411 0.018978 0.843508 0.093441
H2    H     H_    0.918015 0.857027 0.459406 0.100889
H3    H     H_    0.352698 0.505992 0.903830 0.131734
H4    H     H_    0.622093 0.511234 0.212530 0.136849
H5    H     H_    0.028017 0.646350 0.607429 0.150649
H6    H     H_    0.049363 0.339080 0.379910 0.141298
H7    H     H_    0.673631 0.198557 0.693099 0.105622
H8    H     H_    0.317398 0.002637 0.350668 0.106692
H9    H     H_    0.672878 0.196426 0.530624 0.106584
H10   H     H_    0.318057 0.000525 0.509701 0.106037
H11   H     H_    0.995559 0.803039 0.978392 0.105738
H12   H     H_    0.758371 0.882255 0.057746 0.092181
H13   H     H_    0.839783 0.985138 0.805438 0.105869
H14   H     H_    0.826092 0.189159 0.364966 0.102654
H15   H     H_    0.233759 0.799182 0.621161 0.104501
H16   H     H_    0.836486 0.806518 0.981270 0.107845
H17   H     H_    0.998305 0.981111 0.801693 0.105588
H18   H     H_    0.320780 0.940322 0.198064 0.093515
H19   H     H_    0.674612 0.153115 0.821222 0.084369
H20   H     H_    0.673544 0.379498 0.097317 0.096017
H21   H     H_    0.322500 0.650723 0.978924 0.093970
H22   H     H_    0.675293 0.113745 0.378206 0.091017
H23   H     H_    0.327156 0.168789 0.619027 0.121187
H24   H     H_    0.323321 0.978076 0.648609 0.087305
H25   H     H_    0.319594 0.195478 0.938221 0.111834
H26   H     H_    0.674822 0.816510 0.148063 0.104064
H27   H     H_    0.822437 0.365384 0.190334 0.094120
H28   H     H_    0.233014 0.622650 0.797066 0.096925
H29   H     H_    0.166974 0.844396 0.018428 0.083493
H30   H     H_    0.758594 0.058374 0.880495 0.092909
H31   H     H_    0.127145 0.076148 0.554065 0.097727
H32   H     H_    0.854039 0.974299 0.545090 0.090820
H33   H     H_    0.881201 0.645063 0.463320 0.259024
H34   H     H_    0.657375 0.923003 0.453315 0.115282
H35   H     H_    0.809111 0.534184 0.324957 0.247963
H36   H     H_    0.734712 0.558778 0.395834 0.256939
H37   H     H_    0.756545 0.402572 0.390818 0.199657
H38   H     H_    0.826713 0.509903 0.527233 0.186830
H39   H     H_    0.271284 0.544358 0.425738 0.255384
H40   H     H_    0.338406 0.659189 0.560624 0.258963
H41   H     H_    0.396749 0.573400 0.533789 0.251703
H42   H     H_    0.299943 0.532472 0.636449 0.190634
H43   H     H_    0.239280 0.420146 0.504214 0.189957
H44   H     H_    0.457937 0.321470 0.806603 0.111904
H45   H     H_    0.524329 0.754629 0.277421 0.113452
H46   H     H_    0.186162 0.296473 0.863048 0.113902
H47   H     H_    0.786903 0.689580 0.282079 0.114575
H48   H     H_    0.056922 0.140727 0.676275 0.099074
N1    N     N_R   0.293810 0.002730 0.945950 -0.038300
N2    N     N_R   0.443210 0.997250 0.791090 -0.036730
N3    N     N_R   0.443180 0.152110 0.945950 -0.041716
N4    N     N_R   0.556820 0.847890 0.054050 -0.039591
N5    N     N_R   0.706170 0.208950 0.152090 -0.040869
N6    N     N_R   0.293830 0.791050 0.847910 -0.039875
N7    N     N_R   0.293800 0.945910 0.002760 -0.037341
N8    N     N_R   0.706200 0.054090 0.997240 -0.040867
N9    N     N_R   0.706190 0.997270 0.054050 -0.040250
N10   N     N_R   0.706160 0.152130 0.208910 -0.037098
N11   N     N_R   0.293840 0.847870 0.791090 -0.041793
N12   N     N_R   0.443140 0.945920 0.152090 -0.039996
N13   N     N_R   0.556860 0.054080 0.847910 -0.037251
N14   N     N_R   0.556830 0.208940 0.002760 -0.040739
N15   N     N_R   0.443170 0.791060 0.997240 -0.035686
N16   N     N_R   0.556790 0.002750 0.208910 -0.037313
Ni1   Ni    Ni4+2 0.369690 0.999990 0.869700 0.213838
Ni2   Ni    Ni4+2 0.630310 0.000010 0.130300 0.216004
Ni3   Ni    Ni4+2 0.369670 0.869670 0.000000 0.207339
Ni4   Ni    Ni4+2 0.630330 0.130330 0.000000 0.208962

loop_
_geom_bond_atom_site_label_1
_geom_bond_atom_site_label_2
_ccdc_geom_bond_type
C4    H45   S    
C50   C63   A    
C54   N8    A    
C33   C45   S    
C14   C18   A    
C53   C55   A    
C24   C27   A    
N9    Ni2   S    
C47   N16   A    
C3    C64   A    
C15   C19   A    
C44   N14   A    
N3    N14   A    
N1    Ni1   S    
C6    C8    A    
C14   C21   A    
C19   C21   A    
C24   C26   A    
C38   C42   A    
C32   H10   S    
C18   C63   S    
C31   H9    S    
C19   C62   S    
C41   H19   S    
C17   H15   S    
C59   H35   S    
C18   C20   A    
C48   C56   A    
C37   C42   A    
C2    C13   A    
N5    Ni4   S    
C16   N10   A    
N6    Ni3   S    
C51   H27   S    
N1    N7    A    
C23   C51   A    
C17   N11   A    
C12   N9    A    
N4    N15   A    
C1    H1    S    
C14   H3    S    
C31   C33   A    
C58   H38   S    
C61   H41   S    
C64   H23   S    
C50   N4    A    
N12   N16   A    
C46   H21   S    
C9    H48   S    
C45   C47   A    
C22   C28   A    
N11   Ni1   S    
C59   H36   S    
C40   C45   A    
C1    N1    A    
C42   C57   S    
C50   H26   S    
C10   H2    S    
C27   C34   S    
C15   C20   A    
C40   N12   A    
C13   H32   S    
C53   H29   S    
C47   H22   S    
C40   H18   S    
C46   N15   A    
C61   H40   S    
C39   H17   S    
C4    C6    A    
C11   C64   A    
C8    H47   S    
C5    C7    A    
N2    N13   A    
C39   C43   A    
C44   H20   S    
C58   C59   S    
C37   H13   S    
C22   C25   A    
N12   Ni3   S    
C60   C61   S    
C2    C4    A    
N5    N10   A    
C32   C35   A    
C41   C56   A    
C36   H11   S    
C41   N13   A    
N7    Ni3   S    
N14   Ni4   S    
C24   C60   S    
C48   H24   S    
N4    Ni2   S    
C58   H37   S    
C23   C28   S    
C9    C11   A    
C60   H43   S    
C12   C57   A    
C43   C55   S    
C49   N3    A    
C16   C23   A    
C12   H12   S    
C59   H33   S    
N2    Ni1   S    
C52   H28   S    
C25   H5    S    
C17   C34   A    
C60   H42   S    
N8    N9    A    
C48   N2    A    
N3    Ni1   S    
C11   H31   S    
C7    C9    A    
C49   C62   A    
C30   C33   A    
C61   H39   S    
C35   C56   S    
N8    Ni4   S    
C34   C52   A    
C8    C10   A    
C49   H25   S    
C3    C5    A    
C10   C13   A    
N16   Ni2   S    
C22   C58   S    
C30   H8    S    
C53   N7    A    
C3    H44   S    
C25   C27   A    
C6    C20   S    
C29   C35   A    
C26   C28   A    
C7    H46   S    
C46   C63   A    
C44   C62   A    
C36   C38   A    
C1    C55   A    
C29   C31   A    
C30   C32   A    
N13   Ni4   S    
C38   H16   S    
C26   H6    S    
C15   H4    S    
C51   N5    A    
C16   H14   S    
N6    N11   A    
N15   Ni3   S    
C54   H30   S    
C5    C21   S    
C2    H34   S    
C37   C39   A    
C36   C43   A    
N10   Ni2   S    
C29   H7    S    
C54   C57   A    
C52   N6    A    
