data_mof_unit_32918.cif
_audit_creation_date              2012-12-11T14:14:36-0500
_audit_creation_method            fapswitch 2.2
_symmetry_space_group_name_H-M    P1
_symmetry_Int_Tables_number       1
_space_group_crystal_system       triclinic
_cell_length_a                    24.626607
_cell_length_b                    17.464764
_cell_length_c                    15.478365
_cell_angle_alpha                 90.46787
_cell_angle_beta                  128.542673
_cell_angle_gamma                 90.138891
_cell_volume                      5206.48661685

loop_
_atom_site_label
_atom_site_type_symbol
_atom_type_description
_atom_site_fract_x
_atom_site_fract_y
_atom_site_fract_z
_atom_type_partial_charge
C1    C     C_R   0.351022 0.360301 0.247466 -0.103161
C2    C     C_R   0.659241 0.375844 0.778400 -0.106337
C3    C     C_R   0.851022 0.860301 0.247466 -0.103161
C4    C     C_R   0.159241 0.875844 0.778400 -0.106337
C5    C     C_R   0.402729 0.636626 0.591113 0.521667
C6    C     C_R   0.599491 0.632718 0.408988 0.458854
C7    C     C_R   0.902729 0.136626 0.591113 0.521666
C8    C     C_R   0.099492 0.132718 0.408988 0.458854
C9    C     C_R   0.348722 0.674912 0.497897 -0.044966
C10   C     C_R   0.652313 0.673367 0.502439 -0.033799
C11   C     C_R   0.848722 0.174912 0.497897 -0.044966
C12   C     C_R   0.152312 0.173367 0.502439 -0.033799
C13   C     C_R   0.371386 0.667418 0.185074 0.102513
C14   C     C_R   0.648744 0.624048 0.865580 0.075743
C15   C     C_R   0.871386 0.167418 0.185074 0.102513
C16   C     C_R   0.148744 0.124048 0.865580 0.075744
C17   C     C_2   0.658689 0.794542 0.434122 -0.047408
C18   C     C_2   0.342414 0.799849 0.563549 -0.042430
C19   C     C_2   0.158689 0.294542 0.434122 -0.047411
C20   C     C_2   0.842414 0.299849 0.563549 -0.042430
C21   C     C_2   0.691119 0.736567 0.505358 -0.103165
C22   C     C_2   0.310608 0.740073 0.492859 -0.103316
C23   C     C_2   0.191119 0.236567 0.505358 -0.103164
C24   C     C_2   0.810608 0.240072 0.492859 -0.103317
C25   C     C_2   0.198773 0.346891 0.419693 -0.142801
C26   C     C_2   0.801556 0.351157 0.577967 -0.133990
C27   C     C_2   0.698773 0.846891 0.419693 -0.142799
C28   C     C_2   0.301556 0.851157 0.577967 -0.133990
C29   C     C_2   0.262775 0.365881 0.507993 -0.081466
C30   C     C_2   0.736917 0.367131 0.490280 -0.081766
C31   C     C_2   0.762775 0.865881 0.507993 -0.081470
C32   C     C_2   0.236917 0.867131 0.490280 -0.081766
C33   C     C_2   0.676425 0.301938 0.931679 -0.160719
C34   C     C_2   0.360635 0.240227 0.163261 -0.181812
C35   C     C_2   0.176425 0.801938 0.931679 -0.160719
C36   C     C_2   0.860635 0.740227 0.163261 -0.181813
C37   C     C_2   0.744604 0.315648 0.001700 -0.102055
C38   C     C_2   0.302994 0.206512 0.136063 -0.092867
C39   C     C_2   0.244604 0.815648 0.001701 -0.102055
C40   C     C_2   0.802994 0.706512 0.136063 -0.092867
C41   C     C_2   0.340707 0.732529 0.112256 -0.175465
C42   C     C_2   0.694196 0.650576 0.980921 -0.167145
C43   C     C_2   0.840707 0.232529 0.112256 -0.175464
C44   C     C_2   0.194196 0.150576 0.980921 -0.167146
C45   C     C_R   0.614084 0.398381 0.406915 0.464983
C46   C     C_R   0.385759 0.399049 0.592663 0.475230
C47   C     C_R   0.114084 0.898381 0.406915 0.464982
C48   C     C_R   0.885759 0.899049 0.592663 0.475229
C49   C     C_2   0.287391 0.767838 0.096543 -0.120366
C50   C     C_2   0.763040 0.655642 0.039330 -0.103351
C51   C     C_2   0.787391 0.267837 0.096543 -0.120366
C52   C     C_2   0.263040 0.155642 0.039330 -0.103351
C53   C     C_R   0.687441 0.399615 0.589907 -0.188716
C54   C     C_R   0.312413 0.399110 0.409766 -0.211061
C55   C     C_R   0.187441 0.899615 0.589907 -0.188716
C56   C     C_R   0.812413 0.899110 0.409766 -0.211060
C57   C     C_R   0.568217 0.367972 0.776378 -0.062668
C58   C     C_R   0.443818 0.353280 0.255243 -0.031185
C59   C     C_R   0.068217 0.867972 0.776378 -0.062668
C60   C     C_R   0.943818 0.853280 0.255243 -0.031185
C61   C     C_R   0.385009 0.313750 0.222880 0.077089
C62   C     C_R   0.634284 0.340999 0.826886 0.083248
C63   C     C_R   0.885009 0.813750 0.222880 0.077088
C64   C     C_R   0.134284 0.841000 0.826886 0.083248
C65   C     C_R   0.681845 0.384727 0.497026 -0.010757
C66   C     C_R   0.318045 0.384137 0.502197 -0.013067
C67   C     C_R   0.181845 0.884727 0.497026 -0.010757
C68   C     C_R   0.818045 0.884137 0.502197 -0.013066
C69   C     C_R   0.329475 0.633490 0.407569 -0.214054
C70   C     C_R   0.669435 0.635579 0.593718 -0.191811
C71   C     C_R   0.829475 0.133490 0.407569 -0.214053
C72   C     C_R   0.169435 0.135579 0.593718 -0.191810
C73   C     C_R   0.433983 0.634197 0.226795 -0.096422
C74   C     C_R   0.579610 0.604510 0.805929 0.014509
C75   C     C_R   0.933983 0.134197 0.226795 -0.096422
C76   C     C_R   0.079610 0.104509 0.805929 0.014507
C77   C     C_R   0.667496 0.605502 0.800850 -0.121803
C78   C     C_R   0.341870 0.626812 0.222450 -0.102583
C79   C     C_R   0.167496 0.105502 0.800850 -0.121803
C80   C     C_R   0.841870 0.126812 0.222450 -0.102583
H1    H     H_    0.303158 0.348491 0.233738 0.103776
H2    H     H_    0.710394 0.372051 0.800806 0.101477
H3    H     H_    0.803158 0.848491 0.233738 0.103776
H4    H     H_    0.210394 0.872051 0.800806 0.101477
H5    H     H_    0.747299 0.732059 0.562486 0.150841
H6    H     H_    0.254433 0.734979 0.434194 0.150560
H7    H     H_    0.247299 0.232059 0.562486 0.150841
H8    H     H_    0.754433 0.234979 0.434194 0.150560
H9    H     H_    0.179816 0.358729 0.336431 0.153077
H10   H     H_    0.820770 0.364540 0.661320 0.155656
H11   H     H_    0.679816 0.858729 0.336431 0.153078
H12   H     H_    0.320770 0.864539 0.661320 0.155656
H13   H     H_    0.277600 0.355779 0.589183 0.193277
H14   H     H_    0.721862 0.356394 0.408859 0.192946
H15   H     H_    0.777600 0.855779 0.589183 0.193275
H16   H     H_    0.221862 0.856394 0.408859 0.192945
H17   H     H_    0.268434 0.752300 0.141372 0.139669
H18   H     H_    0.788106 0.632997 0.006749 0.129794
H19   H     H_    0.768433 0.252299 0.141371 0.139669
H20   H     H_    0.288106 0.132997 0.006749 0.129794
H21   H     H_    0.770050 0.354993 0.982851 0.132097
H22   H     H_    0.278701 0.226687 0.171116 0.137637
H23   H     H_    0.270050 0.854993 0.982851 0.132097
H24   H     H_    0.778701 0.726687 0.171116 0.137638
H25   H     H_    0.358612 0.748297 0.065857 0.155506
H26   H     H_    0.669764 0.673796 0.014452 0.150043
H27   H     H_    0.858612 0.248297 0.065857 0.155507
H28   H     H_    0.169764 0.173797 0.014451 0.150042
H29   H     H_    0.651801 0.262572 0.952197 0.147521
H30   H     H_    0.384508 0.219715 0.127542 0.152003
H31   H     H_    0.151801 0.762572 0.952197 0.147521
H32   H     H_    0.884508 0.719715 0.127542 0.152003
H33   H     H_    0.735024 0.405233 0.673699 0.127696
H34   H     H_    0.264695 0.404894 0.326448 0.129553
H35   H     H_    0.235024 0.905233 0.673699 0.127695
H36   H     H_    0.764695 0.904894 0.326448 0.129553
H37   H     H_    0.535996 0.349423 0.796681 0.192221
H38   H     H_    0.483733 0.328426 0.255737 0.164395
H39   H     H_    0.035997 0.849423 0.796682 0.192221
H40   H     H_    0.983733 0.828426 0.255737 0.164395
H41   H     H_    0.283758 0.642483 0.323846 0.137205
H42   H     H_    0.711930 0.648588 0.679210 0.140959
H43   H     H_    0.783758 0.142483 0.323846 0.137205
H44   H     H_    0.211930 0.148588 0.679210 0.140959
H45   H     H_    0.465686 0.651116 0.205331 0.197574
H46   H     H_    0.556197 0.595628 0.844440 0.198480
H47   H     H_    0.965686 0.151116 0.205331 0.197575
H48   H     H_    0.056197 0.095628 0.844440 0.198479
H49   H     H_    0.719561 0.602146 0.826952 0.095916
H50   H     H_    0.289204 0.630145 0.193162 0.093480
H51   H     H_    0.219561 0.102146 0.826952 0.095916
H52   H     H_    0.789204 0.130145 0.193162 0.093479
H53   H     H_    0.602442 0.797332 0.377262 0.170354
H54   H     H_    0.398562 0.803113 0.622999 0.184025
H55   H     H_    0.102443 0.297332 0.377262 0.170355
H56   H     H_    0.898562 0.303113 0.622999 0.184025
N1    N     N_R   0.389060 0.424180 0.294540 -0.053465
N2    N     N_R   0.610940 0.424180 0.705460 -0.053704
N3    N     N_R   0.889060 0.924180 0.294540 -0.053465
N4    N     N_R   0.110940 0.924180 0.705460 -0.053704
N5    N     N_R   0.579670 0.423790 0.443360 -0.117859
N6    N     N_R   0.420330 0.423790 0.556640 -0.111945
N7    N     N_R   0.079670 0.923790 0.443360 -0.117859
N8    N     N_R   0.920330 0.923790 0.556640 -0.111945
N9    N     N_R   0.625470 0.423490 0.556600 -0.074985
N10   N     N_R   0.374530 0.423490 0.443400 -0.073863
N11   N     N_R   0.125470 0.923490 0.556600 -0.074985
N12   N     N_R   0.874530 0.923490 0.443400 -0.073863
N13   N     N_R   0.555250 0.423100 0.705420 -0.050287
N14   N     N_R   0.444750 0.423100 0.294580 -0.039440
N15   N     N_R   0.055250 0.923100 0.705420 -0.050287
N16   N     N_R   0.944750 0.923100 0.294580 -0.039440
N17   N     N_R   0.375210 0.577180 0.443400 -0.071656
N18   N     N_R   0.624790 0.577180 0.556600 -0.071328
N19   N     N_R   0.875210 0.077180 0.443400 -0.071656
N20   N     N_R   0.124790 0.077180 0.556600 -0.071328
N21   N     N_R   0.445430 0.577570 0.294580 -0.050832
N22   N     N_R   0.554570 0.577570 0.705420 -0.067535
N23   N     N_R   0.945430 0.077570 0.294580 -0.050832
N24   N     N_R   0.054570 0.077570 0.705420 -0.067535
N25   N     N_R   0.611620 0.576500 0.705460 -0.055843
N26   N     N_R   0.388380 0.576500 0.294540 -0.051160
N27   N     N_R   0.111620 0.076500 0.705460 -0.055843
N28   N     N_R   0.888380 0.076500 0.294540 -0.051160
N29   N     N_R   0.421010 0.576890 0.556640 -0.111615
N30   N     N_R   0.578990 0.576890 0.443360 -0.106899
N31   N     N_R   0.921010 0.076890 0.556640 -0.111615
N32   N     N_R   0.078990 0.076890 0.443360 -0.106899
Ni1   Ni    Ni4+2 0.383200 0.500680 0.370150 0.203111
Ni2   Ni    Ni4+2 0.616800 0.500680 0.629850 0.192111
Ni3   Ni    Ni4+2 0.883200 0.000680 0.370150 0.203111
Ni4   Ni    Ni4+2 0.116800 0.000680 0.629850 0.192111
Ni5   Ni    Ni4+2 0.512440 0.500680 0.370150 0.339568
Ni6   Ni    Ni4+2 0.487560 0.500680 0.629850 0.317856
Ni7   Ni    Ni4+2 0.012440 0.000680 0.370150 0.339568
Ni8   Ni    Ni4+2 0.987560 0.000680 0.629850 0.317856
S1    S     S_3+6 0.584628 0.398336 0.268707 -0.033536
O1    O     O_2   0.585991 0.317225 0.236892 -0.339135
O2    O     O_2   0.512343 0.428480 0.187743 -0.252063
O3    O     O_3   0.639119 0.451205 0.262196 -0.471999
H57   H     H_    0.623002 0.443424 0.185984 0.394292
S2    S     S_3+6 0.412518 0.410229 0.728155 -0.045927
O4    O     O_2   0.416977 0.332194 0.772332 -0.328045
O5    O     O_2   0.481551 0.449922 0.804491 -0.284466
O6    O     O_3   0.352957 0.461492 0.723417 -0.493472
H58   H     H_    0.366658 0.457932 0.798510 0.400631
S3    S     S_3+6 0.084628 0.898336 0.268707 -0.033536
O7    O     O_2   0.085991 0.817225 0.236892 -0.339136
O8    O     O_2   0.012343 0.928480 0.187743 -0.252062
O9    O     O_3   0.139119 0.951205 0.262196 -0.471998
H59   H     H_    0.123002 0.943424 0.185984 0.394291
S4    S     S_3+6 0.912518 0.910229 0.728155 -0.045926
O10   O     O_2   0.916977 0.832194 0.772332 -0.328049
O11   O     O_2   0.981551 0.949922 0.804491 -0.284462
O12   O     O_3   0.852957 0.961493 0.723417 -0.493470
H60   H     H_    0.866655 0.957927 0.798507 0.400627
S5    S     S_3+6 0.423649 0.653941 0.722631 -0.053024
O13   O     O_2   0.360887 0.683689 0.707098 -0.277774
O14   O     O_2   0.445683 0.583797 0.790623 -0.215347
O15   O     O_3   0.487006 0.720716 0.791815 -0.609908
H61   H     H_    0.494340 0.729414 0.861757 0.373316
S6    S     S_3+6 0.594159 0.628642 0.289048 -0.040505
O16   O     O_2   0.665015 0.611191 0.323995 -0.248099
O17   O     O_2   0.543895 0.568396 0.209366 -0.219950
O18   O     O_3   0.568273 0.712842 0.223235 -0.603822
H62   H     H_    0.573842 0.707678 0.165361 0.379545
S7    S     S_3+6 0.923649 0.153941 0.722631 -0.053022
O19   O     O_2   0.860887 0.183689 0.707098 -0.277772
O20   O     O_2   0.945683 0.083797 0.790623 -0.215343
O21   O     O_3   0.987006 0.220716 0.791815 -0.609908
H63   H     H_    0.994341 0.229412 0.861758 0.373316
S8    S     S_3+6 0.094159 0.128642 0.289048 -0.040504
O22   O     O_2   0.165014 0.111191 0.323995 -0.248102
O23   O     O_2   0.043895 0.068396 0.209366 -0.219945
O24   O     O_3   0.068273 0.212843 0.223234 -0.603822
H64   H     H_    0.073846 0.207681 0.165365 0.379545

loop_
_geom_bond_atom_site_label_1
_geom_bond_atom_site_label_2
_ccdc_geom_bond_type
C43   H27   S    
N32   Ni7   S    
C15   C75   A    
C6    N30   A    
O9    H59   S    
C72   N20   A    
C73   N21   A    
N2    Ni2   S    
N6    N10   A    
C19   C23   D    
N7    Ni7   S    
N8    N12   A    
C13   C41   S    
C17   H53   S    
C1    N1    A    
C57   C62   A    
N6    Ni6   S    
O18   H62   S    
N11   Ni4   S    
N7    N11   A    
N21   Ni5   S    
C12   C23   S    
C48   N8    A    
C59   C64   A    
C41   H25   S    
C60   C63   A    
C80   H52   S    
C14   C74   A    
C71   H43   S    
C9    C69   A    
C6    S6    S    
O21   H63   S    
C37   C51   S    
C11   C71   A    
C9    C22   S    
C40   H24   S    
N20   N32   A    
C19   H55   S    
C20   H56   S    
C47   N7    A    
C11   C24   S    
C58   H38   S    
N12   Ni3   S    
N18   Ni2   S    
N13   Ni6   S    
C60   N16   A    
C14   C77   A    
C41   C49   D    
S5    O14   D    
S2    O4    D    
C80   N28   A    
S3    O9    S    
C8    N32   A    
N22   N25   A    
C13   C78   A    
N16   Ni7   S    
N22   Ni6   S    
C20   C24   D    
N19   N31   A    
O15   H61   S    
S1    O2    D    
S6    O18   S    
C57   N13   A    
C36   H32   S    
S7    O21   S    
N3    Ni3   S    
C35   C64   S    
C5    N29   A    
C36   C63   S    
C53   C65   A    
C16   C44   S    
N1    Ni1   S    
N5    N9    A    
C14   C42   S    
C44   C52   D    
C58   C61   A    
C12   C72   A    
C79   H51   S    
N4    Ni4   S    
C23   H7    S    
C72   H44   S    
C25   C29   D    
C2    C62   A    
N24   Ni8   S    
C47   C67   A    
C29   H13   S    
C53   H33   S    
C7    C11   A    
C44   H28   S    
N2    N13   A    
C77   N25   A    
C31   C68   S    
C21   H5    S    
C50   H18   S    
S3    O8    D    
S6    O16   D    
C74   N22   A    
C27   C31   D    
S7    O19   D    
C17   C27   S    
N24   N27   A    
C28   C32   D    
C18   C28   S    
C7    S7    S    
C79   N27   A    
C34   C38   D    
C5    S5    S    
N29   Ni6   S    
C56   C68   A    
C33   C62   S    
C52   H20   S    
C34   C61   S    
C33   C37   D    
O12   H60   S    
S2    O6    S    
C2    N2    A    
C56   N12   A    
S5    O15   S    
C35   C39   D    
O24   H64   S    
S4    O12   S    
C5    C9    A    
C59   N15   A    
C4    N4    A    
C51   H19   S    
C24   H8    S    
C70   H42   S    
C55   N11   A    
C15   C80   A    
C4    H4    S    
S8    O24   S    
C69   H41   S    
C8    C12   A    
S1    O3    S    
C71   N19   A    
N8    Ni8   S    
C53   N9    A    
C56   H36   S    
C28   H12   S    
C77   H49   S    
C48   C68   A    
C27   H11   S    
N27   Ni4   S    
C42   H26   S    
N4    N15   A    
S6    O17   D    
C42   C50   D    
C32   C67   S    
N25   Ni2   S    
C10   C70   A    
C39   C49   S    
C13   C73   A    
C78   N26   A    
C3    C63   A    
N5    Ni5   S    
C45   C65   A    
C76   H48   S    
N1    N14   A    
C2    H2    S    
C3    N3    A    
C47   S3    S    
C73   H45   S    
C70   N18   A    
C36   C40   D    
C35   H31   S    
O3    H57   S    
C57   H37   S    
C75   N23   A    
C7    N31   A    
N9    Ni2   S    
C76   N24   A    
N30   Ni5   S    
C59   H39   S    
N15   Ni8   S    
N17   N29   A    
C16   C76   A    
C25   H9    S    
C3    H3    S    
S8    O23   D    
C1    C61   A    
C10   C21   S    
C6    C10   A    
C55   C67   A    
C46   C66   A    
C39   H23   S    
C54   C66   A    
C45   S1    S    
C26   H10   S    
C4    C64   A    
C45   N5    A    
C54   N10   A    
N3    N16   A    
C16   C79   A    
S4    O10   D    
C46   S2    S    
C18   C22   D    
C78   H50   S    
C15   C43   S    
S3    O7    D    
C30   H14   S    
C37   H21   S    
C32   H16   S    
C55   H35   S    
C43   C51   D    
O6    H58   S    
C74   H46   S    
N26   Ni1   S    
C20   C26   S    
C31   H15   S    
C54   H34   S    
C46   N6    A    
N20   Ni4   S    
C18   H54   S    
C33   H29   S    
C75   H47   S    
C22   H6    S    
S5    O13   D    
C19   C25   S    
S2    O5    D    
C48   S4    S    
C30   C65   S    
C69   N17   A    
C60   H40   S    
C49   H17   S    
C29   C66   S    
N19   Ni3   S    
C40   C50   S    
N14   Ni5   S    
C38   C52   S    
S8    O22   D    
C38   H22   S    
S1    O1    D    
N10   Ni1   S    
N17   Ni1   S    
S7    O20   D    
N23   N28   A    
N18   N30   A    
N28   Ni3   S    
N23   Ni7   S    
C34   H30   S    
C8    S8    S    
C1    H1    S    
N21   N26   A    
C58   N14   A    
S4    O11   D    
N31   Ni8   S    
C26   C30   D    
C17   C21   D    
