data_mof_unit_23156.cif
_audit_creation_date              2013-03-05T15:51:27-0500
_audit_creation_method            fapswitch 2.2
_symmetry_space_group_name_H-M    P1
_symmetry_Int_Tables_number       1
_space_group_crystal_system       triclinic
_cell_length_a                    19.232705
_cell_length_b                    10.990843
_cell_length_c                    18.793192
_cell_angle_alpha                 90.074058
_cell_angle_beta                  90.100819
_cell_angle_gamma                 89.883221
_cell_volume                      3972.55565168

loop_
_atom_site_label
_atom_site_type_symbol
_atom_site_description
_atom_site_fract_x
_atom_site_fract_y
_atom_site_fract_z
_atom_type_partial_charge
O1    O     O_R   0.957020 0.451640 0.669920 -0.479025
O2    O     O_R   0.042980 0.451640 0.330080 -0.529243
O3    O     O_R   0.457020 0.951640 0.669920 -0.466677
O4    O     O_R   0.542980 0.951640 0.330080 -0.523647
O5    O     O_R   0.821450 0.543440 0.674610 -0.457863
O6    O     O_R   0.178550 0.543440 0.325390 -0.501574
O7    O     O_R   0.321450 0.043440 0.674610 -0.445254
O8    O     O_R   0.678550 0.043440 0.325390 -0.504124
C1    C     C_R   0.761183 0.533498 0.646401 0.577338
C2    C     C_R   0.237819 0.528712 0.354919 0.534134
C3    C     C_R   0.260690 0.035665 0.647295 0.582413
C4    C     C_R   0.737630 0.027213 0.355942 0.520707
O9    O     O_R   0.715320 0.458650 0.668100 -0.531882
O10   O     O_R   0.284680 0.458650 0.331900 -0.455449
O11   O     O_R   0.215320 0.958650 0.668100 -0.520645
O12   O     O_R   0.784680 0.958650 0.331900 -0.473451
O13   O     O_R   0.737170 0.209590 0.674530 -0.506215
O14   O     O_R   0.262830 0.209590 0.325470 -0.481908
O15   O     O_R   0.237170 0.709590 0.674530 -0.514277
O16   O     O_R   0.762830 0.709590 0.325470 -0.491005
C5    C     C_R   0.773084 0.125887 0.646358 0.562807
C6    C     C_R   0.222284 0.135367 0.357580 0.531241
C7    C     C_R   0.273051 0.625386 0.646455 0.553312
C8    C     C_R   0.710202 0.667295 0.361195 0.540576
O17   O     O_R   0.832710 0.092740 0.669580 -0.485001
O18   O     O_R   0.167290 0.092740 0.330420 -0.496176
O19   O     O_R   0.332710 0.592740 0.669580 -0.463452
O20   O     O_R   0.667290 0.592740 0.330420 -0.480176
O21   O     O_R   0.946290 0.250060 0.676040 -0.500185
O22   O     O_R   0.053710 0.250060 0.323960 -0.501675
O23   O     O_R   0.446290 0.750060 0.676040 -0.498272
O24   O     O_R   0.553710 0.750060 0.323960 -0.507698
C9    C     C_R   0.974141 0.343632 0.649230 0.577740
C10   C     C_R   0.033103 0.348139 0.356240 0.522976
C11   C     C_R   0.474828 0.843947 0.649681 0.591354
C12   C     C_R   0.532170 0.848142 0.355789 0.522292
O25   O     O_R   0.956270 0.452200 0.830470 -0.470261
O26   O     O_R   0.043730 0.452200 0.169530 -0.508123
O27   O     O_R   0.456270 0.952200 0.830470 -0.461590
O28   O     O_R   0.543730 0.952200 0.169530 -0.522605
O29   O     O_R   0.820760 0.543950 0.823440 -0.516424
O30   O     O_R   0.179240 0.543950 0.176560 -0.506896
O31   O     O_R   0.320760 0.043950 0.823440 -0.535090
O32   O     O_R   0.679240 0.043950 0.176560 -0.528598
C13   C     C_R   0.761648 0.529276 0.853123 0.566975
C14   C     C_R   0.241016 0.534505 0.149021 0.538193
C15   C     C_R   0.262336 0.026885 0.854015 0.571245
C16   C     C_R   0.740863 0.034809 0.149151 0.528534
O33   O     O_R   0.714570 0.459210 0.828640 -0.486736
O34   O     O_R   0.285430 0.459210 0.171360 -0.480083
O35   O     O_R   0.214570 0.959210 0.828640 -0.475165
O36   O     O_R   0.785430 0.959210 0.171360 -0.465902
O37   O     O_R   0.736470 0.210100 0.823360 -0.481267
O38   O     O_R   0.263530 0.210100 0.176640 -0.488031
O39   O     O_R   0.236470 0.710100 0.823360 -0.500741
O40   O     O_R   0.763530 0.710100 0.176640 -0.481977
C17   C     C_R   0.788231 0.167940 0.860610 0.552785
C18   C     C_R   0.227681 0.124523 0.147703 0.516371
C19   C     C_R   0.273916 0.631544 0.855187 0.547194
C20   C     C_R   0.726305 0.627209 0.146673 0.522750
O41   O     O_R   0.831960 0.093290 0.830130 -0.513368
O42   O     O_R   0.168040 0.093290 0.169870 -0.510968
O43   O     O_R   0.331960 0.593290 0.830130 -0.526427
O44   O     O_R   0.668040 0.593290 0.169870 -0.508076
O45   O     O_R   0.945600 0.250580 0.824860 -0.507991
O46   O     O_R   0.054400 0.250580 0.175140 -0.501349
O47   O     O_R   0.445600 0.750580 0.824860 -0.473410
O48   O     O_R   0.554400 0.750580 0.175140 -0.501415
C21   C     C_R   0.964691 0.347015 0.856309 0.605581
C22   C     C_R   0.028985 0.347644 0.147189 0.566770
C23   C     C_R   0.437458 0.851784 0.860449 0.555033
C24   C     C_R   0.529257 0.847424 0.147053 0.522397
Cr1   Cr    Cr6+3 0.885860 0.491680 0.749630 1.107193
Cr2   Cr    Cr6+3 0.114140 0.491680 0.250370 1.041859
Cr3   Cr    Cr6+3 0.385860 0.991680 0.749630 1.107963
Cr4   Cr    Cr6+3 0.614140 0.991680 0.250370 1.028046
Cr5   Cr    Cr6+3 0.730490 0.332970 0.748720 1.062376
Cr6   Cr    Cr6+3 0.269510 0.332970 0.251280 1.129355
Cr7   Cr    Cr6+3 0.230490 0.832970 0.748720 1.061354
Cr8   Cr    Cr6+3 0.769510 0.832970 0.251280 1.116113
Cr9   Cr    Cr6+3 0.887570 0.179310 0.750150 1.076220
Cr10  Cr    Cr6+3 0.112430 0.179310 0.249850 1.073950
Cr11  Cr    Cr6+3 0.387570 0.679310 0.750150 1.086526
Cr12  Cr    Cr6+3 0.612430 0.679310 0.249850 1.064660
O49   O     O_3   0.834640 0.334650 0.749500 -0.303700
O50   O     O_3   0.165360 0.334650 0.250500 -0.281438
O51   O     O_3   0.334640 0.834650 0.749500 -0.302702
O52   O     O_3   0.665360 0.834650 0.250500 -0.296880
C25   C     C_R   0.743072 0.051487 0.430799 -0.005782
C26   C     C_R   0.248147 0.099907 0.581011 0.001329
C27   C     C_R   0.243306 0.555067 0.428672 0.085971
C28   C     C_R   0.748262 0.596407 0.580105 0.018225
C29   C     C_R   0.708131 0.147759 0.461418 0.053215
C30   C     C_R   0.304218 0.130473 0.536959 0.113443
C31   C     C_R   0.264135 0.668515 0.451456 0.002673
C32   C     C_R   0.803391 0.622282 0.534089 0.096935
C33   C     C_R   0.710813 0.163866 0.533971 -0.030179
C34   C     C_R   0.295189 0.142625 0.464450 0.037602
C35   C     C_R   0.267446 0.691237 0.523513 -0.011239
C36   C     C_R   0.790948 0.645905 0.463149 0.003178
C37   C     C_R   0.775436 0.977632 0.548440 -0.139997
C38   C     C_R   0.172725 0.108540 0.477830 -0.153214
C39   C     C_R   0.243826 0.480502 0.550335 -0.106461
C40   C     C_R   0.667783 0.631306 0.482812 -0.136349
C41   C     C_R   0.771618 0.960832 0.475314 -0.124329
C42   C     C_R   0.181070 0.100282 0.551488 -0.192774
C43   C     C_R   0.235099 0.459396 0.477735 -0.068676
C44   C     C_R   0.679874 0.609289 0.554898 -0.170140
C45   C     C_3   0.713998 0.280854 0.446901 0.085118
C46   C     C_3   0.373670 0.070825 0.526286 0.113373
C47   C     C_3   0.233010 0.789002 0.434254 0.070772
C48   C     C_3   0.868370 0.552196 0.516992 0.108383
C49   C     C_3   0.711673 0.298931 0.526903 -0.169955
C50   C     C_3   0.362820 0.085948 0.446400 -0.253198
C51   C     C_3   0.230437 0.809968 0.513673 -0.174018
C52   C     C_3   0.853649 0.577995 0.438749 -0.232968
C53   C     C_R   0.749638 0.085062 0.577583 -0.003450
C54   C     C_R   0.231187 0.120265 0.433422 -0.006278
C55   C     C_R   0.256677 0.598891 0.573559 0.021968
C56   C     C_R   0.723545 0.644072 0.435784 0.012209
H1    H     H_    0.802658 0.911716 0.581028 0.185629
H2    H     H_    0.121195 0.100149 0.455502 0.175361
H3    H     H_    0.238756 0.406360 0.587880 0.136074
H4    H     H_    0.615391 0.631120 0.462765 0.158896
H5    H     H_    0.793090 0.878835 0.453322 0.198693
H6    H     H_    0.136421 0.079474 0.584069 0.151668
H7    H     H_    0.221569 0.369172 0.459599 0.126410
H8    H     H_    0.636226 0.590968 0.589402 0.142279
H9    H     H_    0.763959 0.308471 0.421807 0.118359
H10   H     H_    0.416661 0.124775 0.549365 0.219786
H11   H     H_    0.269299 0.850394 0.405480 0.103123
H12   H     H_    0.916250 0.594023 0.538530 0.219659
H13   H     H_    0.758847 0.337038 0.550375 0.190435
H14   H     H_    0.398430 0.152240 0.421714 0.188095
H15   H     H_    0.262181 0.886573 0.529688 0.171020
H16   H     H_    0.892720 0.638607 0.414109 0.182148
H17   H     H_    0.662910 0.342158 0.545970 0.171849
H18   H     H_    0.356911 0.000278 0.415577 0.093819
H19   H     H_    0.177427 0.812267 0.536297 0.161256
H20   H     H_    0.840117 0.496513 0.406460 0.127329
C57   C     C_R   0.014179 0.346215 0.433061 -0.035776
C58   C     C_R   0.014640 0.326127 0.582780 -0.011573
C59   C     C_R   0.512007 0.847405 0.432322 -0.037249
C60   C     C_R   0.514617 0.828470 0.582372 -0.013852
C61   C     C_R   0.976296 0.131419 0.425558 -0.123158
C62   C     C_R   0.996130 0.105301 0.570939 -0.118438
C63   C     C_R   0.469798 0.635054 0.426529 -0.122342
C64   C     C_R   0.493846 0.608964 0.571206 -0.112836
C65   C     C_R   0.971091 0.016497 0.456115 0.219684
C66   C     C_R   0.979358 0.003272 0.530008 0.196839
C67   C     C_R   0.456300 0.523337 0.459373 0.216265
C68   C     C_R   0.467358 0.510691 0.533102 0.213554
C69   C     C_R   0.002869 0.221657 0.540308 -0.049187
C70   C     C_R   0.997732 0.233486 0.465663 -0.076144
C71   C     C_R   0.501800 0.724353 0.540050 -0.058971
C72   C     C_R   0.494690 0.735874 0.465591 -0.082477
H21   H     H_    0.963811 0.138220 0.369659 0.169892
H22   H     H_    0.007195 0.091529 0.626724 0.183631
H23   H     H_    0.457800 0.642810 0.370498 0.170090
H24   H     H_    0.508050 0.594318 0.626209 0.178784
C73   C     C_R   0.041621 0.430204 0.551306 0.005100
C74   C     C_R   0.031973 0.448767 0.477722 -0.008500
C75   C     C_R   0.538709 0.934611 0.550013 0.018770
C76   C     C_R   0.528295 0.951448 0.476318 0.010588
C77   C     C_R   0.071226 0.521706 0.594279 -0.094032
C78   C     C_R   0.037459 0.571355 0.453751 -0.070414
C79   C     C_R   0.563882 0.030810 0.592452 -0.081079
C80   C     C_R   0.529779 0.074143 0.451532 -0.087853
C81   C     C_R   0.080204 0.637951 0.568114 -0.089293
C82   C     C_R   0.060702 0.663790 0.498789 -0.041521
C83   C     C_R   0.563418 0.148685 0.567068 -0.088515
C84   C     C_R   0.544967 0.170840 0.497007 -0.091719
H25   H     H_    0.018494 0.602204 0.403017 0.186451
H26   H     H_    0.083950 0.504560 0.649581 0.136802
H27   H     H_    0.512305 0.101798 0.399680 0.175360
H28   H     H_    0.578550 0.016003 0.647487 0.142777
H29   H     H_    0.098768 0.709029 0.603077 0.160528
H30   H     H_    0.062256 0.756652 0.480336 0.222134
H31   H     H_    0.578260 0.222386 0.601925 0.170653
H32   H     H_    0.542466 0.263381 0.477734 0.205877
C85   C     C_R   0.760627 0.097356 0.083457 -0.031425
C86   C     C_R   0.256945 0.056938 0.928854 0.001106
C87   C     C_R   0.259775 0.588091 0.080365 -0.032625
C88   C     C_R   0.754542 0.565821 0.926713 0.011763
C89   C     C_R   0.817744 0.053472 0.044654 0.004985
C90   C     C_R   0.196599 0.023743 0.963479 0.091402
C91   C     C_R   0.309649 0.528676 0.038457 0.004752
C92   C     C_R   0.691239 0.545269 0.959450 0.087166
C93   C     C_R   0.823349 0.076167 0.973153 -0.084039
C94   C     C_R   0.190529 0.036908 0.035423 -0.027689
C95   C     C_R   0.308171 0.537942 0.966057 -0.074659
C96   C     C_R   0.684428 0.557117 0.031596 -0.013581
C97   C     C_R   0.724275 0.210252 0.978150 0.251745
C98   C     C_R   0.311588 0.091226 0.044999 0.187533
C99   C     C_R   0.218459 0.690096 0.973780 0.255326
C100  C     C_R   0.807503 0.592082 0.044095 0.196604
C101  C     C_R   0.719038 0.187379 0.051816 -0.048197
C102  C     C_R   0.315737 0.085338 0.970294 -0.121264
C103  C     C_R   0.222589 0.683180 0.048588 -0.072664
C104  C     C_R   0.813463 0.584477 0.969834 -0.104354
C105  C     C_3   0.846622 0.927006 0.035511 0.139748
C106  C     C_3   0.123897 0.063748 0.949278 0.105751
C107  C     C_3   0.334140 0.399131 0.034110 0.132291
C108  C     C_3   0.622556 0.603064 0.944776 0.100892
C109  C     C_3   0.849585 0.951796 0.955922 -0.207440
C110  C     C_3   0.117734 0.083754 0.028925 -0.227748
C111  C     C_3   0.330954 0.410351 0.953256 -0.227904
C112  C     C_3   0.615121 0.618024 0.024694 -0.222900
C113  C     C_R   0.775659 0.148041 0.936871 0.031133
C114  C     C_R   0.245680 0.077754 0.077532 -0.017551
C115  C     C_R   0.260321 0.610606 0.930802 0.027633
C116  C     C_R   0.741136 0.586458 0.074983 -0.005625
H33   H     H_    0.677227 0.228981 0.081694 0.170019
H34   H     H_    0.364499 0.102603 0.944549 0.208539
H35   H     H_    0.190369 0.742508 0.080698 0.141947
H36   H     H_    0.863970 0.589801 0.946002 0.211714
H37   H     H_    0.809987 0.853116 0.050148 0.159129
H38   H     H_    0.090358 0.989568 0.928192 0.163003
H39   H     H_    0.296350 0.333333 0.056306 0.152371
H40   H     H_    0.584352 0.539389 0.920471 0.157323
H41   H     H_    0.901873 0.954180 0.931171 0.184228
H42   H     H_    0.113994 0.180771 0.045166 0.177118
H43   H     H_    0.381596 0.405317 0.925112 0.201462
H44   H     H_    0.616292 0.713891 0.043414 0.158571
H45   H     H_    0.810916 0.897527 0.925419 0.178545
H46   H     H_    0.080485 0.021729 0.055190 0.190847
H47   H     H_    0.289202 0.354198 0.928970 0.161476
H48   H     H_    0.573148 0.561152 0.047578 0.181252
C117  C     C_R   0.992620 0.345053 0.079531 -0.012500
C118  C     C_R   0.976881 0.341002 0.931793 0.016802
C119  C     C_R   0.493702 0.845860 0.079035 -0.031789
C120  C     C_R   0.451904 0.848619 0.935987 -0.031472
C121  C     C_R   0.985079 0.453635 0.040655 0.047514
C122  C     C_R   0.977881 0.450328 0.968296 0.007292
C123  C     C_R   0.494146 0.952959 0.038910 0.057781
C124  C     C_R   0.471047 0.956126 0.970320 0.015356
C125  C     C_R   0.969986 0.232550 0.971027 -0.141790
C126  C     C_R   0.977002 0.234847 0.045324 -0.180505
C127  C     C_R   0.444343 0.741897 0.976836 -0.148954
C128  C     C_R   0.463912 0.741156 0.049010 -0.166212
C129  C     C_3   0.027358 0.569220 0.035296 0.464954
C130  C     C_3   0.019598 0.562587 0.954853 0.535468
C131  C     C_3   0.548937 0.048586 0.025540 0.479355
C132  C     C_3   0.519861 0.058644 0.950452 0.535634
H49   H     H_    0.962984 0.146257 0.944338 0.165705
H50   H     H_    0.977588 0.150169 0.074545 0.183587
H51   H     H_    0.427503 0.658255 0.952095 0.171333
H52   H     H_    0.460739 0.657669 0.079273 0.182039
O53   O     O_3   0.674967 0.284906 0.948291 -0.690948
H53   H     H_    0.651768 0.237625 0.910289 0.377230
O54   O     O_3   0.371429 0.114601 0.082939 -0.621214
H54   H     H_    0.363835 0.091222 0.133191 0.342340
O55   O     O_3   0.170715 0.770557 0.946126 -0.695566
H55   H     H_    0.148725 0.732912 0.904045 0.378552
O56   O     O_3   0.866515 0.607886 0.084064 -0.655031
H56   H     H_    0.857866 0.578430 0.133038 0.329029
N1    N     N_R   0.915094 0.914759 0.069255 0.111878
O57   O     O_R   0.919702 0.904865 0.138034 -0.285752
O58   O     O_R   0.971556 0.907638 0.031487 -0.367285
N2    N     N_R   0.121192 0.175335 0.907003 0.059996
O59   O     O_R   0.157149 0.270317 0.925688 -0.402953
O60   O     O_R   0.092769 0.172496 0.844206 -0.332344
N3    N     N_R   0.404768 0.385908 0.062799 0.136752
O61   O     O_R   0.413226 0.350067 0.128161 -0.250141
O62   O     O_R   0.458747 0.423083 0.027318 -0.367801
N4    N     N_R   0.629612 0.718050 0.906372 0.052381
O63   O     O_R   0.673694 0.800274 0.927723 -0.368328
O64   O     O_R   0.599785 0.730260 0.844640 -0.330028
O65   O     O_3   0.096016 0.554951 0.057439 -0.702816
H57   H     H_    0.103301 0.618681 0.093600 0.356749
O66   O     O_3   0.980203 0.657588 0.925540 -0.633976
H58   H     H_    0.010971 0.729944 0.925079 0.369140
O67   O     O_3   0.617826 0.005026 0.024861 -0.695602
H59   H     H_    0.624423 0.949959 0.065826 0.320625
O68   O     O_3   0.484230 0.167973 0.937645 -0.628796
H60   H     H_    0.520225 0.231611 0.931436 0.373655
O69   O     O_3   0.994070 0.671340 0.065042 -0.574102
H61   H     H_    0.991780 0.657721 0.117193 0.356102
O70   O     O_3   0.080979 0.540991 0.915879 -0.672857
H62   H     H_    0.106399 0.472439 0.938060 0.371997
O71   O     O_3   0.539851 0.155711 0.065395 -0.581120
H63   H     H_    0.565918 0.145499 0.110452 0.352440
O72   O     O_3   0.568454 0.033229 0.896291 -0.632313
H64   H     H_    0.580166 0.945813 0.898354 0.391755
O73   O     O_3   0.166786 0.780648 0.403648 -0.676734
H65   H     H_    0.173493 0.789516 0.351595 0.350663
O74   O     O_3   0.862912 0.429311 0.534974 -0.736318
H66   H     H_    0.889692 0.382603 0.499366 0.322612
O75   O     O_3   0.654785 0.327367 0.413024 -0.680730
H67   H     H_    0.660626 0.308653 0.361729 0.349046
O76   O     O_3   0.373710 0.949630 0.549532 -0.713438
H68   H     H_    0.391886 0.897262 0.510993 0.320427
N5    N     N_R   0.967051 0.913149 0.410019 0.077865
O77   O     O_R   0.906857 0.867353 0.394236 -0.334849
O78   O     O_R   0.019839 0.887639 0.369451 -0.336312
N6    N     N_R   0.968748 0.888447 0.564483 0.057760
O79   O     O_R   0.994144 0.868310 0.627631 -0.376000
O80   O     O_R   0.923677 0.812530 0.538744 -0.384263
N7    N     N_R   0.436144 0.422333 0.416036 0.066030
O81   O     O_R   0.376497 0.370650 0.426336 -0.321340
O82   O     O_R   0.469884 0.399198 0.357598 -0.340854
N8    N     N_R   0.449897 0.401724 0.571132 0.065250
O83   O     O_R   0.484821 0.372860 0.628025 -0.393708
O84   O     O_R   0.388532 0.354776 0.563040 -0.334435

loop_
_geom_bond_atom_site_label_1
_geom_bond_atom_site_label_2
_geom_bond_distance
_ccdc_geom_bond_type
C80   H27   1.074305 S    
O4    C12   1.254342 A    
C24   C119  1.448737 S    
O25   C21   1.264498 A    
O76   H68   0.988459 S    
C39   H3    1.083250 S    
Cr7   O51   2.003239 S    
C82   H30   1.078850 S    
O39   C19   1.272468 A    
C31   C35   1.378076 A    
C57   C70   1.419429 A    
C34   C50   1.480786 S    
O66   H58   0.992285 S    
O21   C9    1.266096 A    
C90   C106  1.488676 S    
N3    O62   1.301622 A    
C64   H24   1.080879 S    
C1    O9    1.275223 A    
O44   Cr12  2.072400 S    
C5    C53   1.439616 S    
C62   C66   1.397013 A    
C3    O11   1.278996 A    
C94   C110  1.495580 S    
C4    O12   1.260406 A    
C132  O72   1.410325 S    
C110  H46   1.107124 S    
C132  O68   1.402932 S    
C120  C124  1.395346 A    
O2    C10   1.254787 A    
C49   H13   1.092162 S    
O17   Cr9   2.075091 S    
C77   C81   1.380860 A    
C17   C113  1.470568 S    
C8    C56   1.447527 S    
O16   Cr8   1.950793 S    
C27   C43   1.408696 A    
C76   C80   1.427621 A    
C67   N7    1.429780 S    
C79   C83   1.381165 A    
O13   C5    1.265385 A    
O28   Cr4   2.079333 S    
O12   Cr8   2.069643 S    
C90   C94   1.364777 A    
O15   C7    1.268276 A    
O46   Cr10  1.955582 S    
C61   H21   1.079853 S    
O48   C24   1.282125 A    
C125  H49   1.080875 S    
C20   C116  1.447910 S    
C123  C131  1.511394 S    
N6    O79   1.301583 A    
C51   H19   1.105548 S    
C2    C27   1.419418 S    
C49   H17   1.110222 S    
C102  H34   1.073398 S    
C6    C54   1.445003 S    
O5    Cr1   1.959333 S    
Cr12  O52   1.989565 S    
C17   O41   1.306242 A    
C19   O43   1.282241 A    
C41   H5    1.073156 S    
C20   O44   1.260404 A    
C130  O66   1.401628 S    
C94   C114  1.396777 A    
C37   C53   1.391830 A    
Cr8   O52   2.003164 S    
O46   C22   1.285056 A    
C118  C122  1.382998 A    
C33   C53   1.405899 A    
C35   C55   1.400594 A    
C100  C116  1.404631 A    
C16   O36   1.263338 A    
C71   C72   1.411580 A    
O27   C23   1.292413 A    
C39   C43   1.393590 A    
O31   C15   1.277242 A    
C73   C77   1.409399 A    
O32   C16   1.296756 A    
C13   C88   1.446270 S    
C95   C115  1.385628 A    
C46   O76   1.402376 S    
C10   C57   1.489692 S    
C111  H43   1.110390 S    
C68   N8    1.436181 S    
C58   C73   1.390278 A    
C100  O56   1.371134 S    
O53   H53   0.988956 S    
C103  H35   1.082580 S    
O24   C12   1.299574 A    
O30   C14   1.300681 A    
O55   H55   0.987005 S    
C28   C32   1.399285 A    
C129  C130  1.520534 S    
O32   Cr4   1.957777 S    
C96   C116  1.398561 A    
C28   C44   1.404154 A    
O11   Cr7   2.071462 S    
C88   C104  1.407192 A    
C64   C71   1.406286 A    
O27   Cr3   2.078999 S    
O3    Cr3   2.076968 S    
C121  C122  1.367101 A    
C46   C50   1.524630 S    
O8    C4    1.284413 A    
C11   C60   1.488945 S    
Cr5   O49   2.003239 S    
C57   C74   1.445724 A    
O69   H61   0.992711 S    
C83   H31   1.079669 S    
C1    C28   1.446558 S    
C81   H29   1.080957 S    
C19   C115  1.463940 S    
C34   C54   1.383443 A    
C99   C103  1.410120 A    
N8    O84   1.297669 A    
O22   C10   1.297888 A    
C108  C112  1.517632 S    
C2    O10   1.260977 A    
C77   H26   1.083963 S    
C92   C108  1.490051 S    
C119  C128  1.403864 A    
C63   C67   1.399943 A    
O5    C1    1.278546 A    
N5    O77   1.297045 A    
C98   C114  1.416421 A    
O3    C11   1.288644 A    
C67   C68   1.408474 A    
O75   H67   0.991963 S    
C50   H14   1.104174 S    
C95   C111  1.487759 S    
C44   H8    1.081051 S    
Cr1   O49   1.988979 S    
N4    O64   1.300308 A    
C122  C130  1.495135 S    
C61   C70   1.412481 A    
C47   H11   1.113115 S    
C78   C82   1.395227 A    
C45   H9    1.113990 S    
C29   C33   1.375602 A    
C48   C52   1.523807 S    
O26   Cr2   2.079333 S    
Cr3   O51   1.988979 S    
C5    O17   1.278756 A    
O29   C13   1.277849 A    
O28   C24   1.257648 A    
O14   C6    1.281903 A    
C64   C68   1.392079 A    
N2    O59   1.300965 A    
C89   C93   1.371466 A    
C40   H4    1.075142 S    
C112  H44   1.110658 S    
O40   Cr8   1.949289 S    
C92   C96   1.368410 A    
C106  H38   1.112760 S    
C22   C117  1.450359 S    
O36   Cr8   2.069649 S    
C112  H48   1.109639 S    
C98   C102  1.407744 A    
C51   H15   1.083061 S    
C110  H42   1.110972 S    
C32   C36   1.378985 A    
C104  H36   1.072121 S    
O33   Cr5   2.066207 S    
C50   H18   1.110793 S    
C117  C121  1.407205 A    
C105  N1    1.466645 S    
O29   Cr1   1.955225 S    
C25   C41   1.411510 A    
O72   H64   0.987167 S    
C105  C109  1.521872 S    
C118  C125  1.409005 A    
C119  C123  1.398805 A    
C40   C56   1.398298 A    
Cr9   O49   1.986029 S    
C29   C45   1.492930 S    
C18   O42   1.269174 A    
Cr11  O51   1.986029 S    
O26   C22   1.255753 A    
O20   Cr12  2.074914 S    
C127  C128  1.407008 A    
C36   C52   1.489614 S    
C73   C74   1.410002 A    
O54   H54   0.990211 S    
C45   O75   1.399830 S    
O47   Cr11  1.955950 S    
C108  H40   1.112835 S    
C35   C51   1.496703 S    
C16   C85   1.464998 S    
C30   C34   1.380011 A    
C131  C132  1.521073 S    
C91   C107  1.500957 S    
C65   N5    1.429793 S    
C127  H51   1.079718 S    
C86   C90   1.381505 A    
C89   C105  1.505520 S    
C74   C78   1.425385 A    
C93   C109  1.491524 S    
C120  C127  1.410581 A    
C123  C124  1.363153 A    
C109  H45   1.112176 S    
C48   O74   1.396878 S    
C131  O67   1.407932 S    
C84   H32   1.081074 S    
N6    O80   1.296926 A    
O42   Cr10  2.072400 S    
C85   C101  1.403207 A    
O18   Cr10  2.074914 S    
O65   H57   0.985354 S    
O31   Cr3   1.955225 S    
C130  O70   1.409924 S    
O34   Cr6   2.069649 S    
C26   C30   1.402325 A    
O24   Cr12  1.954234 S    
O30   Cr2   1.957777 S    
O48   Cr12  1.955582 S    
C8    O20   1.298821 A    
C26   C42   1.403423 A    
O37   C17   1.300896 A    
C15   O35   1.274730 A    
Cr10  O50   1.989565 S    
C30   C46   1.500422 S    
C37   H1    1.082820 S    
O40   C20   1.288262 A    
O43   Cr11  2.076159 S    
O37   Cr5   1.951476 S    
N7    O81   1.296101 A    
O21   Cr9   1.957496 S    
O73   H65   0.991885 S    
C87   C91   1.401990 A    
O39   Cr7   1.951476 S    
O45   Cr9   1.955950 S    
O74   H66   0.987877 S    
C13   O33   1.274763 A    
C126  H50   1.081266 S    
O13   Cr5   1.947921 S    
C48   H12   1.105935 S    
O15   Cr7   1.947921 S    
C63   C72   1.412370 A    
C62   H22   1.080191 S    
C111  H47   1.110870 S    
C99   O55   1.375318 S    
C60   C75   1.396594 A    
O23   C11   1.271235 A    
C59   C76   1.444821 A    
C40   C44   1.395514 A    
C101  H33   1.081862 S    
C78   H25   1.075272 S    
O6    C2    1.277037 A    
C52   H16   1.107689 S    
C42   H6    1.080562 S    
O1    Cr1   2.076968 S    
O19   Cr11  2.075091 S    
O70   H62   0.989469 S    
C93   C113  1.387969 A    
C65   C66   1.405167 A    
C7    C55   1.434752 S    
C62   C69   1.409427 A    
O45   C21   1.267567 A    
C46   H10   1.106101 S    
O47   C23   1.306454 A    
C80   C84   1.394002 A    
C6    O18   1.264208 A    
C128  H52   1.082066 S    
C98   O54   1.377237 S    
O41   Cr9   2.076159 S    
C117  C126  1.403367 A    
C38   H2    1.079619 S    
C61   C65   1.392042 A    
O38   Cr6   1.949289 S    
C83   C84   1.384799 A    
O22   Cr10  1.954234 S    
C81   C82   1.384758 A    
C75   C76   1.411388 A    
C86   C102  1.407191 A    
O8    Cr4   1.959739 S    
C100  C104  1.402890 A    
C63   H23   1.081034 S    
O1    C9    1.290926 A    
O7    C3    1.278507 A    
C32   C48   1.501759 S    
C12   C59   1.490362 S    
N1    O57   1.300146 A    
C106  N2    1.462925 S    
C107  N3    1.467574 S    
O23   Cr11  1.957496 S    
O16   C8    1.302501 A    
C129  O65   1.392405 S    
C23   C120  1.446511 S    
C36   C56   1.393955 A    
O6    Cr2   1.959739 S    
C7    O19   1.277157 A    
Cr4   O52   1.985496 S    
C91   C95   1.364799 A    
C38   C54   1.407669 A    
C45   C49   1.517034 S    
Cr6   O50   2.003164 S    
C25   C29   1.378113 A    
C96   C112  1.495901 S    
C15   C86   1.448171 S    
O35   Cr7   2.066207 S    
C18   C114  1.456788 S    
C37   C41   1.388220 A    
O9    Cr5   2.071462 S    
C129  O69   1.406707 S    
C4    C25   1.435233 S    
N2    O60   1.300107 A    
C85   C89   1.403883 A    
O7    Cr3   1.959333 S    
O71   H63   0.989685 S    
C107  C111  1.525778 S    
C87   C103  1.399079 A    
C88   C92   1.384170 A    
N1    O58   1.300521 A    
C14   C87   1.465030 S    
C75   C79   1.409593 A    
C99   C115  1.435793 A    
C97   C113  1.429870 A    
O67   H59   0.987737 S    
C47   O73   1.399739 S    
Cr2   O50   1.985496 S    
N7    O82   1.301138 A    
C121  C129  1.513285 S    
O14   Cr6   1.950793 S    
O68   H60   0.992243 S    
C97   O53   1.372448 S    
C33   C49   1.490707 S    
O56   H56   0.990500 S    
O38   C18   1.286769 A    
O25   Cr1   2.078999 S    
N8    O83   1.300948 A    
C39   C55   1.394334 A    
O2    Cr2   2.078973 S    
C108  N4    1.462837 S    
C9    C58   1.485066 S    
C14   O34   1.259964 A    
C107  H39   1.108702 S    
C66   N6    1.434488 S    
C124  C132  1.515598 S    
C60   C71   1.414572 A    
N3    O61   1.300305 A    
C105  H37   1.111412 S    
N5    O78   1.300644 A    
C31   C47   1.487835 S    
C21   C118  1.438998 S    
C131  O71   1.405403 S    
C3    C26   1.452237 S    
C59   C72   1.417342 A    
C97   C101  1.411186 A    
C109  H41   1.109123 S    
C38   C42   1.396312 A    
O10   Cr6   2.069643 S    
C58   C69   1.415906 A    
O4    Cr4   2.078973 S    
N4    O63   1.302865 A    
C27   C31   1.377901 A    
C106  C110  1.517404 S    
C47   C51   1.510797 S    
C43   H7    1.080317 S    
C69   C70   1.412256 A    
C125  C126  1.402760 A    
C79   H28   1.083981 S    
C52   H20   1.112189 S    
