data_mof_unit_45128.cif
_audit_creation_date              2012-12-11T17:47:27-0500
_audit_creation_method            fapswitch 2.2
_symmetry_space_group_name_H-M    P1
_symmetry_Int_Tables_number       1
_space_group_crystal_system       triclinic
_cell_length_a                    14.859538
_cell_length_b                    14.916996
_cell_length_c                    15.092827
_cell_angle_alpha                 110.802652
_cell_angle_beta                  108.682636
_cell_angle_gamma                 108.219213
_cell_volume                      2596.50396137

loop_
_atom_site_label
_atom_site_type_symbol
_atom_type_description
_atom_site_fract_x
_atom_site_fract_y
_atom_site_fract_z
_atom_type_partial_charge
C1    C     C_R   0.913145 0.197307 0.997938 -0.132495
C2    C     C_R   0.836713 0.962656 0.918177 -0.229095
C3    C     C_R   0.164292 0.034178 0.750669 -0.088838
C4    C     C_R   0.775247 0.929686 0.161907 -0.123701
C5    C     C_R   0.070130 0.987433 0.755930 -0.197052
C6    C     C_R   0.832032 0.934952 0.104662 -0.188283
C7    C     C_R   0.685795 0.314324 0.204390 -0.122008
C8    C     C_R   0.382181 0.751511 0.905875 -0.123221
C9    C     C_R   0.792081 0.381901 0.289869 -0.115370
C10   C     C_R   0.310116 0.658920 0.802778 -0.135857
C11   C     C_R   0.856738 0.336065 0.321952 0.124359
C12   C     C_R   0.024065 0.748187 0.935825 -0.112237
C13   C     C_R   0.255360 0.669927 0.715246 0.116030
C14   C     C_R   0.812909 0.221767 0.268678 -0.179630
C15   C     C_R   0.282832 0.775953 0.731185 -0.157820
C16   C     C_R   0.299910 0.800088 0.210073 -0.130023
C17   C     C_R   0.686190 0.245949 0.776669 -0.126162
C18   C     C_R   0.706700 0.154485 0.182499 -0.122262
C19   C     C_R   0.359968 0.868275 0.833063 -0.113527
C20   C     C_R   0.643222 0.200756 0.150267 -0.103237
C21   C     C_R   0.408440 0.856007 0.920735 -0.086791
C22   C     C_R   0.986250 0.405372 0.507403 -0.191265
C23   C     C_R   0.304223 0.856953 0.306612 0.038314
C24   C     C_R   0.149077 0.567882 0.513901 -0.185919
C25   C     C_R   0.077037 0.490179 0.606332 0.117878
C26   C     C_R   0.052295 0.489180 0.417353 0.120719
C27   C     C_R   0.161407 0.572886 0.611289 -0.002035
C28   C     C_R   0.969068 0.407916 0.414228 -0.023402
C29   C     C_R   0.070706 0.024705 0.855854 0.045252
C30   C     C_R   0.785323 0.853175 0.995959 0.043409
C31   C     C_R   0.263726 0.151036 0.945760 -0.190840
C32   C     C_R   0.623979 0.761698 0.003289 -0.165221
C33   C     C_R   0.130657 0.034131 0.288507 -0.103969
C34   C     C_R   0.679658 0.222369 0.676308 0.058889
C35   C     C_R   0.831155 0.001067 0.624891 -0.141933
C36   C     C_R   0.230886 0.036191 0.320500 -0.132405
C37   C     C_R   0.738226 0.011585 0.610406 -0.111354
C38   C     C_R   0.287390 0.049245 0.422607 0.127006
C39   C     C_R   0.693879 0.038762 0.533364 0.135540
C40   C     C_R   0.224188 0.406596 0.972093 -0.120318
C41   C     C_R   0.787065 0.590730 0.094542 -0.142632
C42   C     C_R   0.242234 0.060400 0.492165 -0.148428
C43   C     C_R   0.742560 0.053890 0.470156 -0.183017
C44   C     C_R   0.142332 0.059089 0.460143 -0.090923
C45   C     C_R   0.324829 0.497431 0.045829 0.025326
C46   C     C_R   0.836782 0.045271 0.486542 0.002574
C47   C     C_R   0.086642 0.046043 0.358459 -0.091509
C48   C     C_R   0.881101 0.018854 0.563908 -0.058304
C49   C     C_R   0.487357 0.139653 0.545749 -0.015875
C50   C     C_R   0.496330 0.950096 0.428368 -0.007369
C51   C     C_R   0.585591 0.136296 0.574160 -0.010666
C52   C     C_R   0.398535 0.953886 0.398379 -0.008648
C53   C     C_R   0.591072 0.043234 0.511994 -0.059582
C54   C     C_R   0.392405 0.047859 0.455628 -0.054864
C55   C     C_R   0.260872 0.116209 0.845409 -0.130079
C56   C     C_R   0.697032 0.498924 0.064714 0.023877
C57   C     C_R   0.670342 0.844564 0.110540 -0.119161
C58   C     C_R   0.837133 0.875958 0.932507 0.045223
C59   C     C_R   0.971374 0.968626 0.860009 0.014243
C60   C     C_R   0.169611 0.105681 0.951934 0.087248
C61   C     C_R   0.681028 0.764616 0.945598 0.069828
C62   C     C_R   0.899562 0.830024 0.901174 0.065275
C63   C     C_R   0.916708 0.020339 0.900722 0.050122
C64   C     C_R   0.053949 0.589184 0.313916 0.696278
C65   C     C_R   0.008423 0.408257 0.703599 0.663883
C66   C     C_3   0.502301 0.393913 0.040962 -0.187959
C67   C     C_R   0.035614 0.495947 0.321553 -0.131072
C68   C     C_3   0.528747 0.596528 0.102426 -0.148204
C69   C     C_3   0.434357 0.425543 0.969706 -0.144383
C70   C     C_3   0.597043 0.565125 0.174223 -0.141318
C71   C     C_3   0.426266 0.495357 0.066751 0.185282
C72   C     C_3   0.603873 0.495863 0.076425 0.177596
C73   C     C_3   0.492378 0.463236 0.138509 -0.151190
C74   C     C_3   0.536434 0.526596 0.004971 -0.139424
C75   C     C_R   0.314596 0.590263 0.063167 -0.125573
C76   C     C_R   0.699067 0.408412 0.002773 -0.117176
C77   C     C_R   0.972287 0.406407 0.218760 -0.216523
C78   C     C_R   0.064667 0.497384 0.698939 -0.111414
C79   C     C_R   0.089996 0.589633 0.788763 -0.258752
C80   C     C_R   0.210662 0.798859 0.304162 -0.064306
C81   C     C_R   0.782486 0.259873 0.689585 -0.114125
C82   C     C_R   0.003347 0.198250 0.905446 -0.129764
C83   C     C_R   0.929607 0.746983 0.025305 -0.134589
C84   C     C_R   0.947407 0.135462 0.937095 0.058561
C85   C     C_R   0.944313 0.772809 0.948995 0.050040
C86   C     C_1   0.177211 0.140848 0.057618 0.020778
C87   C     C_1   0.629239 0.679871 0.833796 0.030781
C88   C     C_1   0.485209 0.238494 0.607013 0.060510
C89   C     C_R   0.944890 0.864111 0.842862 -0.220863
C90   C     C_1   0.499638 0.848242 0.378507 0.058533
F1    F     F_    0.098347 0.692073 0.396894 -0.755636
F2    F     F_    0.992442 0.305642 0.647180 -0.739846
H1    H     H_    0.855553 0.169700 0.023919 0.095866
H2    H     H_    0.415579 0.742299 0.975037 0.099286
H3    H     H_    0.824046 0.469791 0.331162 0.115964
H4    H     H_    0.290967 0.578643 0.793166 0.126375
H5    H     H_    0.861554 0.185360 0.293244 0.116391
H6    H     H_    0.241513 0.787511 0.666060 0.147655
H7    H     H_    0.673459 0.066545 0.140848 0.121268
H8    H     H_    0.379433 0.949302 0.844820 0.111638
H9    H     H_    0.919224 0.345073 0.503966 0.157612
H10   H     H_    0.212202 0.628934 0.513860 0.158546
H11   H     H_    0.996912 0.921090 0.682106 0.121414
H12   H     H_    0.059549 0.759657 0.886344 0.099121
H13   H     H_    0.910250 0.005906 0.143034 0.120051
H14   H     H_    0.471227 0.436827 0.192469 0.119555
H15   H     H_    0.555695 0.546565 0.947020 0.124114
H16   H     H_    0.355288 0.828458 0.181904 0.094509
H17   H     H_    0.620122 0.224228 0.794262 0.101034
H18   H     H_    0.009481 0.045224 0.334164 0.099877
H19   H     H_    0.953607 0.011476 0.575829 0.096195
H20   H     H_    0.087334 0.023218 0.209439 0.120026
H21   H     H_    0.863608 0.978359 0.682943 0.120496
H22   H     H_    0.264168 0.026950 0.265626 0.117524
H23   H     H_    0.162698 0.005653 0.673183 0.114790
H24   H     H_    0.700218 0.997518 0.658050 0.115877
H25   H     H_    0.284017 0.069198 0.570656 0.109442
H26   H     H_    0.707903 0.073113 0.409061 0.111343
H27   H     H_    0.107909 0.067816 0.513994 0.111144
H28   H     H_    0.875266 0.058678 0.439163 0.094757
H29   H     H_    0.981510 0.822857 0.804806 0.128060
H30   H     H_    0.785742 0.994680 0.938728 0.130125
H31   H     H_    0.366548 0.368225 0.885350 0.124765
H32   H     H_    0.666486 0.622122 0.257664 0.118139
H33   H     H_    0.495339 0.311524 0.015515 0.098701
H34   H     H_    0.810668 0.994024 0.244582 0.098306
H35   H     H_    0.538784 0.679760 0.129998 0.104328
H36   H     H_    0.205261 0.321785 0.936881 0.118819
H37   H     H_    0.812959 0.674580 0.150986 0.112950
H38   H     H_    0.377905 0.674318 0.111789 0.095762
H39   H     H_    0.645700 0.324206 0.974648 0.089072
H40   H     H_    0.943195 0.321425 0.195528 0.153596
H41   H     H_    0.139354 0.673873 0.814505 0.159449
H42   H     H_    0.183851 0.827512 0.361822 0.179036
H43   H     H_    0.805704 0.254883 0.627986 0.149021
H44   H     H_    0.023906 0.170885 0.842033 0.122878
H45   H     H_    0.339509 0.212416 0.019160 0.121399
H46   H     H_    0.875138 0.754463 0.056470 0.120902
H47   H     H_    0.333906 0.151428 0.841104 0.106679
H48   H     H_    0.624626 0.844727 0.153629 0.099437
H49   H     H_    0.542409 0.696369 0.963896 0.114078
H50   H     H_    0.560914 0.148669 0.083811 0.095527
H51   H     H_    0.465085 0.927341 0.000507 0.096380
H52   H     H_    0.636473 0.350217 0.180731 0.112917
N1    N     N_R   0.947560 0.293820 0.002910 -0.039877
N2    N     N_R   0.789450 0.443190 0.997090 -0.038025
N3    N     N_R   0.945970 0.443180 0.152110 -0.071819
N4    N     N_R   0.054030 0.556820 0.847890 -0.069933
N5    N     N_R   0.151530 0.706170 0.208880 -0.055054
N6    N     N_R   0.848470 0.293830 0.791120 -0.039843
N7    N     N_R   0.004980 0.293810 0.946140 -0.040917
N8    N     N_R   0.995020 0.706190 0.053860 -0.044093
N9    N     N_1   0.183298 0.169175 0.142308 -0.089716
N10   N     N_1   0.587721 0.611854 0.744168 -0.072196
N11   N     N_1   0.483578 0.317262 0.655966 -0.081015
N12   N     N_R   0.052440 0.706180 0.997090 -0.041516
N13   N     N_1   0.502811 0.767788 0.339590 -0.094678
N14   N     N_R   0.208960 0.706170 0.152110 -0.044971
N15   N     N_R   0.791040 0.293830 0.847890 -0.047533
N16   N     N_R   0.154330 0.443160 0.946140 -0.039751
N17   N     N_R   0.845670 0.556840 0.053860 -0.043491
N18   N     N_R   0.002190 0.556820 0.208880 -0.105754
N19   N     N_R   0.997810 0.443180 0.791120 -0.102495
N20   N     N_R   0.210550 0.556810 0.002910 -0.043625
Ni1   Ni    Ni4+2 0.869690 0.369690 0.000000 0.206615
Ni2   Ni    Ni4+2 0.130310 0.630310 0.000000 0.203137
Ni3   Ni    Ni4+2 0.001390 0.369680 0.869810 0.266627
Ni4   Ni    Ni4+2 0.998610 0.630320 0.130190 0.233815

loop_
_geom_bond_atom_site_label_1
_geom_bond_atom_site_label_2
_ccdc_geom_bond_type
C58   C62   A    
C65   F2    S    
C5    H11   S    
C56   C76   A    
C41   N17   A    
C45   C71   S    
N4    Ni2   S    
C14   C18   A    
C1    N1    A    
C67   C77   A    
C24   C27   A    
C36   H22   S    
C73   H14   S    
C55   H47   S    
C37   H24   S    
N1    Ni1   S    
C1    C84   A    
C15   C19   A    
C34   C51   S    
C22   H9    S    
C12   C85   A    
C26   C67   S    
N16   N20   A    
C35   C37   A    
C86   N9    T    
C24   C26   A    
C32   C61   A    
C12   H12   S    
C11   C14   A    
C66   C69   S    
C69   H31   S    
C68   C74   S    
C81   N6    A    
C40   H36   S    
C62   C89   A    
C33   C36   A    
C80   H42   S    
C59   C89   A    
N16   Ni3   S    
C69   C71   S    
N3    Ni1   S    
C74   H15   S    
C3    C55   A    
C50   C90   S    
C66   C72   S    
C29   C59   S    
C49   C51   A    
C22   C25   A    
C4    C57   A    
C50   C52   A    
C34   C81   A    
C10   H4    S    
C23   C80   A    
C31   H45   S    
C44   C47   A    
C61   C87   S    
N5    N14   A    
C9    H3    S    
C24   H10   S    
C82   N7    A    
C75   H38   S    
C76   N2    A    
C22   C28   A    
C49   C88   S    
C80   N5    A    
N5    Ni4   S    
C42   C44   A    
C32   C57   A    
C12   N12   A    
C35   C48   A    
C7    H52   S    
N8    Ni4   S    
C52   C54   A    
C81   H43   S    
C5    C29   A    
C2    H30   S    
C40   C45   A    
C79   H41   S    
C62   C85   S    
C46   C48   A    
C50   C53   A    
N6    N15   A    
C16   N14   A    
C25   C78   S    
C64   C67   A    
N8    N12   A    
C8    H2    S    
C21   H51   S    
C72   C74   S    
C71   C73   S    
C60   C86   S    
C78   C79   A    
C39   C43   A    
C44   H27   S    
C56   C72   S    
C66   C73   S    
C10   C13   A    
N15   Ni1   S    
C57   H48   S    
C75   N20   A    
C51   C53   A    
C77   H40   S    
C31   C60   A    
N19   Ni3   S    
C88   N11   T    
C41   C56   A    
C20   H50   S    
C38   C54   S    
C29   C60   A    
N12   Ni2   S    
C65   N19   A    
C70   C73   S    
C8    C21   A    
C87   N10   T    
C46   H28   S    
C69   C74   S    
C33   H20   S    
C9    C11   A    
C68   H35   S    
C32   H49   S    
N1    N7    A    
N18   Ni4   S    
N2    N17   A    
C64   N18   A    
C6    C30   A    
N2    Ni1   S    
C16   C23   A    
C82   C84   A    
C13   C15   A    
C33   C47   A    
C4    C6    A    
C18   H7    S    
C15   H6    S    
C2    C63   A    
N14   Ni2   S    
C14   H5    S    
C83   N8    A    
C7    C9    A    
C77   N3    A    
C65   C78   A    
C83   C85   A    
N4    N19   A    
C26   C28   A    
C40   N16   A    
C8    C10   A    
C3    C5    A    
N3    N18   A    
C17   H17   S    
C19   H8    S    
C2    C58   A    
C42   H25   S    
C38   C42   A    
C79   N4    A    
C25   C27   A    
C47   H18   S    
C59   C63   A    
C66   H33   S    
C4    H34   S    
C63   C84   S    
C45   C75   A    
C90   N13   T    
N20   Ni2   S    
C37   C39   A    
C3    H23   S    
C41   H37   S    
C23   C52   S    
C39   C53   S    
C89   H29   S    
C11   C28   S    
C68   C71   S    
N7    Ni3   S    
N6    Ni3   S    
C30   C58   S    
C36   C38   A    
C76   H39   S    
C6    H13   S    
C35   H21   S    
C18   C20   A    
C82   H44   S    
C17   N15   A    
C43   C46   A    
N17   Ni4   S    
C16   H16   S    
C43   H26   S    
C70   H32   S    
C48   H19   S    
C1    H1    S    
C7    C20   A    
C17   C34   A    
C30   C61   A    
C68   C70   S    
C13   C27   S    
C70   C72   S    
C64   F1    S    
C31   C55   A    
C83   H46   S    
C49   C54   A    
C19   C21   A    
