data_mof_unit_26800.cif
_audit_creation_date              2012-12-10T17:31:19-0500
_audit_creation_method            fapswitch 2.2
_symmetry_space_group_name_H-M    P1
_symmetry_Int_Tables_number       1
_space_group_crystal_system       triclinic
_cell_length_a                    19.25752
_cell_length_b                    18.733145
_cell_length_c                    12.417015
_cell_angle_alpha                 90.526633
_cell_angle_beta                  130.012166
_cell_angle_gamma                 89.573722
_cell_volume                      3430.72270208

loop_
_atom_site_label
_atom_site_type_symbol
_atom_type_description
_atom_site_fract_x
_atom_site_fract_y
_atom_site_fract_z
_atom_type_partial_charge
C1    C     C_R   0.613525 0.899380 0.654596 0.795138
C2    C     C_R   0.609956 0.102692 0.650635 0.795871
C3    C     C_R   0.107022 0.395398 0.646995 0.797594
C4    C     C_R   0.116266 0.597783 0.659484 0.787853
C5    C     C_R   0.241096 0.780332 0.030587 0.055063
C6    C     C_R   0.237658 0.222031 0.034193 0.041576
C7    C     C_R   0.752005 0.265359 0.055098 0.050532
C8    C     C_R   0.737747 0.717575 0.023974 0.047217
C9    C     C_R   0.679051 0.252485 0.054067 0.089876
C10   C     C_R   0.651451 0.712409 0.987882 0.070606
C11   C     C_R   0.151817 0.806252 0.961149 0.058954
C12   C     C_R   0.185013 0.254242 0.064361 0.093523
C13   C     C_R   0.600386 0.219279 0.937976 0.131518
C14   C     C_R   0.574788 0.742748 0.862396 0.133816
C15   C     C_R   0.078916 0.780843 0.825903 0.127811
C16   C     C_R   0.109702 0.295101 0.962181 0.114609
C17   C     C_R   0.595143 0.197549 0.826513 -0.213887
C18   C     C_R   0.585137 0.784124 0.781821 -0.210472
C19   C     C_R   0.093442 0.727967 0.763526 -0.205851
C20   C     C_R   0.094062 0.312339 0.840464 -0.216860
C21   C     C_R   0.312966 0.809807 0.162514 -0.259737
C22   C     C_R   0.305131 0.173535 0.132243 -0.261345
C23   C     C_R   0.823512 0.308037 0.162853 -0.269888
C24   C     C_R   0.812188 0.683470 0.146994 -0.264967
C25   C     C_R   0.210072 0.890062 0.154329 0.148757
C26   C     C_R   0.277145 0.198766 0.294715 0.130966
C27   C     C_R   0.756036 0.317997 0.273676 0.152415
C28   C     C_R   0.716822 0.641203 0.197213 0.159867
C29   C     C_R   0.672101 0.162293 0.735255 -0.097983
C30   C     C_R   0.681728 0.843657 0.745984 -0.108259
C31   C     C_R   0.192489 0.643752 0.767681 -0.088099
C32   C     C_R   0.155458 0.327300 0.716173 -0.101196
C33   C     C_R   0.678718 0.038825 0.284869 0.052713
C34   C     C_R   0.186073 0.513866 0.289245 0.053371
C35   C     C_R   0.344137 0.994290 0.627219 0.083397
C36   C     C_R   0.845718 0.514686 0.628426 0.063268
C37   C     C_R   0.310449 0.994297 0.698708 -0.259372
C38   C     C_R   0.818818 0.546226 0.698887 -0.251111
C39   C     C_R   0.387669 0.101343 0.347029 0.767259
C40   C     C_R   0.380241 0.905774 0.336161 0.779183
C41   C     C_R   0.881038 0.596348 0.338181 0.791632
C42   C     C_R   0.887470 0.398590 0.347356 0.766013
C43   C     C_R   0.369865 0.998537 0.845131 -0.173319
C44   C     C_R   0.881547 0.553945 0.844964 -0.168316
C45   C     C_R   0.463794 0.002060 0.921396 0.053609
C46   C     C_R   0.967494 0.522721 0.920948 0.056196
C47   C     C_R   0.494688 0.004757 0.843112 0.297780
C48   C     C_R   0.996579 0.506255 0.843084 0.302263
C49   C     C_R   0.527874 0.005059 0.072821 -0.024696
C50   C     C_R   0.028404 0.514187 0.071543 -0.018654
C51   C     C_R   0.617130 0.027151 0.139085 0.053444
C52   C     C_R   0.122241 0.513984 0.141911 0.045836
C53   C     C_R   0.646147 0.029118 0.060503 -0.196033
C54   C     C_R   0.151173 0.509703 0.063041 -0.196699
C55   C     C_R   0.587673 0.012625 0.918280 -0.180805
C56   C     C_R   0.089922 0.502183 0.918169 -0.172240
C57   C     C_R   0.510488 0.979144 0.161914 0.216092
C58   C     C_R   0.001518 0.499534 0.154155 0.197130
C59   C     C_R   0.653047 0.022251 0.365397 0.299650
C60   C     C_R   0.157026 0.504750 0.367311 0.305888
C61   C     C_R   0.685010 0.274866 0.167406 -0.157705
C62   C     C_R   0.643031 0.676198 0.076745 -0.180347
C63   C     C_R   0.137553 0.858803 0.026338 -0.172860
C64   C     C_R   0.207256 0.244196 0.194852 -0.161644
C65   C     C_R   0.299277 0.865535 0.222251 -0.062843
C66   C     C_R   0.323015 0.159147 0.259132 -0.086298
C67   C     C_R   0.822071 0.340298 0.262859 -0.068132
C68   C     C_R   0.802749 0.642630 0.230711 -0.072679
C69   C     C_R   0.740370 0.177018 0.728541 -0.164470
C70   C     C_R   0.763103 0.842922 0.768894 -0.144107
C71   C     C_R   0.280215 0.620839 0.829821 -0.127471
C72   C     C_R   0.202921 0.294438 0.678948 -0.164019
C73   C     C_R   0.354868 0.649807 0.956032 -0.120095
C74   C     C_R   0.254324 0.233696 0.748595 -0.107114
C75   C     C_R   0.814529 0.217475 0.832100 -0.117635
C76   C     C_R   0.835036 0.800168 0.872261 -0.125391
C77   C     C_R   0.343279 0.701184 0.024446 -0.172408
C78   C     C_R   0.267327 0.208756 0.865833 -0.141114
C79   C     C_R   0.821484 0.244705 0.943178 -0.168494
C80   C     C_R   0.828061 0.758559 0.956768 -0.184966
C81   C     C_R   0.749556 0.236820 0.946176 0.080972
C82   C     C_R   0.746688 0.756885 0.935988 0.095807
C83   C     C_R   0.255876 0.727573 0.963857 0.105448
C84   C     C_R   0.221775 0.240951 0.908596 0.085409
C85   C     C_R   0.671629 0.198577 0.835179 0.044060
C86   C     C_R   0.670851 0.795807 0.821639 0.038522
C87   C     C_R   0.180187 0.699646 0.831237 0.039258
C88   C     C_R   0.156768 0.294711 0.821274 0.051121
Cu1   Cu    Cu3+1 0.526340 0.000000 0.421010 0.957839
Cu2   Cu    Cu3+1 0.026340 0.500000 0.421010 0.954457
Cu3   Cu    Cu3+1 0.473640 0.000000 0.578990 0.931972
Cu4   Cu    Cu3+1 0.973640 0.500000 0.578990 0.928003
H1    H     H_    0.716136 0.038328 0.109235 0.191034
H2    H     H_    0.221905 0.507194 0.111809 0.187404
H3    H     H_    0.297815 0.990541 0.514443 0.136446
H4    H     H_    0.797492 0.508311 0.516532 0.129138
H5    H     H_    0.342019 0.000139 0.897925 0.149107
H6    H     H_    0.861175 0.580020 0.899065 0.163111
H7    H     H_    0.238103 0.991182 0.640303 0.160286
H8    H     H_    0.749761 0.564637 0.640562 0.156472
H9    H     H_    0.617950 0.006683 0.870803 0.206322
H10   H     H_    0.119077 0.496138 0.869194 0.204917
H11   H     H_    0.633482 0.259827 0.173261 0.172976
H12   H     H_    0.577864 0.673419 0.051386 0.160142
H13   H     H_    0.069973 0.878538 0.975386 0.175933
H14   H     H_    0.171204 0.272455 0.222010 0.178644
H15   H     H_    0.382171 0.793262 0.219772 0.138559
H16   H     H_    0.344429 0.145849 0.111196 0.168999
H17   H     H_    0.880394 0.318986 0.169173 0.151942
H18   H     H_    0.879320 0.687296 0.180592 0.157640
H19   H     H_    0.739041 0.154591 0.646864 0.187525
H20   H     H_    0.772310 0.876611 0.709242 0.201812
H21   H     H_    0.291344 0.576830 0.786890 0.181356
H22   H     H_    0.199585 0.315103 0.594540 0.175852
H23   H     H_    0.404525 0.718540 0.124542 0.123413
H24   H     H_    0.311642 0.163348 0.918281 0.144069
H25   H     H_    0.883822 0.271668 0.023941 0.161835
H26   H     H_    0.886919 0.727068 0.034624 0.130938
H27   H     H_    0.422172 0.630123 0.004274 0.151746
H28   H     H_    0.286862 0.207201 0.713954 0.172477
H29   H     H_    0.868611 0.224776 0.828638 0.185458
H30   H     H_    0.897899 0.800683 0.890218 0.172857
H31   H     H_    0.529682 0.180173 0.732747 0.182259
H32   H     H_    0.524323 0.805054 0.684406 0.190994
H33   H     H_    0.035951 0.710396 0.658729 0.172666
H34   H     H_    0.030198 0.337658 0.760964 0.201092
N1    N     N_R   0.566260 0.000000 0.302220 -0.232967
N2    N     N_R   0.066260 0.500000 0.302220 -0.239800
N3    N     N_R   0.434410 0.000000 0.697680 -0.203287
N4    N     N_R   0.934410 0.500000 0.697680 -0.206528
O1    O     O_R   0.608610 0.924520 0.551740 -0.552667
O2    O     O_R   0.608610 0.075480 0.551740 -0.556849
O3    O     O_R   0.108610 0.424520 0.551740 -0.551251
O4    O     O_R   0.108610 0.575480 0.551740 -0.540225
O5    O     O_R   0.564110 0.924510 0.685150 -0.593935
O6    O     O_R   0.564110 0.075490 0.685150 -0.608613
O7    O     O_R   0.064110 0.424510 0.685150 -0.617409
O8    O     O_R   0.064110 0.575490 0.685150 -0.590379
O9    O     O_R   0.435880 0.075470 0.314850 -0.577585
O10   O     O_R   0.435880 0.924530 0.314850 -0.606546
O11   O     O_R   0.935880 0.575470 0.314850 -0.593113
O12   O     O_R   0.935880 0.424530 0.314850 -0.616131
O13   O     O_R   0.391380 0.075460 0.448260 -0.595610
O14   O     O_R   0.391380 0.924540 0.448260 -0.575250
O15   O     O_R   0.891380 0.575460 0.448260 -0.576360
O16   O     O_R   0.891380 0.424540 0.448260 -0.588340
C89   C     C_3   0.188445 0.952704 0.206223 -0.430584
C90   C     C_3   0.146371 0.927255 0.269476 -0.803379
H35   H     H_    0.081744 0.898654 0.189166 0.257210
H36   H     H_    0.193842 0.890868 0.359066 0.265242
H37   H     H_    0.131706 0.973894 0.307924 0.233216
H38   H     H_    0.248604 0.985746 0.283769 0.208658
H39   H     H_    0.139865 0.988965 0.116904 0.212461
C91   C     C_3   0.298356 0.195553 0.435219 -0.366183
C92   C     C_3   0.232091 0.146137 0.426216 -0.798156
H40   H     H_    0.226232 0.094570 0.376486 0.251661
H41   H     H_    0.163879 0.171237 0.362488 0.247667
H42   H     H_    0.255998 0.135678 0.533010 0.239964
H43   H     H_    0.369426 0.180084 0.522179 0.223504
H44   H     H_    0.292286 0.249831 0.465626 0.202533
C93   C     C_3   0.757776 0.336472 0.394883 -0.392781
C94   C     C_3   0.833933 0.296822 0.528399 -0.725621
H45   H     H_    0.816554 0.239398 0.517798 0.263024
H46   H     H_    0.898612 0.301231 0.548115 0.252071
H47   H     H_    0.843007 0.319334 0.619782 0.241846
H48   H     H_    0.762047 0.394566 0.413014 0.211089
H49   H     H_    0.693242 0.321188 0.370404 0.192407
C95   C     C_3   0.697029 0.599854 0.278245 -0.403432
C96   C     C_3   0.676453 0.521963 0.230228 -0.829384
H50   H     H_    0.736529 0.495604 0.253706 0.250552
H51   H     H_    0.619133 0.518638 0.115189 0.266958
H52   H     H_    0.656498 0.493253 0.284384 0.227113
H53   H     H_    0.752383 0.606397 0.392358 0.221524
H54   H     H_    0.636615 0.622355 0.260004 0.191772
I1    I     I_    0.809133 0.085809 0.382826 -0.368389
I2    I     I_    0.327890 0.531100 0.394991 -0.329893
C97   C     C_3   0.463719 0.906822 0.124773 -0.368483
C98   C     C_3   0.478590 0.855249 0.044171 -0.840186
H55   H     H_    0.549489 0.858073 0.084938 0.264184
H56   H     H_    0.466247 0.799651 0.057667 0.248649
H57   H     H_    0.430650 0.865978 0.929885 0.284754
H58   H     H_    0.496543 0.877760 0.224253 0.246217
H59   H     H_    0.390240 0.913320 0.068305 0.206840
C99   C     C_3   0.911253 0.463114 0.089450 -0.313319
C100  C     C_3   0.836059 0.439981 0.936030 -0.881869
H60   H     H_    0.861777 0.420235 0.883450 0.297851
H61   H     H_    0.797669 0.395218 0.933788 0.249340
H62   H     H_    0.784291 0.482414 0.874998 0.255893
H63   H     H_    0.935868 0.410189 0.138687 0.241255
H64   H     H_    0.876557 0.493768 0.119289 0.240653
I3    I     I_    0.484376 0.201579 0.918622 -0.488324
I4    I     I_    0.438990 0.726879 0.779790 -0.404658
I5    I     I_    0.944423 0.821918 0.700257 -0.410708
I6    I     I_    0.013879 0.330521 0.981074 -0.563532
I7    I     I_    0.761287 0.009250 0.585606 -0.316544
I8    I     I_    0.260956 0.484452 0.585608 -0.304835

loop_
_geom_bond_atom_site_label_1
_geom_bond_atom_site_label_2
_ccdc_geom_bond_type
C83   C87   A    
C58   N2    A    
C73   H27   S    
C92   H41   S    
C96   H50   S    
C14   C18   A    
C53   C55   A    
Cu4   N4    S    
C89   C90   S    
C90   H37   S    
C48   C56   A    
Cu4   O8    S    
C39   C66   S    
C93   C94   S    
C32   C72   A    
C95   H54   S    
C18   C86   A    
Cu1   O2    S    
C47   N3    A    
C2    C29   S    
C9    C61   A    
C4    O4    A    
C28   C68   A    
C90   H36   S    
C5    C11   A    
C19   C87   A    
C6    C12   A    
C59   I7    S    
Cu2   O4    S    
C22   H16   S    
C100  H61   S    
C93   H49   S    
C77   C83   A    
C59   N1    A    
C97   H58   S    
C6    C22   A    
C72   H22   S    
C49   C57   A    
C99   C100  S    
C71   H21   S    
C58   C99   S    
C25   C63   A    
C23   C67   A    
C29   C69   A    
C9    C13   A    
C22   C66   A    
C26   C64   A    
C27   C61   A    
C44   H6    S    
C17   H31   S    
Cu3   O13   S    
Cu3   O6    S    
C12   C16   A    
C52   C54   A    
Cu1   O9    S    
C42   O12   A    
C50   C52   A    
C69   C75   A    
C3    O7    A    
C30   C86   A    
C35   N3    A    
C29   C85   A    
C93   H48   S    
C14   I4    S    
C31   C71   A    
C33   C59   A    
C92   H42   S    
C34   C60   A    
C96   H51   S    
C48   N4    A    
C10   C62   A    
C11   C15   A    
C24   H18   S    
C89   H39   S    
Cu4   O7    S    
C28   C62   A    
C21   C65   A    
C30   C70   A    
C44   C46   A    
C98   H55   S    
C41   C68   S    
C94   H46   S    
C45   C47   A    
C95   H53   S    
C23   H17   S    
C54   C56   A    
C6    C84   A    
C91   H44   S    
C53   H1    S    
C98   H57   S    
C43   H5    S    
C60   N2    A    
C31   C87   A    
C90   H35   S    
C72   C74   A    
C10   C14   A    
C80   H26   S    
C79   C81   A    
Cu2   O3    S    
C24   C68   A    
C100  H62   S    
C49   C51   A    
C97   H59   S    
Cu4   O16   S    
C19   H33   S    
C62   H12   S    
C2    O6    A    
C33   C51   A    
C3    O3    A    
C5    C21   A    
C26   C66   A    
C37   C43   A    
C15   C19   A    
C34   I2    S    
C38   C44   A    
C36   N4    A    
C94   H47   S    
C39   O9    A    
C36   H4    S    
C2    O2    A    
C45   C49   A    
C16   C20   A    
Cu1   O10   S    
C20   C88   A    
C50   C58   A    
C41   O15   A    
C25   C89   S    
C27   C67   A    
C21   H15   S    
C43   C45   A    
C91   C92   S    
Cu2   O12   S    
C70   H20   S    
C80   C82   A    
C95   C96   S    
C7    C81   A    
C39   O13   A    
C97   C98   S    
C40   C65   S    
C40   O14   A    
C70   C76   A    
C42   C67   S    
C96   H52   S    
C17   C85   A    
C26   C91   S    
C63   H13   S    
C42   O16   A    
C37   H7    S    
C60   I8    S    
C47   C55   A    
Cu3   O14   S    
Cu1   N1    S    
C35   C37   A    
C7    C9    A    
C12   C64   A    
C46   C50   A    
C73   C77   A    
C61   H11   S    
Cu4   O15   S    
C75   H29   S    
C78   H24   S    
C76   C80   A    
C1    O1    A    
Cu1   O1    S    
C57   N1    A    
C98   H56   S    
C5    C83   A    
C64   H14   S    
Cu3   N3    S    
C35   H3    S    
C94   H45   S    
C74   H28   S    
C41   O11   A    
C55   H9    S    
C34   C52   A    
C13   I3    S    
C13   C17   A    
C76   H30   S    
C36   C38   A    
Cu2   Cu4   S    
C1    O5    A    
C56   H10   S    
C91   H43   S    
C82   C86   A    
C27   C93   S    
C57   C97   S    
C69   H19   S    
C38   H8    S    
C100  H60   S    
C84   C88   A    
C7    C23   A    
Cu2   O11   S    
C79   H25   S    
C1    C30   S    
C8    C24   A    
C20   H34   S    
C89   H38   S    
C99   H64   S    
C3    C32   S    
C33   I1    S    
C54   H2    S    
C4    C31   S    
C16   I6    S    
C28   C95   S    
C4    O8    A    
C15   I5    S    
C46   C48   A    
C78   C84   A    
C8    C82   A    
Cu3   O5    S    
C8    C10   A    
Cu1   Cu3   S    
C74   C78   A    
C71   C73   A    
C92   H40   S    
C25   C65   A    
Cu2   N2    S    
C99   H63   S    
C51   C53   A    
C77   H23   S    
C11   C63   A    
C75   C79   A    
C40   O10   A    
C81   C85   A    
C18   H32   S    
C32   C88   A    
