data_mof_unit_47511.cif
_audit_creation_date              2013-03-05T15:41:49-0500
_audit_creation_method            fapswitch 2.2
_symmetry_space_group_name_H-M    P1
_symmetry_Int_Tables_number       1
_space_group_crystal_system       triclinic
_cell_length_a                    7.785436
_cell_length_b                    8.567742
_cell_length_c                    10.505706
_cell_angle_alpha                 91.128938
_cell_angle_beta                  85.687963
_cell_angle_gamma                 93.722368
_cell_volume                      697.233316074

loop_
_atom_site_label
_atom_site_type_symbol
_atom_site_description
_atom_site_fract_x
_atom_site_fract_y
_atom_site_fract_z
_atom_type_partial_charge
O1    O     O_R   0.389250 0.738570 0.508410 -0.599426
O2    O     O_R   0.610750 0.261430 0.491590 -0.599426
O3    O     O_R   0.678390 0.711620 0.486450 -0.637548
O4    O     O_R   0.321610 0.288380 0.513550 -0.637548
C1    C     C_R   0.545765 0.794668 0.496529 0.985430
C2    C     C_R   0.454235 0.205332 0.503471 0.985430
O5    O     O_R   0.355460 0.513510 0.697030 -0.600076
O6    O     O_R   0.644540 0.486490 0.302970 -0.600075
O7    O     O_R   0.644600 0.486560 0.675070 -0.634757
O8    O     O_R   0.355400 0.513440 0.324930 -0.634758
C3    C     C_R   0.502195 0.502262 0.742175 0.961976
C4    C     C_R   0.497805 0.497737 0.257825 0.961977
Zn1   Zn    Zn3+2 0.306940 0.517990 0.514670 0.993898
Zn2   Zn    Zn3+2 0.693060 0.482010 0.485330 0.993898
N1    N     N_2   0.950320 0.457950 0.465730 -0.171610
N2    N     N_2   0.049680 0.542050 0.534270 -0.171611
C5    C     C_3   0.447465 0.634572 0.965885 0.376874
C6    C     C_3   0.552535 0.365428 0.034115 0.376874
C7    C     C_3   0.605750 0.618558 0.041831 -0.252646
C8    C     C_3   0.394250 0.381441 0.958169 -0.252646
H1    H     H_    0.688915 0.716568 0.079223 0.204778
H2    H     H_    0.311085 0.283432 0.920777 0.204778
C9    C     C_3   0.495370 0.497180 0.123437 -0.143576
C10   C     C_3   0.504629 0.502819 0.876563 -0.143577
C11   C     C_3   0.335681 0.516512 0.049112 -0.254835
C12   C     C_3   0.664319 0.483487 0.950888 -0.254835
H3    H     H_    0.202768 0.532013 0.091513 0.190352
H4    H     H_    0.797232 0.467986 0.908487 0.190352
H5    H     H_    0.013450 0.382377 0.403899 0.204666
H6    H     H_    0.986549 0.617623 0.596101 0.204666
C13   C     C_2   0.569787 0.958244 0.494567 -0.285882
C14   C     C_2   0.430213 0.041756 0.505433 -0.285883
H7    H     H_    0.701568 0.009398 0.484187 0.180136
H8    H     H_    0.298432 0.990602 0.515813 0.180136
N3    N     N_R   0.390322 0.785089 0.929524 0.225472
O9    O     O_R   0.336583 0.882899 0.017625 -0.342134
O10   O     O_R   0.398746 0.825350 0.810445 -0.401090
N4    N     N_R   0.609678 0.214910 0.070475 0.225471
O11   O     O_R   0.663418 0.117099 0.982374 -0.342133
O12   O     O_R   0.601255 0.174651 0.189556 -0.401091

loop_
_geom_bond_atom_site_label_1
_geom_bond_atom_site_label_2
_geom_bond_distance
_ccdc_geom_bond_type
C7    C9    1.537289 S    
O7    Zn2   2.000768 S    
C13   H7    1.087784 S    
C7    H1    1.110556 S    
C11   H3    1.110421 S    
C2    C14   1.402171 S    
C13   C14   1.335984 D    
C6    C12   1.533355 S    
O6    C4    1.279401 A    
C5    C11   1.533356 S    
C6    N4    1.458201 S    
O5    C3    1.279401 A    
O7    C3    1.281552 A    
C4    C9    1.413307 S    
O2    C2    1.278617 A    
O3    Zn2   1.977694 S    
O8    C4    1.281552 A    
O1    C1    1.278617 A    
N4    O12   1.300027 A    
C10   C12   1.536433 S    
N1    H5    1.029323 S    
C6    C8    1.532360 S    
C9    C11   1.536433 S    
N4    O11   1.300277 A    
O2    Zn2   1.956503 S    
C1    C13   1.402171 S    
C5    C10   1.521044 S    
O1    Zn1   1.956503 S    
C8    C11   1.555452 S    
N2    H6    1.029322 S    
C6    C9    1.521043 S    
C8    C10   1.537289 S    
C3    C10   1.413308 S    
O5    Zn1   1.981956 S    
O4    C2    1.288265 A    
Zn1   N2    2.021471 S    
O4    Zn1   1.977694 S    
C7    C12   1.555452 S    
Zn2   N1    2.021471 S    
C5    C7    1.532360 S    
O6    Zn2   1.981954 S    
N3    O9    1.300270 A    
C5    N3    1.458201 S    
N3    O10   1.300024 A    
C12   H4    1.110421 S    
N1    N2    1.275546 D    
C8    H2    1.110556 S    
O3    C1    1.288265 A    
O8    Zn1   2.000768 S    
C14   H8    1.087784 S    
