data_mof_unit_5345.cif
_audit_creation_date              2012-10-26T19:46:05-0400
_audit_creation_method            fapswitch 2.2
_symmetry_space_group_name_H-M    P1
_symmetry_Int_Tables_number       1
_space_group_crystal_system       triclinic
_cell_length_a                    10.832493
_cell_length_b                    9.610314
_cell_length_c                    15.890001
_cell_angle_alpha                 90.002732
_cell_angle_beta                  92.871051
_cell_angle_gamma                 90.002345
_cell_volume                      1652.13087022

loop_
_atom_site_label
_atom_site_type_symbol
_atom_type_description
_atom_site_fract_x
_atom_site_fract_y
_atom_site_fract_z
_atom_type_partial_charge
C1    C     C_R   0.262319 0.499998 0.499797 0.548556
C2    C     C_R   0.936132 0.626419 0.500241 -0.145128
C3    C     C_R   0.871666 0.500001 0.500220 0.018931
C4    C     C_R   0.128316 0.499997 0.499907 0.018515
C5    C     C_R   0.421868 0.073945 0.446580 -0.007161
C6    C     C_R   0.421867 0.926041 0.446580 -0.007167
C7    C     C_R   0.499579 0.499990 0.340389 0.552736
C8    C     C_R   0.579598 0.925530 0.554467 0.145246
C9    C     C_R   0.579600 0.074484 0.554465 0.145254
C10   C     C_R   0.737680 0.500001 0.500182 0.534694
C11   C     C_R   0.500298 0.499998 0.659639 0.538293
C12   C     C_3   0.626307 0.524224 0.956522 -0.231712
C13   C     C_3   0.409427 0.625557 0.044477 0.059025
C14   C     C_3   0.446196 0.350010 0.045839 0.058501
C15   C     C_3   0.446634 0.356315 0.946999 -0.177173
C16   C     C_3   0.406105 0.614441 0.945832 -0.176148
C17   C     C_1   0.499220 0.499927 0.749229 -0.040956
C18   C     C_3   0.491137 0.498596 0.082460 0.132800
C19   C     C_3   0.494503 0.498880 0.916776 0.031450
C20   C     C_3   0.670343 0.853861 0.616749 -0.338246
C21   C     C_3   0.670363 0.146167 0.616739 -0.338254
C22   C     C_3   0.275209 0.628991 0.075632 -0.390282
C23   C     C_3   0.625757 0.521478 0.053864 -0.227495
C24   C     C_3   0.315511 0.306831 0.073690 -0.387943
C25   C     C_3   0.534894 0.230395 0.077169 -0.395419
C26   C     C_3   0.466769 0.769442 0.070761 -0.396113
C27   C     C_1   0.497523 0.499599 0.824683 -0.087332
C28   C     C_1   0.495198 0.499451 0.175150 -0.078261
C29   C     C_1   0.497747 0.499880 0.250729 -0.054379
C30   C     C_R   0.063844 0.373575 0.499882 -0.143068
C31   C     C_R   0.063870 0.626421 0.500085 -0.143020
C32   C     C_R   0.936106 0.373582 0.500039 -0.145177
Cu1   Cu    Cu3+1 0.500020 0.640660 0.500000 0.920447
Cu2   Cu    Cu3+1 0.500020 0.359340 0.500000 0.920254
H1    H     H_    0.311151 0.591452 0.919482 0.105576
H2    H     H_    0.111839 0.725321 0.500066 0.127686
H3    H     H_    0.888146 0.274695 0.499880 0.127733
H4    H     H_    0.888193 0.725307 0.500247 0.127700
H5    H     H_    0.358749 0.129062 0.403480 0.107858
H6    H     H_    0.358748 0.870912 0.403481 0.107871
H7    H     H_    0.672539 0.741548 0.617632 0.197794
H8    H     H_    0.766354 0.884144 0.603851 0.079474
H9    H     H_    0.650022 0.883362 0.682109 0.088729
H10   H     H_    0.672539 0.258480 0.617640 0.197797
H11   H     H_    0.650082 0.116644 0.682100 0.088549
H12   H     H_    0.352906 0.337723 0.917240 0.105378
H13   H     H_    0.766369 0.115916 0.603810 0.079558
H14   H     H_    0.211483 0.558308 0.040518 0.111599
H15   H     H_    0.273242 0.606333 0.143999 0.134206
H16   H     H_    0.231942 0.732802 0.065238 0.115971
H17   H     H_    0.299533 0.341166 0.138889 0.135207
H18   H     H_    0.240082 0.345205 0.030532 0.108763
H19   H     H_    0.302598 0.192143 0.072211 0.115395
H20   H     H_    0.497892 0.126960 0.057285 0.113031
H21   H     H_    0.626655 0.236101 0.049536 0.112879
H22   H     H_    0.547435 0.229965 0.146946 0.142278
H23   H     H_    0.505303 0.272409 0.921706 0.110627
H24   H     H_    0.404120 0.856583 0.051399 0.111600
H25   H     H_    0.484507 0.775974 0.140084 0.139622
H26   H     H_    0.553651 0.791653 0.039275 0.113777
H27   H     H_    0.431620 0.715237 0.916745 0.111924
H28   H     H_    0.667587 0.618185 0.080546 0.109040
H29   H     H_    0.690599 0.441177 0.079564 0.108794
H30   H     H_    0.661576 0.626647 0.935554 0.113362
H31   H     H_    0.690610 0.442865 0.934875 0.112409
H32   H     H_    0.111792 0.274674 0.499694 0.127635
N1    N     N_R   0.500030 0.852070 0.500020 -0.222948
N2    N     N_R   0.500030 0.147930 0.500020 -0.222959
O1    O     O_R   0.319660 0.618740 0.500000 -0.505527
O2    O     O_R   0.319660 0.381260 0.500000 -0.505512
O3    O     O_R   0.500020 0.618840 0.379440 -0.493526
O4    O     O_R   0.500020 0.381160 0.379440 -0.493724
O5    O     O_R   0.680370 0.618830 0.500010 -0.520687
O6    O     O_R   0.680370 0.381170 0.500010 -0.520759
O7    O     O_R   0.500010 0.618730 0.620560 -0.509199
O8    O     O_R   0.500010 0.381270 0.620560 -0.509248

loop_
_geom_bond_atom_site_label_1
_geom_bond_atom_site_label_2
_ccdc_geom_bond_type
C24   H18   S    
C22   H14   S    
C7    C29   S    
C14   C18   S    
C25   H22   S    
C20   H7    S    
C15   C19   S    
C12   C23   S    
C8    C20   S    
C13   C18   S    
C28   C29   T    
C11   O8    A    
C16   H1    S    
C7    O3    A    
C5    C6    A    
C12   H30   S    
C10   O5    A    
C14   C24   S    
Cu1   O7    S    
C23   H28   S    
C8    C9    A    
C19   C27   S    
C26   H25   S    
Cu2   O2    S    
Cu1   O1    S    
C22   H16   S    
C24   H17   S    
C23   H29   S    
C15   H23   S    
C5    N2    A    
C21   H11   S    
C18   C23   S    
C17   C27   T    
C18   C28   S    
C25   H20   S    
Cu2   N2    S    
C7    O4    A    
C24   H19   S    
C1    O1    A    
C2    C31   A    
C21   H10   S    
C2    H4    S    
Cu1   Cu2   S    
C32   H3    S    
C26   H24   S    
C30   H32   S    
Cu2   O6    S    
C22   H15   S    
Cu1   O5    S    
C6    N1    A    
C5    H5    S    
C6    H6    S    
C13   C26   S    
C16   H27   S    
Cu2   O4    S    
C20   H9    S    
Cu1   N1    S    
C11   C17   S    
C14   C15   S    
C25   H21   S    
C20   H8    S    
C12   H31   S    
C1    O2    A    
C1    C4    S    
C2    C3    A    
C9    N2    A    
C3    C10   S    
C11   O7    A    
C30   C32   A    
C10   O6    A    
C9    C21   S    
C16   C19   S    
C12   C19   S    
C13   C22   S    
C14   C25   S    
C3    C32   A    
C4    C31   A    
Cu1   O3    S    
C8    N1    A    
C13   C16   S    
C31   H2    S    
C15   H12   S    
C26   H26   S    
C4    C30   A    
Cu2   O8    S    
C21   H13   S    
