data_mof_unit_24377.cif
_audit_creation_date              2012-12-10T20:06:26-0500
_audit_creation_method            fapswitch 2.2
_symmetry_space_group_name_H-M    P1
_symmetry_Int_Tables_number       1
_space_group_crystal_system       triclinic
_cell_length_a                    19.173284
_cell_length_b                    18.470973
_cell_length_c                    10.623622
_cell_angle_alpha                 89.735287
_cell_angle_beta                  90.220848
_cell_angle_gamma                 89.962854
_cell_volume                      3762.27841206

loop_
_atom_site_label
_atom_site_type_symbol
_atom_type_description
_atom_site_fract_x
_atom_site_fract_y
_atom_site_fract_z
_atom_type_partial_charge
C1    C     C_R   0.365896 0.499989 0.500707 1.020826
C2    C     C_R   0.291456 0.499782 0.516787 -0.234685
C3    C     C_R   0.965689 0.563556 0.623287 0.343847
C4    C     C_R   0.038518 0.564098 0.609492 0.314161
C5    C     C_R   0.072440 0.501066 0.565236 -0.225201
C6    C     C_R   0.927701 0.503491 0.580402 -0.214751
C7    C     C_R   0.033806 0.438898 0.533557 0.307662
C8    C     C_R   0.961365 0.441825 0.533589 0.307284
C9    C     C_R   0.545229 0.726058 0.575628 0.014196
C10   C     C_R   0.454492 0.725942 0.424127 0.013794
C11   C     C_R   0.546274 0.802090 0.575812 -0.282763
C12   C     C_R   0.634464 0.500101 0.504465 0.937642
C13   C     C_R   0.453351 0.801934 0.422268 -0.279994
C14   C     C_R   0.499777 0.841387 0.498574 0.148634
C15   C     C_R   0.501764 0.500183 0.260173 0.878927
C16   C     C_R   0.501247 0.499995 0.739680 0.908347
C17   C     C_R   0.436613 0.961598 0.493028 -0.239313
C18   C     C_R   0.562287 0.961873 0.501209 -0.239231
C19   C     C_R   0.435451 0.037970 0.492451 0.120394
C20   C     C_R   0.562991 0.038255 0.500119 0.118926
C21   C     C_R   0.499096 0.077357 0.496111 0.198461
C22   C     C_R   0.499564 0.922728 0.497679 0.072020
C23   C     C_R   0.852092 0.507257 0.572665 0.158730
C24   C     C_R   0.508865 0.196232 0.611106 0.317990
C25   C     C_R   0.488909 0.198267 0.385081 0.321071
C26   C     C_R   0.507802 0.272977 0.609831 -0.118453
C27   C     C_R   0.491345 0.274847 0.389102 -0.144988
C28   C     C_R   0.498904 0.158748 0.497347 -0.079034
C29   C     C_R   0.620141 0.562977 0.130273 -0.165167
C30   C     C_R   0.618611 0.565453 0.868087 -0.187490
C31   C     C_R   0.675566 0.593866 0.064479 -0.109869
C32   C     C_R   0.674573 0.595545 0.933581 -0.194226
C33   C     C_R   0.562065 0.533739 0.933557 0.102064
C34   C     C_R   0.148139 0.499430 0.550475 0.086389
C35   C     C_R   0.562604 0.533096 0.065325 0.070749
C36   C     C_R   0.505974 0.500479 0.127911 -0.096496
C37   C     C_R   0.505578 0.500284 0.871571 -0.119179
C38   C     C_R   0.451574 0.467044 0.064079 -0.226277
C39   C     C_R   0.451580 0.466398 0.935598 -0.198021
C40   C     C_R   0.739335 0.453647 0.616400 0.379529
C41   C     C_R   0.248501 0.473185 0.420614 0.361549
C42   C     C_R   0.811619 0.456497 0.636417 -0.218352
C43   C     C_R   0.176420 0.477572 0.435477 -0.243800
C44   C     C_3   0.365237 0.075597 0.490480 -0.437497
C45   C     C_R   0.821684 0.555757 0.487928 -0.297796
C46   C     C_3   0.340419 0.092102 0.624253 -0.319361
C47   C     C_3   0.271347 0.133199 0.622267 -0.908855
C48   C     C_3   0.632989 0.076245 0.500614 -0.435128
C49   C     C_3   0.656368 0.094365 0.366318 -0.327974
C50   C     C_3   0.725533 0.135208 0.366585 -0.885471
C51   C     C_3   0.568481 0.182167 0.799939 0.079074
C52   C     C_3   0.594986 0.120622 0.882803 -0.807620
C53   C     C_3   0.427148 0.189146 0.197742 0.079253
C54   C     C_3   0.399442 0.130239 0.111522 -0.806677
C55   C     C_3   0.712616 0.400310 0.808408 0.098210
C56   C     C_R   0.191752 0.520387 0.649478 -0.235038
C57   C     C_3   0.652843 0.363938 0.877637 -0.827533
C58   C     C_3   0.258794 0.374381 0.293156 0.153420
C59   C     C_3   0.301860 0.342104 0.187580 -0.889551
C60   C     C_3   0.721989 0.672773 0.426259 0.111635
C61   C     C_3   0.676802 0.720996 0.342858 -0.817307
C62   C     C_3   0.298562 0.617649 0.756476 0.115683
C63   C     C_3   0.353297 0.640927 0.852085 -0.796559
C64   C     C_3   0.928377 0.682482 0.629746 0.176521
C65   C     C_3   0.862939 0.722454 0.670669 -0.898498
C66   C     C_3   0.097244 0.664712 0.542680 0.087804
C67   C     C_R   0.750059 0.554839 0.467298 0.384849
C68   C     C_3   0.133198 0.733464 0.586894 -0.852498
C69   C     C_3   0.081230 0.333011 0.601143 0.161310
C70   C     C_3   0.122625 0.266906 0.560633 -0.860021
C71   C     C_3   0.913166 0.386166 0.363933 0.149773
C72   C     C_3   0.861303 0.328174 0.324591 -0.825046
C73   C     C_R   0.263661 0.524119 0.631240 0.361462
C74   C     C_R   0.709389 0.501215 0.526560 -0.242460
H1    H     H_    0.408463 0.442806 0.114169 0.179616
H2    H     H_    0.486384 0.305871 0.303273 0.149591
H3    H     H_    0.623152 0.561617 0.231675 0.193565
H4    H     H_    0.621152 0.565790 0.766497 0.140849
H5    H     H_    0.719735 0.615929 0.114991 0.174412
H6    H     H_    0.717843 0.619026 0.882526 0.145233
H7    H     H_    0.837245 0.417925 0.698024 0.155241
H8    H     H_    0.142357 0.463552 0.357788 0.173690
H9    H     H_    0.853927 0.592155 0.433310 0.140525
H10   H     H_    0.169865 0.534228 0.740057 0.187541
H11   H     H_    0.277456 0.185750 0.572205 0.262467
H12   H     H_    0.408620 0.441056 0.885789 0.178893
H13   H     H_    0.230396 0.100711 0.574551 0.264876
H14   H     H_    0.254464 0.144095 0.720234 0.252451
H15   H     H_    0.333590 0.040609 0.677384 0.224218
H16   H     H_    0.379771 0.125459 0.674232 0.259997
H17   H     H_    0.367635 0.126255 0.434460 0.212262
H18   H     H_    0.325968 0.040741 0.442903 0.194340
H19   H     H_    0.720165 0.187141 0.418039 0.271929
H20   H     H_    0.766938 0.101936 0.411948 0.260946
H21   H     H_    0.741274 0.147292 0.268230 0.250747
H22   H     H_    0.662513 0.043513 0.311857 0.223953
H23   H     H_    0.580789 0.696202 0.635790 0.119741
H24   H     H_    0.616546 0.128427 0.318429 0.260580
H25   H     H_    0.630812 0.126227 0.557742 0.214312
H26   H     H_    0.672970 0.041061 0.546155 0.194197
H27   H     H_    0.547915 0.225586 0.861720 0.154383
H28   H     H_    0.613754 0.202893 0.744873 0.135970
H29   H     H_    0.616742 0.076834 0.823292 0.247807
H30   H     H_    0.636552 0.140832 0.946671 0.207286
H31   H     H_    0.551806 0.098320 0.940335 0.262352
H32   H     H_    0.447457 0.234061 0.138304 0.153251
H33   H     H_    0.382531 0.208893 0.255211 0.126950
H34   H     H_    0.418973 0.695997 0.364588 0.130735
H35   H     H_    0.378374 0.084743 0.168558 0.247085
H36   H     H_    0.357100 0.152454 0.051037 0.206282
H37   H     H_    0.441828 0.109689 0.050516 0.263027
H38   H     H_    0.719913 0.455395 0.848493 0.147621
H39   H     H_    0.760178 0.367391 0.826356 0.141095
H40   H     H_    0.652765 0.305323 0.856580 0.227129
H41   H     H_    0.659362 0.371069 0.980760 0.215444
H42   H     H_    0.602273 0.387621 0.848023 0.267035
H43   H     H_    0.202874 0.369677 0.266271 0.152167
H44   H     H_    0.268868 0.341808 0.380064 0.135046
H45   H     H_    0.582507 0.829854 0.637266 0.136352
H46   H     H_    0.357796 0.341533 0.214844 0.240965
H47   H     H_    0.284702 0.285679 0.169558 0.205410
H48   H     H_    0.294913 0.374361 0.099934 0.265470
H49   H     H_    0.776071 0.694510 0.424987 0.137940
H50   H     H_    0.701026 0.675408 0.523941 0.135198
H51   H     H_    0.623196 0.698575 0.336221 0.275312
H52   H     H_    0.674117 0.776275 0.383245 0.203975
H53   H     H_    0.699380 0.724588 0.246996 0.239089
H54   H     H_    0.246303 0.627457 0.798245 0.149704
H55   H     H_    0.304726 0.651781 0.670359 0.142705
H56   H     H_    0.417093 0.829562 0.360157 0.136311
H57   H     H_    0.406242 0.635364 0.811543 0.272387
H58   H     H_    0.344844 0.698441 0.877913 0.197883
H59   H     H_    0.349634 0.606887 0.938283 0.262716
H60   H     H_    0.926648 0.676689 0.525406 0.081623
H61   H     H_    0.973936 0.716220 0.656118 0.184684
H62   H     H_    0.865867 0.734687 0.772816 0.263375
H63   H     H_    0.857863 0.774019 0.617256 0.204297
H64   H     H_    0.816177 0.688577 0.652873 0.246117
H65   H     H_    0.051868 0.680250 0.482712 0.104091
H66   H     H_    0.134901 0.634387 0.483769 0.155980
H67   H     H_    0.387711 0.932237 0.492447 0.138120
H68   H     H_    0.179797 0.719511 0.644475 0.245134
H69   H     H_    0.149984 0.766025 0.504284 0.207571
H70   H     H_    0.096875 0.766304 0.644435 0.250887
H71   H     H_    0.031915 0.314286 0.645792 0.159474
H72   H     H_    0.113036 0.363033 0.671776 0.131742
H73   H     H_    0.172642 0.284070 0.517437 0.242627
H74   H     H_    0.134038 0.232112 0.643716 0.211739
H75   H     H_    0.092191 0.235126 0.490997 0.262276
H76   H     H_    0.963264 0.376455 0.314139 0.164199
H77   H     H_    0.891617 0.439716 0.334268 0.123312
H78   H     H_    0.611334 0.932697 0.502239 0.135480
H79   H     H_    0.810545 0.337221 0.372148 0.263714
H80   H     H_    0.853101 0.330412 0.221114 0.198769
H81   H     H_    0.881457 0.273738 0.350767 0.259504
H82   H     H_    0.512920 0.302625 0.696708 0.150679
N1    N     N_R   0.500000 0.689440 0.500000 -0.096513
N2    N     N_R   0.500000 0.310560 0.500000 -0.114453
O1    O     O_R   0.398180 0.560840 0.499970 -0.623424
O2    O     O_3   0.481523 0.160325 0.273024 -0.616686
O3    O     O_3   0.697417 0.403138 0.677884 -0.588814
O4    O     O_3   0.277662 0.447758 0.310003 -0.617633
O5    O     O_3   0.720474 0.601300 0.379470 -0.626581
O6    O     O_3   0.307925 0.543563 0.728838 -0.616196
O7    O     O_3   0.931722 0.615567 0.694311 -0.572029
O8    O     O_3   0.076199 0.623851 0.648998 -0.590221
O9    O     O_3   0.066703 0.376279 0.494395 -0.600540
O10   O     O_3   0.923185 0.382216 0.495499 -0.582570
O11   O     O_R   0.601820 0.560840 0.500030 -0.626452
O12   O     O_R   0.398180 0.439210 0.499910 -0.607163
O13   O     O_R   0.601820 0.439210 0.500090 -0.565972
O14   O     O_R   0.500000 0.560830 0.316760 -0.627492
O15   O     O_R   0.500000 0.560830 0.683240 -0.632018
O16   O     O_R   0.500000 0.439200 0.316700 -0.630831
O17   O     O_R   0.500000 0.439200 0.683300 -0.628550
O18   O     O_3   0.514427 0.156073 0.721737 -0.619074
Zn1   Zn    Zn3+2 0.500000 0.581210 0.500000 0.943902
Zn2   Zn    Zn3+2 0.500000 0.418790 0.500000 0.971661

loop_
_geom_bond_atom_site_label_1
_geom_bond_atom_site_label_2
_ccdc_geom_bond_type
C16   O15   A    
C59   H47   S    
C66   C68   S    
C52   H29   S    
C34   C56   A    
C59   H46   S    
C23   C45   A    
C12   C74   S    
C55   H38   S    
C69   H71   S    
C26   H82   S    
C35   C36   A    
C3    C6    A    
C11   H45   S    
C7    C8    A    
C57   H41   S    
C46   H15   S    
C53   C54   S    
C27   N2    A    
C42   H7    S    
C62   C63   S    
C23   C42   A    
O12   Zn2   S    
C63   H59   S    
C19   C21   A    
C24   C26   A    
C73   O6    S    
C38   C39   A    
C11   C14   A    
C50   H21   S    
C71   H76   S    
C2    C41   A    
C1    O12   A    
C58   H44   S    
C60   O5    S    
C54   H36   S    
C68   H69   S    
C17   H67   S    
C1    C2    S    
C60   H50   S    
C8    O10   S    
C17   C19   A    
C49   H24   S    
C10   H34   S    
C53   H32   S    
C62   O6    S    
C66   H65   S    
C4    O8    S    
C45   C67   A    
C13   H56   S    
O13   Zn2   S    
C68   H68   S    
C61   H52   S    
C56   C73   A    
C63   H57   S    
C57   H42   S    
O16   Zn2   S    
C44   H18   S    
C16   C37   S    
C65   H63   S    
C59   H48   S    
C40   C42   A    
C64   H61   S    
C49   H22   S    
C72   H81   S    
C41   O4    S    
C69   H72   S    
C41   C43   A    
C62   H55   S    
C45   H9    S    
C70   H75   S    
O1    Zn1   S    
C18   H78   S    
O11   Zn1   S    
C44   C46   S    
C56   H10   S    
O17   Zn2   S    
C38   H1    S    
C48   H26   S    
C64   H60   S    
C72   H80   S    
C66   O8    S    
C51   C52   S    
C1    O1    A    
C55   O3    S    
C5    C7    A    
C50   H20   S    
C6    C8    A    
C55   H39   S    
C58   C59   S    
C58   H43   S    
C33   C37   A    
C54   H35   S    
C60   C61   S    
C51   H28   S    
C47   H13   S    
C60   H49   S    
C69   O9    S    
C64   O7    S    
C32   H6    S    
C53   H33   S    
C31   C32   A    
C15   O16   A    
C9    N1    A    
C5    C34   S    
C25   O2    S    
C29   H3    S    
C61   H53   S    
C67   C74   A    
N1    Zn1   S    
C63   H58   S    
C9    C11   A    
C10   N1    A    
C20   C48   S    
C44   H17   S    
C65   H64   S    
C16   O17   A    
C48   C49   S    
C21   C28   S    
C52   H31   S    
C71   O10   S    
C55   C57   S    
C62   H54   S    
C70   H74   S    
C3    C4    A    
C58   O4    S    
C47   H11   S    
C15   C36   S    
C71   H77   S    
C19   C44   S    
C3    O7    S    
C48   H25   S    
C7    O9    S    
C46   C47   S    
C52   H30   S    
C53   O2    S    
C9    H23   S    
C72   H79   S    
C30   C33   A    
C18   C22   A    
C26   N2    A    
C34   C43   A    
C24   C28   A    
C4    C5    A    
C10   C13   A    
C50   H19   S    
C31   H5    S    
C12   O11   A    
C46   H16   S    
C25   C27   A    
C29   C35   A    
C51   O18   S    
C17   C22   A    
C47   H14   S    
C14   C22   S    
C36   C38   A    
N2    Zn2   S    
C71   C72   S    
C37   C39   A    
C64   C65   S    
C30   C32   A    
C57   H40   S    
C6    C23   S    
C2    C73   A    
C33   C35   A    
C40   C74   A    
C54   H37   S    
C68   H70   S    
C18   C20   A    
O14   Zn1   S    
C69   C70   S    
C65   H62   S    
C25   C28   A    
C15   O14   A    
C30   H4    S    
C67   O5    S    
C40   O3    S    
C66   H66   S    
C20   C21   A    
C29   C31   A    
C49   C50   S    
C43   H8    S    
C12   O13   A    
C61   H51   S    
C70   H73   S    
C39   H12   S    
O15   Zn1   S    
C13   C14   A    
C51   H27   S    
C27   H2    S    
C24   O18   S    
