data_mof_unit_15992.cif
_audit_creation_date              2012-12-10T20:35:48-0500
_audit_creation_method            fapswitch 2.2
_symmetry_space_group_name_H-M    P1
_symmetry_Int_Tables_number       1
_space_group_crystal_system       triclinic
_cell_length_a                    15.7256
_cell_length_b                    10.676744
_cell_length_c                    9.860068
_cell_angle_alpha                 89.888287
_cell_angle_beta                  89.446272
_cell_angle_gamma                 90.062547
_cell_volume                      1655.40624456

loop_
_atom_site_label
_atom_site_type_symbol
_atom_type_description
_atom_site_fract_x
_atom_site_fract_y
_atom_site_fract_z
_atom_type_partial_charge
C1    C     C_R   0.502288 0.259915 0.500075 0.892462
C2    C     C_3   0.951812 0.395565 0.562406 -0.600778
C3    C     C_3   0.917699 0.515350 0.492914 0.042422
C4    C     C_3   0.947419 0.629768 0.580042 0.356210
C5    C     C_3   0.047579 0.642192 0.575538 0.910294
C6    C     C_1   0.825867 0.509325 0.495197 -0.019819
C7    C     C_1   0.174397 0.515173 0.501617 -0.020095
C8    C     C_1   0.249556 0.507301 0.501803 -0.173836
C9    C     C_R   0.513626 0.063507 0.622994 0.134419
C10   C     C_R   0.515300 0.128493 0.500519 -0.092746
C11   C     C_R   0.532980 0.065033 0.379033 -0.205714
C12   C     C_R   0.338277 0.500264 0.500645 0.923003
C13   C     C_R   0.533250 0.935531 0.378932 -0.215908
C14   C     C_R   0.515791 0.871400 0.500299 -0.099822
C15   C     C_R   0.513948 0.935768 0.622892 0.115826
C16   C     C_3   0.451635 0.927789 0.738093 -0.454090
C17   C     C_3   0.451074 0.069697 0.737931 -0.502416
C18   C     C_R   0.463050 0.403859 0.072388 0.038513
C19   C     C_R   0.543436 0.588358 0.071095 -0.102164
C20   C     C_R   0.543603 0.588202 0.927076 -0.101449
C21   C     C_R   0.461880 0.404878 0.929832 0.111530
C22   C     C_3   0.370088 0.367156 0.927765 0.263266
C23   C     C_R   0.502579 0.740029 0.499857 0.868259
C24   C     C_3   0.372374 0.364378 0.082583 -0.290120
C25   C     C_R   0.661742 0.500098 0.499286 0.891921
C26   C     C_3   0.049075 0.401317 0.568507 -0.461044
C27   C     C_3   0.052915 0.524629 0.350394 -0.479988
C28   C     C_3   0.953158 0.523707 0.342618 0.517781
C29   C     C_1   0.750589 0.504295 0.497359 -0.187813
C30   C     C_3   0.082830 0.522593 0.499599 0.061381
H1    H     H_    0.931777 0.309948 0.507016 0.239068
H2    H     H_    0.069432 0.397523 0.676262 0.210117
H3    H     H_    0.925404 0.386717 0.667247 0.208037
H4    H     H_    0.540833 0.114313 0.283564 0.163484
H5    H     H_    0.541250 0.886725 0.283432 0.165660
H6    H     H_    0.389822 0.885834 0.708168 0.206690
H7    H     H_    0.480416 0.886956 0.830732 0.201044
H8    H     H_    0.388986 0.110148 0.707310 0.202348
H9    H     H_    0.479309 0.110905 0.830684 0.188924
H10   H     H_    0.577125 0.661109 0.124755 0.135362
H11   H     H_    0.075936 0.317123 0.517106 0.231840
H12   H     H_    0.577501 0.660738 0.872053 0.130519
H13   H     H_    0.361236 0.275048 0.876767 0.051958
H14   H     H_    0.331202 0.435835 0.132450 0.221100
H15   H     H_    0.079204 0.609550 0.299725 0.208860
H16   H     H_    0.082128 0.444523 0.295346 0.219518
H17   H     H_    0.928023 0.607979 0.687008 0.035691
N1    N     N_R   0.499430 0.499140 0.142800 -0.090200
N2    N     N_R   0.499430 0.499180 0.857150 -0.072863
O1    O     O_R   0.500010 0.316790 0.614690 -0.630076
O2    O     O_R   0.500000 0.316760 0.385350 -0.612610
O3    O     O_R   0.377150 0.500020 0.614720 -0.559732
O4    O     O_R   0.377140 0.499990 0.385380 -0.608448
O5    O     O_R   0.500000 0.683240 0.614650 -0.621409
O6    O     O_R   0.499990 0.683210 0.385310 -0.628396
O7    O     O_R   0.622860 0.500010 0.614620 -0.625592
O8    O     O_R   0.622850 0.499980 0.385280 -0.614389
Zn1   Zn    Zn3+2 0.500010 0.500020 0.653130 0.977469
Zn2   Zn    Zn3+2 0.499990 0.499980 0.346870 0.962626
O9    O     O_3   0.909069 0.742133 0.531702 -0.508546
C31   C     C_3   0.850641 0.791984 0.626862 -0.271580
H18   H     H_    0.883552 0.823737 0.719747 0.133465
H19   H     H_    0.800008 0.723329 0.653647 0.144468
H20   H     H_    0.819434 0.874778 0.581021 0.198946
O10   O     O_3   0.318573 0.465359 0.878950 -0.554763
C32   C     C_3   0.234915 0.420803 0.862695 -0.264182
H21   H     H_    0.208700 0.381195 0.958909 0.164068
H22   H     H_    0.232104 0.350097 0.780119 0.152766
H23   H     H_    0.193956 0.500519 0.833375 0.233036
C33   C     C_2   0.363519 0.235126 0.141405 0.402349
H24   H     H_    0.401029 0.158132 0.101043 0.041799
O11   O     O_2   0.314227 0.215920 0.235517 -0.556258
C34   C     C_2   0.918705 0.411916 0.261416 0.309704
H25   H     H_    0.851087 0.406560 0.241269 0.085589
O12   O     O_2   0.964736 0.328802 0.218065 -0.587964
O13   O     O_3   0.924107 0.638970 0.285564 -0.550493
C35   C     C_3   0.937911 0.648487 0.143582 -0.289970
H26   H     H_    0.942737 0.749022 0.116056 0.198684
H27   H     H_    0.882660 0.608719 0.089114 0.152498
H28   H     H_    0.997184 0.601860 0.107757 0.153170
O14   O     O_3   0.080987 0.642832 0.710015 -0.688797
C36   C     C_3   0.054365 0.747010 0.788320 -0.377263
H29   H     H_    0.998175 0.721078 0.851254 0.153466
H30   H     H_    0.040004 0.832209 0.727855 0.217030
H31   H     H_    0.106246 0.771767 0.858855 0.203141
O15   O     O_3   0.068466 0.754732 0.502420 -0.578970
C37   C     C_3   0.155161 0.790450 0.506687 -0.277914
H32   H     H_    0.189520 0.758692 0.598382 0.189837
H33   H     H_    0.158542 0.894224 0.505169 0.192380
H34   H     H_    0.188591 0.756629 0.414163 0.164216

loop_
_geom_bond_atom_site_label_1
_geom_bond_atom_site_label_2
_ccdc_geom_bond_type
C32   H22   S    
C37   H32   S    
C26   H2    S    
O6    Zn2   S    
C18   C21   A    
C34   H25   S    
C19   C20   A    
C25   O7    A    
C3    C6    S    
C21   N2    A    
O14   C36   S    
O4    Zn2   S    
C24   C33   S    
C7    C8    T    
C35   H26   S    
N1    Zn2   S    
C18   C24   S    
C3    C28   S    
C13   H5    S    
O5    Zn1   S    
O8    Zn2   S    
C32   H23   S    
C15   C16   S    
C17   H9    S    
C31   H19   S    
C16   C17   S    
C33   H24   S    
C1    O1    A    
C12   O4    A    
C16   H7    S    
C27   H15   S    
C32   H21   S    
C7    C30   S    
C21   C22   S    
C27   C30   S    
C34   O12   D    
C25   O8    A    
C28   C34   S    
C12   O3    A    
C35   H27   S    
C25   C29   S    
O1    Zn1   S    
O13   C35   S    
C19   H10   S    
O15   C37   S    
N2    Zn1   S    
C2    H1    S    
C14   C23   S    
C31   H20   S    
C22   O10   S    
C20   N2    A    
C5    O14   S    
C22   H13   S    
C8    C12   S    
C4    O9    S    
C2    C26   S    
C1    O2    A    
O3    Zn1   S    
C5    O15   S    
C2    H3    S    
C9    C17   S    
C26   C30   S    
C36   H30   S    
C37   H33   S    
C24   H14   S    
C22   C24   S    
O2    Zn2   S    
C3    C4    S    
C28   O13   S    
C27   H16   S    
C23   O5    A    
C5    C30   S    
C9    C10   A    
C35   H28   S    
C19   N1    A    
C11   H4    S    
C1    C10   S    
C4    C5    S    
C18   N1    A    
C20   H12   S    
C23   O6    A    
C36   H31   S    
C2    C3    S    
C9    C15   A    
C16   H6    S    
C11   C13   A    
O7    Zn1   S    
C17   H8    S    
O10   C32   S    
C31   H18   S    
C10   C11   A    
C6    C29   T    
C36   H29   S    
C37   H34   S    
C27   C28   S    
C14   C15   A    
O9    C31   S    
C33   O11   D    
C13   C14   A    
C26   H11   S    
C4    H17   S    
