data_mof_unit_31403.cif
_audit_creation_date              2012-12-10T19:11:27-0500
_audit_creation_method            fapswitch 2.2
_symmetry_space_group_name_H-M    P1
_symmetry_Int_Tables_number       1
_space_group_crystal_system       triclinic
_cell_length_a                    10.630534
_cell_length_b                    9.70666
_cell_length_c                    10.496223
_cell_angle_alpha                 90.263694
_cell_angle_beta                  89.688752
_cell_angle_gamma                 89.975482
_cell_volume                      1083.04598184

loop_
_atom_site_label
_atom_site_type_symbol
_atom_type_description
_atom_site_fract_x
_atom_site_fract_y
_atom_site_fract_z
_atom_type_partial_charge
C1    C     C_R   0.257740 0.500267 0.502528 0.871317
C2    C     C_3   0.499371 0.498633 0.122144 0.038830
C3    C     C_3   0.071725 0.649115 0.526508 -0.421556
C4    C     C_3   0.071338 0.405322 0.609712 -0.404279
C5    C     C_3   0.929011 0.648365 0.530363 -0.492129
C6    C     C_3   0.926845 0.409406 0.612984 -0.457666
C7    C     C_3   0.075650 0.448417 0.370843 -0.507709
C8    C     C_3   0.121527 0.500897 0.502448 0.096913
C9    C     C_3   0.878900 0.500290 0.501169 0.055688
C10   C     C_3   0.929375 0.437580 0.370705 1.022563
C11   C     C_3   0.377108 0.081067 0.454980 -0.231566
C12   C     C_3   0.376991 0.918635 0.455307 -0.231424
C13   C     C_3   0.597743 0.080824 0.410453 -0.230741
C14   C     C_3   0.597532 0.918285 0.410168 -0.246740
C15   C     C_3   0.524593 0.081713 0.625993 -0.235262
C16   C     C_3   0.524863 0.919461 0.625944 -0.231577
C17   C     C_R   0.500157 0.499584 0.257088 0.902658
C18   C     C_R   0.742531 0.500157 0.501559 0.910492
C19   C     C_R   0.499082 0.500390 0.742766 0.856599
C20   C     C_3   0.390631 0.555023 0.043565 -0.196545
C21   C     C_3   0.509181 0.368854 0.039527 -0.147795
C22   C     C_3   0.400452 0.425454 0.958131 -0.181778
C23   C     C_3   0.498247 0.501191 0.877653 0.036330
C24   C     C_3   0.488241 0.630883 0.960231 -0.171158
C25   C     C_3   0.606858 0.444773 0.956306 -0.171003
C26   C     C_3   0.596888 0.574355 0.041492 -0.149609
H1    H     H_    0.320593 0.365181 0.919090 0.119175
H2    H     H_    0.354987 0.119182 0.357832 0.140560
H3    H     H_    0.354335 0.879126 0.358432 0.140344
H4    H     H_    0.300509 0.119054 0.518625 0.144875
H5    H     H_    0.300651 0.881821 0.519519 0.142161
H6    H     H_    0.582655 0.118979 0.311956 0.142312
H7    H     H_    0.581822 0.879707 0.311567 0.144680
H8    H     H_    0.616519 0.120625 0.661336 0.142499
H9    H     H_    0.617049 0.881108 0.660919 0.141437
H10   H     H_    0.451920 0.119575 0.694323 0.146371
H11   H     H_    0.452545 0.881952 0.694489 0.140621
H12   H     H_    0.692056 0.118534 0.439660 0.186690
H13   H     H_    0.691930 0.880323 0.438667 0.141084
H14   H     H_    0.302843 0.599569 0.084167 0.120539
H15   H     H_    0.517855 0.262095 0.076014 0.122475
H16   H     H_    0.479756 0.737704 0.923871 0.126446
H17   H     H_    0.694782 0.400237 0.916002 0.118636
H18   H     H_    0.675804 0.636314 0.079400 0.139199
H19   H     H_    0.104755 0.720363 0.450640 0.172483
H20   H     H_    0.102872 0.297343 0.592928 0.185744
H21   H     H_    0.107921 0.689522 0.618817 0.180964
H22   H     H_    0.108835 0.438778 0.703733 0.157716
H23   H     H_    0.897323 0.680872 0.627329 0.186303
H24   H     H_    0.894185 0.452133 0.706119 0.157711
H25   H     H_    0.891660 0.728817 0.466621 0.183347
H26   H     H_    0.889438 0.302510 0.607662 0.211620
H27   H     H_    0.112996 0.513834 0.292978 0.133115
H28   H     H_    0.117921 0.345177 0.352525 0.170164
N1    N     N_3   0.499750 0.138610 0.497240 -0.035089
N2    N     N_3   0.499750 0.861390 0.497240 -0.027132
O1    O     O_R   0.314910 0.616040 0.499970 -0.637867
O2    O     O_R   0.314910 0.383960 0.499970 -0.638810
O3    O     O_R   0.500080 0.616020 0.313900 -0.631952
O4    O     O_R   0.500080 0.383980 0.313900 -0.629214
O5    O     O_R   0.685320 0.616040 0.499930 -0.642008
O6    O     O_R   0.685320 0.383960 0.499930 -0.600244
O7    O     O_R   0.500150 0.616060 0.686000 -0.637368
O8    O     O_R   0.500150 0.383940 0.686000 -0.637496
Zn1   Zn    Zn3+2 0.500150 0.654960 0.499940 0.896168
Zn2   Zn    Zn3+2 0.500150 0.345040 0.499940 0.912003
O9    O     O_3   0.870672 0.496758 0.260481 -0.637581
C27   C     C_3   0.893852 0.637371 0.235870 -0.477550
H29   H     H_    0.981822 0.679040 0.275488 0.164187
H30   H     H_    0.812291 0.699504 0.268972 0.190337
H31   H     H_    0.900808 0.650797 0.131227 0.194814
O10   O     O_3   0.898712 0.294034 0.373239 -0.650439
C28   C     C_3   0.901187 0.230870 0.251406 -0.312480
H32   H     H_    0.982715 0.264410 0.192393 0.162001
H33   H     H_    0.811822 0.251891 0.200555 0.203213
H34   H     H_    0.908539 0.117772 0.264022 0.150383

loop_
_geom_bond_atom_site_label_1
_geom_bond_atom_site_label_2
_ccdc_geom_bond_type
C7    C10   S    
C14   N2    S    
O7    Zn1   S    
C12   H3    S    
C1    C8    S    
C24   H16   S    
C28   H32   S    
C13   H6    S    
C4    C8    S    
C25   H17   S    
C14   H7    S    
C26   H18   S    
C7    C8    S    
C4    H20   S    
C10   O9    S    
C24   C26   S    
C16   H9    S    
C20   H14   S    
C15   C16   S    
C14   H13   S    
O2    Zn2   S    
C20   C24   S    
C11   H4    S    
C19   O7    A    
C27   H29   S    
C23   C24   S    
C9    C10   S    
C15   H8    S    
C16   H11   S    
O4    Zn2   S    
C21   C22   S    
C2    C17   S    
C28   H33   S    
C5    H23   S    
C6    C9    S    
O6    Zn2   S    
C2    C20   S    
O9    C27   S    
C4    C6    S    
C3    C8    S    
C18   O6    A    
C25   C26   S    
C3    H19   S    
O8    Zn2   S    
C19   C23   S    
C16   N2    S    
C5    C9    S    
C1    O1    A    
C19   O8    A    
C2    C21   S    
C2    C26   S    
C6    H24   S    
C13   H12   S    
C12   N2    S    
C17   O3    A    
C21   H15   S    
C20   C22   S    
C22   H1    S    
C12   H5    S    
C28   H34   S    
C7    H27   S    
C15   H10   S    
N1    Zn2   S    
C11   N1    S    
C4    H22   S    
C21   C25   S    
O1    Zn1   S    
O10   C28   S    
C3    C5    S    
C11   C12   S    
C18   O5    A    
C1    O2    A    
O3    Zn1   S    
C11   H2    S    
C27   H31   S    
C3    H21   S    
C23   C25   S    
C17   O4    A    
O5    Zn1   S    
C9    C18   S    
C27   H30   S    
C22   C23   S    
C5    H25   S    
C7    H28   S    
C6    H26   S    
C13   C14   S    
N2    Zn1   S    
C15   N1    S    
C13   N1    S    
C10   O10   S    
