data_mof_unit_48142.cif
_audit_creation_date              2012-12-11T16:26:14-0500
_audit_creation_method            fapswitch 2.2
_symmetry_space_group_name_H-M    P1
_symmetry_Int_Tables_number       1
_space_group_crystal_system       triclinic
_cell_length_a                    14.00631
_cell_length_b                    14.005952
_cell_length_c                    31.922371
_cell_angle_alpha                 90.012041
_cell_angle_beta                  89.993081
_cell_angle_gamma                 120.033422
_cell_volume                      5421.4539025

loop_
_atom_site_label
_atom_site_type_symbol
_atom_type_description
_atom_site_fract_x
_atom_site_fract_y
_atom_site_fract_z
_atom_type_partial_charge
C1    C     C_R   0.567519 0.444139 0.810386 0.535401
C2    C     C_R   0.876757 0.432491 0.689774 0.525244
C3    C     C_R   0.555886 0.123471 0.810399 0.535301
C4    C     C_R   0.567419 0.444335 0.689821 0.525338
C5    C     C_R   0.876539 0.432462 0.810400 0.535329
C6    C     C_R   0.555704 0.123198 0.689780 0.525226
C7    C     C_R   0.444060 0.567656 0.310428 0.528902
C8    C     C_R   0.432473 0.876527 0.189586 0.535762
C9    C     C_R   0.123359 0.555751 0.310265 0.526674
C10   C     C_R   0.444025 0.567483 0.189557 0.536000
C11   C     C_R   0.432520 0.876769 0.310261 0.526625
C12   C     C_R   0.123490 0.555903 0.189589 0.536103
C13   C     C_1   0.007150 0.539731 0.018561 -0.031968
C14   C     C_1   0.535265 0.989860 0.481665 -0.034097
C15   C     C_1   0.460987 0.468678 0.018446 -0.031916
C16   C     C_1   0.009934 0.544601 0.481629 -0.034779
C17   C     C_1   0.532782 0.993337 0.018585 -0.031772
C18   C     C_1   0.455930 0.465823 0.481781 -0.034501
C19   C     C_1   0.544131 0.007630 0.518640 -0.034396
C20   C     C_1   0.993763 0.533068 0.981357 -0.031975
C21   C     C_1   0.464063 0.457213 0.518805 -0.034705
C22   C     C_1   0.539440 0.006659 0.981378 -0.031936
C23   C     C_1   0.991956 0.535648 0.518584 -0.034637
C24   C     C_1   0.467345 0.462299 0.981215 -0.031985
C25   C     C_R   0.926232 0.466839 0.852288 0.036735
C26   C     C_R   0.542835 0.078990 0.647241 0.031774
C27   C     C_R   0.532996 0.459823 0.852192 0.036424
C28   C     C_R   0.920722 0.463652 0.647205 0.031949
C29   C     C_R   0.540542 0.073890 0.852300 0.036756
C30   C     C_R   0.536063 0.457415 0.647340 0.031889
C31   C     C_R   0.464127 0.921418 0.352793 0.032181
C32   C     C_R   0.073827 0.540590 0.147691 0.036713
C33   C     C_R   0.458229 0.534216 0.352625 0.024030
C34   C     C_R   0.467072 0.926440 0.147721 0.036784
C35   C     C_R   0.079554 0.542945 0.352873 0.031567
C36   C     C_R   0.459447 0.532399 0.147752 0.035439
C37   C     C_R   0.982462 0.578499 0.866088 0.007933
C38   C     C_R   0.574726 0.001344 0.635310 0.007381
C39   C     C_R   0.421411 0.403704 0.866081 0.007731
C40   C     C_R   0.998488 0.573150 0.635214 0.007258
C41   C     C_R   0.595692 0.017436 0.866073 0.007808
C42   C     C_R   0.426477 0.425420 0.635412 0.007308
C43   C     C_R   0.574651 0.994807 0.365166 0.008177
C44   C     C_R   0.018409 0.596705 0.133804 0.008151
C45   C     C_R   0.403816 0.422660 0.366219 0.003653
C46   C     C_R   0.578614 0.981104 0.133752 0.008700
C47   C     C_R   0.003094 0.576151 0.365062 0.007383
C48   C     C_R   0.398840 0.421366 0.133257 0.008395
C49   C     C_R   0.005922 0.600261 0.909077 -0.103677
C50   C     C_R   0.576095 0.978542 0.592396 -0.097551
C51   C     C_R   0.399796 0.405984 0.909049 -0.103758
C52   C     C_R   0.021208 0.597093 0.592289 -0.097605
C53   C     C_R   0.594067 0.994085 0.909067 -0.103736
C54   C     C_R   0.402480 0.424585 0.592512 -0.097490
C55   C     C_R   0.598225 0.016243 0.408181 -0.097079
C56   C     C_R   0.995240 0.595126 0.090798 -0.103713
C57   C     C_R   0.403445 0.400198 0.409204 -0.101337
C58   C     C_R   0.600170 0.004411 0.090750 -0.103411
C59   C     C_R   0.981079 0.577814 0.408034 -0.097813
C60   C     C_R   0.400968 0.400510 0.090217 -0.103971
C61   C     C_R   0.975658 0.513655 0.937394 0.021858
C62   C     C_R   0.545635 0.031031 0.562303 0.015258
C63   C     C_R   0.486439 0.463648 0.937238 0.021981
C64   C     C_R   0.968502 0.513963 0.562245 0.015292
C65   C     C_R   0.538074 0.024692 0.937415 0.021763
C66   C     C_R   0.485685 0.455736 0.562466 0.015499
C67   C     C_R   0.513792 0.967344 0.437934 0.016724
C68   C     C_R   0.024994 0.538275 0.062536 0.021991
C69   C     C_R   0.456260 0.486502 0.437939 0.017075
C70   C     C_R   0.513575 0.975569 0.062570 0.022256
C71   C     C_R   0.032932 0.546086 0.437935 0.015434
C72   C     C_R   0.462693 0.487055 0.062495 0.022454
C73   C     C_R   0.926930 0.405315 0.923265 -0.125383
C74   C     C_R   0.510927 0.104254 0.574487 -0.129851
C75   C     C_R   0.594597 0.524055 0.922998 -0.125431
C76   C     C_R   0.895088 0.406081 0.574484 -0.129813
C77   C     C_R   0.478732 0.073670 0.923314 -0.125454
C78   C     C_R   0.593647 0.490601 0.574663 -0.130007
C79   C     C_R   0.405083 0.899051 0.425319 -0.126813
C80   C     C_R   0.072835 0.477961 0.076740 -0.125169
C81   C     C_R   0.513782 0.595385 0.424180 -0.127930
C82   C     C_R   0.405512 0.928581 0.076860 -0.124956
C83   C     C_R   0.104786 0.509889 0.425504 -0.128396
C84   C     C_R   0.527574 0.594157 0.077299 -0.124957
C85   C     C_R   0.902695 0.382039 0.881161 -0.140498
C86   C     C_R   0.509393 0.127948 0.616538 -0.140038
C87   C     C_R   0.617745 0.522493 0.880924 -0.140552
C88   C     C_R   0.871479 0.381073 0.616549 -0.139803
C89   C     C_R   0.479619 0.097792 0.881206 -0.140551
C90   C     C_R   0.618691 0.491574 0.616683 -0.139830
C91   C     C_R   0.380412 0.876289 0.383186 -0.137060
C92   C     C_R   0.096763 0.478762 0.118870 -0.140596
C93   C     C_R   0.515071 0.619111 0.381960 -0.141185
C94   C     C_R   0.382397 0.904513 0.118986 -0.140412
C95   C     C_R   0.127885 0.508266 0.383394 -0.141509
C96   C     C_R   0.526339 0.616685 0.119479 -0.140946
Cr1   Cr    Cr6+3 0.504240 0.249200 0.750000 0.992955
Cr2   Cr    Cr6+3 0.744960 0.495760 0.750000 0.993085
Cr3   Cr    Cr6+3 0.750800 0.255040 0.750000 0.993086
Cr4   Cr    Cr6+3 0.249200 0.504240 0.250000 0.986258
Cr5   Cr    Cr6+3 0.495760 0.744960 0.250000 0.991628
Cr6   Cr    Cr6+3 0.255040 0.750800 0.250000 0.993259
H1    H     H_    0.955203 0.639012 0.079175 0.102737
H2    H     H_    0.682166 0.070899 0.418460 0.110553
H3    H     H_    0.353526 0.317238 0.078114 0.102288
H4    H     H_    0.923685 0.603767 0.418154 0.110871
H5    H     H_    0.684053 0.043803 0.079061 0.102632
H6    H     H_    0.361972 0.315632 0.420224 0.110902
H7    H     H_    0.600951 0.920151 0.582478 0.111846
H8    H     H_    0.046608 0.684308 0.920637 0.103068
H9    H     H_    0.319191 0.399546 0.582568 0.111719
H10   H     H_    0.637214 0.953210 0.920605 0.103145
H11   H     H_    0.079730 0.680300 0.582321 0.111865
H12   H     H_    0.315860 0.361958 0.920702 0.102953
H13   H     H_    0.139259 0.435559 0.128460 0.132764
H14   H     H_    0.295688 0.819076 0.374472 0.137680
H15   H     H_    0.573289 0.701967 0.129464 0.133341
H16   H     H_    0.187584 0.483975 0.374767 0.133372
H17   H     H_    0.296699 0.862654 0.128623 0.133647
H18   H     H_    0.556159 0.704988 0.372584 0.138646
H19   H     H_    0.486068 0.188497 0.624997 0.137120
H20   H     H_    0.859556 0.296244 0.871629 0.133954
H21   H     H_    0.702615 0.515024 0.625139 0.137323
H22   H     H_    0.437197 0.141124 0.871688 0.133714
H23   H     H_    0.810822 0.297229 0.625059 0.137217
H24   H     H_    0.703488 0.565795 0.871334 0.133915
H25   H     H_    0.094704 0.432580 0.054967 0.114628
H26   H     H_    0.339181 0.861924 0.448202 0.119584
H27   H     H_    0.576760 0.661279 0.055931 0.113906
H28   H     H_    0.144250 0.484067 0.448499 0.120212
H29   H     H_    0.338281 0.907424 0.055151 0.114683
H30   H     H_    0.556054 0.662512 0.446294 0.117691
H31   H     H_    0.486148 0.144275 0.551343 0.120263
H32   H     H_    0.904627 0.338054 0.945079 0.114918
H33   H     H_    0.658608 0.515824 0.551542 0.119544
H34   H     H_    0.434044 0.096245 0.945152 0.114934
H35   H     H_    0.854893 0.341148 0.551375 0.120020
H36   H     H_    0.661869 0.569974 0.944719 0.114520
O1    O     O_R   0.480350 0.140770 0.796330 -0.523764
O2    O     O_R   0.660420 0.519650 0.703670 -0.514377
O3    O     O_R   0.859230 0.339580 0.796330 -0.523573
O4    O     O_R   0.480350 0.140770 0.703670 -0.514177
O5    O     O_R   0.660420 0.519650 0.796330 -0.523758
O6    O     O_R   0.859230 0.339580 0.703670 -0.514190
O7    O     O_R   0.140770 0.480350 0.296330 -0.525293
O8    O     O_R   0.519650 0.660420 0.203670 -0.524284
O9    O     O_R   0.339580 0.859230 0.296330 -0.515401
O10   O     O_R   0.140770 0.480350 0.203670 -0.524561
O11   O     O_R   0.519650 0.660420 0.296330 -0.518554
O12   O     O_R   0.339580 0.859230 0.203670 -0.523860
O13   O     O_R   0.514930 0.348530 0.793250 -0.502876
O14   O     O_R   0.833600 0.485070 0.706750 -0.504313
O15   O     O_R   0.651470 0.166400 0.793250 -0.502770
O16   O     O_R   0.514930 0.348530 0.706750 -0.504331
O17   O     O_R   0.833600 0.485070 0.793250 -0.502749
O18   O     O_R   0.651470 0.166400 0.706750 -0.504281
O19   O     O_R   0.348530 0.514930 0.293250 -0.500203
O20   O     O_R   0.485070 0.833600 0.206750 -0.502567
O21   O     O_R   0.166400 0.651470 0.293250 -0.502639
O22   O     O_R   0.348530 0.514930 0.206750 -0.502015
O23   O     O_R   0.485070 0.833600 0.293250 -0.503390
O24   O     O_R   0.166400 0.651470 0.206750 -0.502386
O25   O     O_3   0.666667 0.333333 0.750000 -0.221865
O26   O     O_3   0.333333 0.666667 0.250000 -0.220262
C97   C     C_3   0.018924 0.675285 0.836432 -0.274247
C98   C     C_3   0.105573 0.683176 0.805332 -0.434109
H37   H     H_    0.177744 0.689632 0.822368 0.153454
H38   H     H_    0.071068 0.610167 0.784399 0.149753
H39   H     H_    0.133965 0.757837 0.785578 0.132094
H40   H     H_    0.947347 0.670014 0.819514 0.166082
H41   H     H_    0.055913 0.754119 0.854200 0.126476
C99   C     C_3   0.605493 0.940568 0.666920 -0.279030
C100  C     C_3   0.517984 0.818430 0.668825 -0.453888
H42   H     H_    0.436852 0.808813 0.677556 0.150913
H43   H     H_    0.510432 0.777766 0.638161 0.155658
H44   H     H_    0.541517 0.776607 0.692848 0.137785
H45   H     H_    0.686193 0.949124 0.658123 0.140861
H46   H     H_    0.614770 0.974590 0.698951 0.154481
C101  C     C_3   0.324542 0.341998 0.836558 -0.274023
C102  C     C_3   0.315665 0.419613 0.805180 -0.433793
H47   H     H_    0.308629 0.485298 0.821983 0.153374
H48   H     H_    0.388531 0.458280 0.784185 0.149855
H49   H     H_    0.240987 0.372345 0.785515 0.131920
H50   H     H_    0.330309 0.275650 0.819887 0.166362
H51   H     H_    0.245854 0.299945 0.854407 0.126284
C103  C     C_3   0.059478 0.664869 0.666773 -0.279045
C104  C     C_3   0.181553 0.699380 0.668660 -0.453909
H52   H     H_    0.191020 0.627800 0.677407 0.150968
H53   H     H_    0.222187 0.732390 0.637984 0.155541
H54   H     H_    0.223519 0.764829 0.692665 0.137793
H55   H     H_    0.051076 0.737064 0.657935 0.140881
H56   H     H_    0.025503 0.640292 0.698817 0.154396
C105  C     C_3   0.655627 0.980623 0.836379 -0.274307
C106  C     C_3   0.576479 0.893964 0.805348 -0.434188
H57   H     H_    0.510640 0.821958 0.822440 0.153533
H58   H     H_    0.538090 0.928571 0.784435 0.149712
H59   H     H_    0.622454 0.865294 0.785568 0.132114
H60   H     H_    0.722024 0.052048 0.819399 0.166027
H61   H     H_    0.697349 0.943524 0.854121 0.126567
C107  C     C_3   0.334731 0.394012 0.667005 -0.279062
C108  C     C_3   0.299917 0.481295 0.669135 -0.454002
H62   H     H_    0.371362 0.562401 0.678002 0.150892
H63   H     H_    0.266871 0.489153 0.638510 0.155511
H64   H     H_    0.234421 0.457310 0.693148 0.137918
H65   H     H_    0.262664 0.313350 0.658063 0.140870
H66   H     H_    0.359384 0.384370 0.698997 0.154447
C109  C     C_3   0.668040 0.052375 0.333947 -0.279735
C110  C     C_3   0.711869 0.176597 0.333252 -0.452088
H67   H     H_    0.644440 0.193432 0.325329 0.151722
H68   H     H_    0.747600 0.214273 0.364080 0.155003
H69   H     H_    0.777528 0.215832 0.309155 0.137608
H70   H     H_    0.735908 0.036638 0.342414 0.138462
H71   H     H_    0.642192 0.021552 0.301606 0.155102
C111  C     C_3   0.982558 0.657720 0.163370 -0.274252
C112  C     C_3   0.895685 0.579482 0.194527 -0.434036
H72   H     H_    0.823303 0.513819 0.177539 0.153696
H73   H     H_    0.929805 0.540820 0.215540 0.149883
H74   H     H_    0.867730 0.626259 0.214194 0.131338
H75   H     H_    0.054369 0.723988 0.180229 0.166150
H76   H     H_    0.945980 0.699800 0.145535 0.125784
C113  C     C_3   0.349225 0.326460 0.336149 -0.272761
C114  C     C_3   0.223727 0.270031 0.338801 -0.424899
H77   H     H_    0.194840 0.235987 0.370675 0.138139
H78   H     H_    0.195455 0.329312 0.331404 0.187441
H79   H     H_    0.186287 0.201195 0.315897 0.126573
H80   H     H_    0.375710 0.352508 0.303345 0.146250
H81   H     H_    0.375448 0.265573 0.343839 0.133646
C115  C     C_3   0.675562 0.015970 0.163206 -0.274120
C116  C     C_3   0.685272 0.102934 0.194536 -0.433808
H82   H     H_    0.692678 0.175751 0.177692 0.153665
H83   H     H_    0.612589 0.069204 0.215611 0.150082
H84   H     H_    0.760032 0.130118 0.214120 0.130972
H85   H     H_    0.669427 0.943745 0.179907 0.166273
H86   H     H_    0.754130 0.052125 0.145296 0.125523
C117  C     C_3   0.942628 0.607857 0.333660 -0.280925
C118  C     C_3   0.819955 0.521809 0.332263 -0.449916
H87   H     H_    0.808630 0.439753 0.323896 0.151874
H88   H     H_    0.780319 0.516069 0.363008 0.154997
H89   H     H_    0.778429 0.545585 0.308198 0.138886
H90   H     H_    0.952924 0.689321 0.342376 0.139321
H91   H     H_    0.975514 0.615942 0.301492 0.154468
C119  C     C_3   0.332120 0.324080 0.162102 -0.272457
C120  C     C_3   0.405374 0.309561 0.193926 -0.432422
H92   H     H_    0.469735 0.299491 0.177507 0.153319
H93   H     H_    0.445731 0.381376 0.215371 0.148500
H94   H     H_    0.354346 0.234699 0.213056 0.130665
H95   H     H_    0.266750 0.332515 0.178305 0.168193
H96   H     H_    0.288139 0.246315 0.143769 0.124293

loop_
_geom_bond_atom_site_label_1
_geom_bond_atom_site_label_2
_ccdc_geom_bond_type
C99   H45   S    
C97   H41   S    
C4    O16   A    
C79   H26   S    
C68   C80   A    
C97   C98   S    
C82   C94   A    
C5    O17   A    
Cr2   O5    S    
C18   C21   T    
C2    O6    A    
C90   H21   S    
C113  H80   S    
C106  H58   S    
C11   O23   A    
C30   C90   A    
C8    O20   A    
C29   C89   A    
Cr2   O25   S    
Cr6   O24   S    
Cr2   O14   S    
C76   H35   S    
C78   C90   A    
C15   C72   S    
C45   C57   A    
C107  H65   S    
C31   C43   A    
C9    O21   A    
C44   C111  S    
C40   C52   A    
Cr4   O10   S    
C42   C54   A    
C116  H84   S    
C111  H75   S    
C112  H73   S    
Cr6   O26   S    
C99   C100  S    
C21   C66   S    
Cr5   O23   S    
C106  H59   S    
C40   C103  S    
C105  H61   S    
C60   C72   A    
C19   C62   S    
C99   H46   S    
C105  H60   S    
C74   H31   S    
C84   H27   S    
C3    O15   A    
C37   C49   A    
C118  H87   S    
C58   H5    S    
C84   C96   A    
Cr5   O11   S    
C20   C61   S    
C3    C29   S    
C44   C56   A    
C117  H91   S    
C104  H54   S    
C41   C105  S    
C73   H32   S    
C25   C37   A    
C39   C51   A    
C7    O11   A    
Cr4   O19   S    
C27   C39   A    
C110  H67   S    
C120  H93   S    
C28   C88   A    
C107  H66   S    
C117  C118  S    
C62   C74   A    
C36   C48   A    
C34   C46   A    
C93   H18   S    
C6    O4    A    
C53   C65   A    
C78   H33   S    
C76   C88   A    
C115  H86   S    
C102  H49   S    
C26   C86   A    
C18   C69   S    
C106  H57   S    
C41   C53   A    
C103  C104  S    
C11   C31   S    
C17   C70   S    
C12   C32   S    
C98   H38   S    
C108  H63   S    
C16   C71   S    
C115  C116  S    
C102  H48   S    
C48   C60   A    
C71   C83   A    
C100  H43   S    
C95   H16   S    
C2    O14   A    
C66   C78   A    
Cr5   O8    S    
C59   H4    S    
C49   C61   A    
C38   C50   A    
C7    C33   S    
C43   C109  S    
C109  C110  S    
C51   H12   S    
C96   H15   S    
C51   C63   A    
C83   H28   S    
C48   C119  S    
C91   H14   S    
C52   C64   A    
C112  H74   S    
C111  C112  S    
C58   C70   A    
C81   H30   S    
C37   C97   S    
C114  H79   S    
C61   C73   A    
C100  H42   S    
C47   C59   A    
C55   H2    S    
C50   H7    S    
C119  H96   S    
Cr2   O2    S    
Cr3   O6    S    
C10   C36   S    
C80   C92   A    
C8    O12   A    
C112  H72   S    
C22   C65   S    
C116  H82   S    
C1    O5    A    
C33   C45   A    
Cr6   O9    S    
C4    O2    A    
C113  C114  S    
C81   C93   A    
C94   H17   S    
Cr4   O22   S    
C5    O3    A    
Cr1   O13   S    
Cr4   O7    S    
C14   C67   S    
C120  H94   S    
C83   C95   A    
Cr3   O18   S    
C86   H19   S    
C25   C85   A    
C119  C120  S    
C64   C76   A    
C67   C79   A    
C85   H20   S    
Cr4   O26   S    
C8    C34   S    
Cr1   O16   S    
C74   C86   A    
C114  H78   S    
Cr1   O25   S    
C115  H85   S    
C72   C84   A    
C10   O8    A    
Cr3   O25   S    
C53   H10   S    
C43   C55   A    
C15   C24   T    
C89   H22   S    
Cr6   O12   S    
Cr5   O20   S    
C105  C106  S    
C24   C63   S    
C31   C91   A    
C98   H37   S    
C50   C62   A    
C108  H64   S    
C5    C25   S    
C3    O1    A    
C10   O22   A    
C102  H47   S    
C63   C75   A    
C9    C35   S    
C101  H50   S    
C103  H55   S    
C100  H44   S    
C75   C87   A    
C97   H40   S    
C47   C117  S    
Cr2   O17   S    
C23   C64   S    
C46   C115  S    
C65   C77   A    
C13   C20   T    
C29   C41   A    
C77   C89   A    
C79   C91   A    
C14   C19   T    
Cr3   O3    S    
Cr5   O26   S    
C26   C38   A    
C34   C94   A    
C56   H1    S    
C75   H36   S    
C33   C93   A    
Cr6   O21   S    
C39   C101  S    
C54   H9    S    
C118  H89   S    
C38   C99   S    
C6    C26   S    
C54   C66   A    
C80   H25   S    
C35   C95   A    
C16   C23   T    
C113  H81   S    
C119  H95   S    
C108  H62   S    
C56   C68   A    
C12   O10   A    
C42   C107  S    
C82   H29   S    
C45   C113  S    
C73   C85   A    
C116  H83   S    
C109  H71   S    
C111  H76   S    
C27   C87   A    
C11   O9    A    
C109  H70   S    
C55   C67   A    
C107  C108  S    
C110  H69   S    
C52   H11   S    
Cr3   O15   S    
C9    O7    A    
C36   C96   A    
C118  H88   S    
C101  H51   S    
C1    O13   A    
C87   H24   S    
C103  H56   S    
C114  H77   S    
C70   C82   A    
C92   H13   S    
C4    C30   S    
Cr1   O4    S    
C104  H53   S    
C88   H23   S    
C69   C81   A    
C32   C92   A    
C12   O24   A    
C101  C102  S    
C77   H34   S    
C104  H52   S    
C57   H6    S    
C17   C22   T    
C32   C44   A    
C98   H39   S    
C110  H68   S    
C7    O19   A    
C46   C58   A    
C1    C27   S    
C28   C40   A    
C30   C42   A    
C2    C28   S    
C57   C69   A    
C35   C47   A    
Cr1   O1    S    
C117  H90   S    
C6    O18   A    
C60   H3    S    
C120  H92   S    
C59   C71   A    
C49   H8    S    
C13   C68   S    
