data_mof_unit_65381.cif
_audit_creation_date              2012-12-10T19:59:59-0500
_audit_creation_method            fapswitch 2.2
_symmetry_space_group_name_H-M    P1
_symmetry_Int_Tables_number       1
_space_group_crystal_system       monoclinic
_cell_length_a                    18.425331
_cell_length_b                    18.425334
_cell_length_c                    36.218294
_cell_angle_alpha                 90.0
_cell_angle_beta                  90.0
_cell_angle_gamma                 90.000021
_cell_volume                      12295.8528567

loop_
_atom_site_label
_atom_site_type_symbol
_atom_type_description
_atom_site_fract_x
_atom_site_fract_y
_atom_site_fract_z
_atom_type_partial_charge
Br1   Br    Br    0.496677 0.842096 0.205836 -0.466180
Br2   Br    Br    0.157916 0.502671 0.205836 -0.466178
Br3   Br    Br    0.503323 0.157904 0.205836 -0.466181
Br4   Br    Br    0.842084 0.497329 0.205836 -0.466178
Br5   Br    Br    0.997312 0.342084 0.705836 -0.466178
Br6   Br    Br    0.657903 0.003356 0.705836 -0.466181
Br7   Br    Br    0.002688 0.657916 0.705836 -0.466178
Br8   Br    Br    0.342096 0.996643 0.705836 -0.466180
C1    C     C_R   0.500000 0.000000 0.901136 0.818562
C2    C     C_R   0.433915 0.998595 0.730847 0.253241
C3    C     C_R   0.242017 0.811963 0.523088 -0.207131
C4    C     C_3   0.145708 0.795160 0.950793 -0.464692
C5    C     C_3   0.204829 0.145697 0.950801 -0.464737
C6    C     C_3   0.854292 0.204840 0.950793 -0.464692
C7    C     C_3   0.795170 0.854302 0.950801 -0.464737
C8    C     C_3   0.145697 0.204830 0.950801 -0.464738
C9    C     C_3   0.204840 0.854292 0.950793 -0.464693
C10   C     C_3   0.854302 0.795170 0.950801 -0.464738
C11   C     C_3   0.795160 0.145708 0.950793 -0.464693
C12   C     C_3   0.645708 0.295160 0.450793 -0.464693
C13   C     C_R   0.998875 0.433910 0.730847 0.253241
C14   C     C_3   0.704830 0.645697 0.450801 -0.464738
C15   C     C_3   0.354292 0.704840 0.450793 -0.464692
C16   C     C_3   0.295170 0.354303 0.450801 -0.464738
C17   C     C_3   0.645697 0.704830 0.450801 -0.464737
C18   C     C_3   0.704840 0.354292 0.450793 -0.464692
C19   C     C_3   0.354302 0.295170 0.450801 -0.464737
C20   C     C_3   0.295160 0.645708 0.450793 -0.464692
C21   C     C_R   0.998881 0.434262 0.769450 -0.199330
C22   C     C_R   0.565732 0.001397 0.769450 -0.199329
C23   C     C_R   0.001119 0.565737 0.769450 -0.199330
C24   C     C_R   0.566085 0.001405 0.730847 0.253241
C25   C     C_R   0.434268 0.998603 0.769450 -0.199329
C26   C     C_R   0.498617 0.934267 0.269450 -0.199329
C27   C     C_R   0.065738 0.501112 0.269450 -0.199330
C28   C     C_R   0.501383 0.065733 0.269450 -0.199329
C29   C     C_R   0.934262 0.498888 0.269450 -0.199330
C30   C     C_R   1.000000 0.500000 0.788739 0.046154
C31   C     C_R   0.500000 1.000000 0.788739 0.046155
C32   C     C_R   0.500000 0.000000 0.288739 0.046154
C33   C     C_R   1.000000 0.500000 0.288739 0.046154
C34   C     C_R   0.500000 0.000000 0.211346 -0.014578
C35   C     C_R   0.000000 0.500000 0.211346 -0.014578
C36   C     C_R   1.000000 0.500000 0.711345 -0.014578
C37   C     C_R   0.500000 0.000000 0.711346 -0.014579
C38   C     C_1   0.000000 0.500000 0.828392 -0.015639
C39   C     C_1   0.500000 0.000000 0.828392 -0.015639
C40   C     C_1   0.500000 0.000000 0.328392 -0.015639
C41   C     C_R   0.000000 0.500000 0.901136 0.818562
C42   C     C_1   1.000000 0.500000 0.328392 -0.015639
C43   C     C_1   0.500000 0.000000 0.171595 0.084847
C44   C     C_1   0.000000 0.500000 0.171594 0.084847
C45   C     C_1   1.000000 0.500000 0.671594 0.084847
C46   C     C_1   0.500000 0.000000 0.671594 0.084847
C47   C     C_1   0.500000 0.000000 0.138360 -0.068208
C48   C     C_1   0.000000 0.500000 0.138360 -0.068207
C49   C     C_1   1.000000 0.500000 0.638360 -0.068207
C50   C     C_1   0.500000 0.000000 0.638360 -0.068208
C51   C     C_1   0.000000 0.500000 0.861623 -0.133755
C52   C     C_R   1.000000 0.500000 0.401136 0.818562
C53   C     C_1   0.500000 0.000000 0.861623 -0.133755
C54   C     C_1   0.500000 0.000000 0.361623 -0.133755
C55   C     C_1   1.000000 0.500000 0.361623 -0.133755
C56   C     C_R   0.500000 0.000000 0.098856 0.813528
C57   C     C_R   0.000000 0.500000 0.098856 0.813526
C58   C     C_R   0.000000 0.500000 0.598856 0.813526
C59   C     C_R   0.500000 0.000000 0.598856 0.813528
C60   C     C_R   0.639973 0.859955 0.000037 0.810687
C61   C     C_R   0.140044 0.639973 0.000037 0.810777
C62   C     C_R   0.360027 0.140045 0.000037 0.810687
C63   C     C_R   0.500000 0.000000 0.401136 0.818562
C64   C     C_R   0.859955 0.360027 0.000037 0.810777
C65   C     C_R   0.639973 0.140044 0.000037 0.810781
C66   C     C_R   0.140045 0.360027 0.000037 0.810690
C67   C     C_R   0.360027 0.859955 0.000037 0.810781
C68   C     C_R   0.859955 0.639973 0.000037 0.810690
C69   C     C_R   0.139973 0.359955 0.500037 0.810690
C70   C     C_R   0.640045 0.139973 0.500037 0.810782
C71   C     C_R   0.860027 0.640045 0.500037 0.810690
C72   C     C_R   0.359955 0.860027 0.500037 0.810782
C73   C     C_R   0.139973 0.640045 0.500037 0.810777
C74   C     C_R   0.501391 0.066085 0.230847 0.253241
C75   C     C_R   0.640045 0.860027 0.500037 0.810686
C76   C     C_R   0.860027 0.359955 0.500037 0.810777
C77   C     C_R   0.359955 0.139973 0.500037 0.810686
C78   C     C_R   0.243421 0.808366 0.978359 0.129517
C79   C     C_R   0.191631 0.243419 0.978361 0.129531
C80   C     C_R   0.756579 0.191634 0.978359 0.129517
C81   C     C_R   0.808369 0.756581 0.978361 0.129531
C82   C     C_R   0.243419 0.191631 0.978361 0.129532
C83   C     C_R   0.191634 0.756579 0.978359 0.129519
C84   C     C_R   0.756581 0.808369 0.978361 0.129532
C85   C     C_R   0.933910 0.498882 0.230847 0.253241
C86   C     C_R   0.808366 0.243421 0.978359 0.129519
C87   C     C_R   0.743421 0.308366 0.478359 0.129519
C88   C     C_R   0.691631 0.743419 0.478361 0.129532
C89   C     C_R   0.256579 0.691634 0.478359 0.129519
C90   C     C_R   0.308369 0.256581 0.478361 0.129532
C91   C     C_R   0.743419 0.691631 0.478361 0.129531
C92   C     C_R   0.691634 0.256578 0.478359 0.129517
C93   C     C_R   0.256581 0.308369 0.478361 0.129531
C94   C     C_R   0.308366 0.743421 0.478359 0.129517
C95   C     C_R   0.305003 0.803880 0.000299 -0.085867
C96   C     C_R   0.498609 0.933915 0.230847 0.253241
C97   C     C_R   0.196121 0.305005 0.000298 -0.085777
C98   C     C_R   0.694997 0.196120 0.000299 -0.085867
C99   C     C_R   0.803879 0.694995 0.000298 -0.085777
C100  C     C_R   0.305005 0.196121 0.000298 -0.085776
C101  C     C_R   0.196120 0.694997 0.000299 -0.085866
C102  C     C_R   0.694995 0.803879 0.000298 -0.085776
C103  C     C_R   0.803880 0.305003 0.000299 -0.085866
C104  C     C_R   0.805003 0.303880 0.500299 -0.085867
C105  C     C_R   0.696121 0.805005 0.500298 -0.085776
C106  C     C_R   0.194997 0.696120 0.500299 -0.085867
C107  C     C_R   0.066090 0.501118 0.230847 0.253241
C108  C     C_R   0.303879 0.194995 0.500298 -0.085776
C109  C     C_R   0.805005 0.696121 0.500298 -0.085777
C110  C     C_R   0.696120 0.194997 0.500299 -0.085868
C111  C     C_R   0.194995 0.303879 0.500298 -0.085777
C112  C     C_R   0.303880 0.805003 0.500299 -0.085868
C113  C     C_R   0.311963 0.742017 0.023088 -0.207132
C114  C     C_R   0.257989 0.311970 0.023083 -0.207433
C115  C     C_R   0.688037 0.257982 0.023088 -0.207132
C116  C     C_R   0.742011 0.688030 0.023083 -0.207433
C117  C     C_R   0.311970 0.257989 0.023083 -0.207446
C118  C     C_R   0.001125 0.566090 0.730847 0.253241
C119  C     C_R   0.257982 0.688037 0.023088 -0.207146
C120  C     C_R   0.688030 0.742011 0.023083 -0.207446
C121  C     C_R   0.742017 0.311963 0.023088 -0.207146
C122  C     C_R   0.811963 0.242017 0.523088 -0.207145
C123  C     C_R   0.757989 0.811970 0.523083 -0.207448
C124  C     C_R   0.188037 0.757982 0.523088 -0.207145
C125  C     C_R   0.242011 0.188030 0.523083 -0.207448
C126  C     C_R   0.811970 0.757989 0.523083 -0.207434
C127  C     C_R   0.757982 0.188037 0.523088 -0.207131
C128  C     C_R   0.188030 0.242011 0.523083 -0.207434
H1    H     H_    0.358735 0.735139 0.040854 0.188289
H2    H     H_    0.764871 0.858745 0.540846 0.188163
H3    H     H_    0.141265 0.764861 0.540854 0.188284
H4    H     H_    0.235129 0.141255 0.540846 0.188163
H5    H     H_    0.858745 0.764871 0.540846 0.188169
H6    H     H_    0.764861 0.141265 0.540854 0.188290
H7    H     H_    0.141255 0.235129 0.540846 0.188169
H8    H     H_    0.235139 0.858735 0.540854 0.188290
H9    H     H_    0.141698 0.765042 0.924280 0.215177
H10   H     H_    0.234940 0.141679 0.924286 0.215175
H11   H     H_    0.858302 0.234958 0.924280 0.215177
H12   H     H_    0.264871 0.358745 0.040846 0.188169
H13   H     H_    0.765060 0.858321 0.924286 0.215175
H14   H     H_    0.141679 0.234940 0.924286 0.215173
H15   H     H_    0.234958 0.858302 0.924280 0.215175
H16   H     H_    0.858321 0.765060 0.924286 0.215173
H17   H     H_    0.765042 0.141697 0.924280 0.215175
H18   H     H_    0.641697 0.265042 0.424280 0.215175
H19   H     H_    0.734940 0.641679 0.424286 0.215173
H20   H     H_    0.358303 0.734958 0.424280 0.215175
H21   H     H_    0.265060 0.358321 0.424286 0.215173
H22   H     H_    0.641679 0.734940 0.424286 0.215175
H23   H     H_    0.641265 0.264861 0.040854 0.188289
H24   H     H_    0.734958 0.358302 0.424280 0.215176
H25   H     H_    0.358321 0.265060 0.424286 0.215175
H26   H     H_    0.265042 0.641698 0.424280 0.215176
H27   H     H_    0.093239 0.813519 0.962726 0.205065
H28   H     H_    0.186474 0.093232 0.962739 0.205060
H29   H     H_    0.906761 0.186481 0.962726 0.205065
H30   H     H_    0.813526 0.906768 0.962739 0.205061
H31   H     H_    0.093232 0.186474 0.962739 0.205061
H32   H     H_    0.186481 0.906761 0.962726 0.205066
H33   H     H_    0.906768 0.813526 0.962739 0.205061
H34   H     H_    0.735129 0.641255 0.040846 0.188169
H35   H     H_    0.813518 0.093239 0.962726 0.205066
H36   H     H_    0.593239 0.313518 0.462726 0.205066
H37   H     H_    0.686474 0.593232 0.462739 0.205061
H38   H     H_    0.406761 0.686481 0.462726 0.205066
H39   H     H_    0.313526 0.406768 0.462739 0.205061
H40   H     H_    0.593232 0.686474 0.462739 0.205060
H41   H     H_    0.686481 0.406761 0.462726 0.205065
H42   H     H_    0.406768 0.313526 0.462739 0.205060
H43   H     H_    0.313518 0.593239 0.462726 0.205065
H44   H     H_    0.998014 0.383293 0.784373 0.182578
H45   H     H_    0.358745 0.264871 0.040846 0.188164
H46   H     H_    0.616698 0.002480 0.784373 0.182577
H47   H     H_    0.001986 0.616707 0.784373 0.182578
H48   H     H_    0.383302 0.997519 0.784373 0.182577
H49   H     H_    0.497544 0.883301 0.284373 0.182577
H50   H     H_    0.116707 0.501974 0.284373 0.182578
H51   H     H_    0.502456 0.116698 0.284373 0.182577
H52   H     H_    0.883293 0.498026 0.284373 0.182578
H53   H     H_    0.264861 0.641265 0.040854 0.188284
H54   H     H_    0.641255 0.735129 0.040846 0.188164
H55   H     H_    0.735139 0.358735 0.040854 0.188284
H56   H     H_    0.858735 0.235139 0.540854 0.188284
O1    O     O_3   0.500000 0.000000 0.000000 -0.488366
O2    O     O_R   0.500000 0.939300 0.418540 -0.636742
O3    O     O_R   0.060700 0.500000 0.418540 -0.636742
O4    O     O_R   0.500000 0.060700 0.418540 -0.636742
O5    O     O_R   0.500000 0.939270 0.081460 -0.623144
O6    O     O_R   0.060730 0.500000 0.081460 -0.623143
O7    O     O_R   0.500000 0.060730 0.081460 -0.623144
O8    O     O_R   0.939270 0.500000 0.081460 -0.623143
O9    O     O_R   0.000000 0.439270 0.581460 -0.623143
O10   O     O_R   0.560730 0.000000 0.581460 -0.623144
O11   O     O_R   0.000000 0.560730 0.581460 -0.623143
O12   O     O_3   0.000000 0.500000 0.000000 -0.488366
O13   O     O_R   0.439270 0.000000 0.581460 -0.623144
O14   O     O_R   0.646180 0.914510 0.978640 -0.644036
O15   O     O_R   0.085490 0.646180 0.978640 -0.644059
O16   O     O_R   0.353820 0.085490 0.978640 -0.644036
O17   O     O_R   0.914510 0.353820 0.978640 -0.644059
O18   O     O_R   0.646180 0.085490 0.978640 -0.644061
O19   O     O_R   0.085490 0.353820 0.978640 -0.644038
O20   O     O_R   0.353820 0.914510 0.978640 -0.644061
O21   O     O_R   0.914510 0.646180 0.978640 -0.644038
O22   O     O_R   0.146180 0.414510 0.478640 -0.644038
O23   O     O_3   0.000000 0.500000 0.500000 -0.488366
O24   O     O_R   0.585490 0.146180 0.478640 -0.644061
O25   O     O_R   0.853820 0.585490 0.478640 -0.644038
O26   O     O_R   0.414510 0.853820 0.478640 -0.644061
O27   O     O_R   0.146180 0.585490 0.478640 -0.644059
O28   O     O_R   0.585490 0.853820 0.478640 -0.644036
O29   O     O_R   0.853820 0.414510 0.478640 -0.644059
O30   O     O_R   0.414510 0.146180 0.478640 -0.644036
O31   O     O_R   0.414550 0.146120 0.021350 -0.643080
O32   O     O_R   0.853880 0.414550 0.021350 -0.642971
O33   O     O_R   0.585450 0.853880 0.021350 -0.643080
O34   O     O_3   0.500000 0.000000 0.500000 -0.488366
O35   O     O_R   0.146120 0.585450 0.021350 -0.642971
O36   O     O_R   0.414550 0.853880 0.021350 -0.642963
O37   O     O_R   0.853880 0.585450 0.021350 -0.643071
O38   O     O_R   0.585450 0.146120 0.021350 -0.642963
O39   O     O_R   0.146120 0.414550 0.021350 -0.643071
O40   O     O_R   0.914550 0.646120 0.521350 -0.643072
O41   O     O_R   0.353880 0.914550 0.521350 -0.642962
O42   O     O_R   0.085450 0.353880 0.521350 -0.643071
O43   O     O_R   0.646120 0.085450 0.521350 -0.642962
O44   O     O_R   0.914550 0.353880 0.521350 -0.642971
O45   O     O_R   0.439300 0.000000 0.918540 -0.636742
O46   O     O_R   0.353880 0.085450 0.521350 -0.643080
O47   O     O_R   0.085450 0.646120 0.521350 -0.642971
O48   O     O_R   0.646120 0.914550 0.521350 -0.643080
O49   O     O_R   1.000000 0.439300 0.918540 -0.636742
O50   O     O_R   0.560700 0.000000 0.918540 -0.636742
O51   O     O_R   1.000000 0.560700 0.918540 -0.636742
O52   O     O_R   0.939300 0.500000 0.418540 -0.636742
Zn1   Zn    Zn3+2 0.500000 0.913220 0.030510 0.992085
Zn2   Zn    Zn3+2 1.000000 0.586770 0.969480 0.968566
Zn3   Zn    Zn3+2 0.413230 0.000000 0.969480 0.968566
Zn4   Zn    Zn3+2 1.000000 0.413230 0.969480 0.968566
Zn5   Zn    Zn3+2 0.086770 0.500000 0.469480 0.968566
Zn6   Zn    Zn3+2 0.500000 0.086770 0.469480 0.968566
Zn7   Zn    Zn3+2 0.913230 0.500000 0.469480 0.968566
Zn8   Zn    Zn3+2 0.500000 0.913230 0.469480 0.968566
Zn9   Zn    Zn3+2 0.086780 0.500000 0.030510 0.992085
Zn10  Zn    Zn3+2 0.500000 0.086780 0.030510 0.992085
Zn11  Zn    Zn3+2 0.913220 0.500000 0.030510 0.992086
Zn12  Zn    Zn3+2 0.000000 0.413220 0.530510 0.992086
Zn13  Zn    Zn3+2 0.586780 0.000000 0.530510 0.992085
Zn14  Zn    Zn3+2 1.000000 0.586780 0.530510 0.992085
Zn15  Zn    Zn3+2 0.413220 0.000000 0.530510 0.992085
Zn16  Zn    Zn3+2 0.586770 0.000000 0.969480 0.968566

loop_
_geom_bond_atom_site_label_1
_geom_bond_atom_site_label_2
_ccdc_geom_bond_type
C20   C89   S    
O19   Zn4   S    
C7    C10   S    
Br6   C24   S    
C72   C112  S    
C19   C90   S    
C72   O41   A    
O52   Zn7   S    
O13   Zn15  S    
C38   C51   T    
O49   Zn4   S    
C24   C37   A    
C75   C105  S    
O47   Zn14  S    
C122  C127  A    
C34   C74   A    
C16   C19   S    
C49   C58   S    
C123  C126  A    
C84   C102  A    
C3    C124  A    
C65   C98   S    
C20   H26   S    
Br4   C85   S    
O41   Zn15  S    
C15   H38   S    
C124  H3    S    
O34   Zn8   S    
C56   O7    A    
C36   C118  A    
C30   C38   S    
C25   C31   A    
C12   H18   S    
C52   C55   S    
C1    C53   S    
C5    H10   S    
O23   Zn14  S    
Br1   C96   S    
C67   O36   A    
C70   C110  S    
C11   H35   S    
C113  C119  A    
C128  H7    S    
C78   C83   A    
C72   O26   A    
C5    C82   S    
C35   C44   S    
C71   O25   A    
C15   C94   S    
C91   C109  A    
C1    O50   A    
C8    H31   S    
C62   O16   A    
C48   C57   S    
C73   O27   A    
C88   C91   A    
C71   C109  S    
C86   C103  A    
O1    Zn16  S    
O45   Zn3   S    
O34   Zn6   S    
C77   O46   A    
O27   Zn5   S    
C113  H1    S    
O23   Zn12  S    
C4    C83   S    
C35   C107  A    
C7    C84   S    
O3    Zn5   S    
C58   O9    A    
C61   C101  S    
C36   C45   S    
C103  C121  A    
C127  H6    S    
O29   Zn7   S    
C28   C74   A    
C70   O43   A    
C14   C17   S    
C79   C97   A    
C21   C30   A    
C97   C114  A    
C125  C128  A    
C19   H42   S    
C7    H30   S    
C18   H24   S    
C114  H12   S    
O48   Zn13  S    
C22   C24   A    
C102  C120  A    
O12   Zn9   S    
C3    H8    S    
C120  H54   S    
C89   C94   A    
C59   O13   A    
O11   Zn14  S    
C34   C43   S    
C116  C120  A    
C23   H47   S    
C64   C103  S    
O40   Zn14  S    
C56   O5    A    
C115  C121  A    
C67   C95   S    
C42   C55   T    
C22   H46   S    
C116  H34   S    
C9    H15   S    
C106  C124  A    
C99   C116  A    
O22   Zn5   S    
O20   Zn3   S    
C10   H16   S    
C78   C95   A    
C61   O35   A    
O34   Zn13  S    
C65   O38   A    
C41   O51   A    
C122  H56   S    
C69   O22   A    
O39   Zn9   S    
C14   H19   S    
O33   Zn1   S    
C4    C9    S    
C80   C86   A    
C67   O20   A    
C52   O52   A    
C61   O15   A    
C117  H45   S    
C9    C78   S    
C93   C111  A    
C65   O18   A    
C28   C32   A    
O35   Zn9   S    
C11   C80   S    
O10   Zn13  S    
C70   O24   A    
O12   Zn11  S    
C45   C49   T    
C87   C92   A    
C63   O2    A    
C108  C125  A    
O38   Zn10  S    
O37   Zn11  S    
C13   C21   A    
C6    H11   S    
C21   H44   S    
C26   C96   A    
C73   O47   A    
C109  C126  A    
C81   C84   A    
C4    H9    S    
C98   C115  A    
C26   H49   S    
C8    C79   S    
C13   C36   A    
C80   C98   A    
Br2   C107  S    
C90   C108  A    
C64   O17   A    
C12   C92   S    
O43   Zn13  S    
O51   Zn2   S    
C47   C56   S    
C81   C99   A    
Br3   C74   S    
C46   C50   T    
C62   O31   A    
O1    Zn3   S    
C25   H48   S    
C29   C85   A    
O46   Zn15  S    
C60   C102  S    
C15   C20   S    
O44   Zn12  S    
C6    H29   S    
C27   C107  A    
O17   Zn4   S    
O12   Zn4   S    
C17   C88   S    
C59   O10   A    
C58   O11   A    
O30   Zn6   S    
O6    Zn9   S    
O24   Zn6   S    
C12   H36   S    
C37   C46   S    
C68   C99   S    
O28   Zn8   S    
C1    O45   A    
C100  C117  A    
O2    Zn8   S    
C88   C105  A    
C5    C8    S    
C92   C110  A    
C16   C93   S    
O9    Zn12  S    
O15   Zn2   S    
O42   Zn12  S    
C33   C42   S    
C7    H13   S    
C14   H37   S    
C94   C112  A    
C5    H28   S    
C31   C39   S    
C87   C104  A    
C77   O30   A    
C18   H41   S    
C18   C87   S    
C32   C40   S    
O14   Zn16  S    
C75   O48   A    
C3    C112  A    
C14   C91   S    
C105  C123  A    
C76   O44   A    
C16   H21   S    
C10   C81   S    
O26   Zn8   S    
C6    C11   S    
C77   C108  S    
C95   C113  A    
O50   Zn16  S    
C66   O39   A    
C69   C111  S    
C9    H32   S    
C34   C96   A    
O34   Zn15  S    
C39   C53   T    
C41   O49   A    
O7    Zn10  S    
O36   Zn1   S    
O23   Zn5   S    
C90   C93   A    
O25   Zn7   S    
C57   O8    A    
C111  C128  A    
C41   C51   S    
C23   C30   A    
C66   O19   A    
C76   O29   A    
C28   H51   S    
C17   H40   S    
O1    Zn10  S    
C2    C37   A    
C60   O33   A    
C40   C54   T    
O16   Zn3   S    
C82   C100  A    
C123  H2    S    
C62   C100  S    
C10   H33   S    
C126  H5    S    
C60   O14   A    
C75   O28   A    
O31   Zn10  S    
C83   C101  A    
C63   O4    A    
C12   C18   S    
C114  C117  A    
C27   H50   S    
C11   H17   S    
C121  H55   S    
O5    Zn1   S    
C69   O42   A    
C35   C85   A    
C101  C119  A    
C54   C63   S    
C2    C25   A    
C43   C47   T    
Br7   C118  S    
C29   C33   A    
O21   Zn2   S    
C27   C33   A    
C20   H43   S    
O12   Zn2   S    
C71   O40   A    
C115  H23   S    
C66   C97   S    
O8    Zn11  S    
C57   O6    A    
C29   H52   S    
C50   C59   S    
O23   Zn7   S    
Br5   C13   S    
C52   O3    A    
C125  H4    S    
Br8   C2    S    
C68   O21   A    
C79   C82   A    
O4    Zn6   S    
C17   H22   S    
C119  H53   S    
O1    Zn1   S    
C26   C32   A    
C8    H14   S    
C76   C104  S    
C68   O37   A    
C23   C118  A    
C104  C122  A    
C89   C106  A    
C15   H20   S    
C16   H39   S    
O18   Zn16  S    
C6    C86   S    
C19   H25   S    
C110  C127  A    
C44   C48   T    
O32   Zn11  S    
C22   C31   A    
C4    H27   S    
C73   C106  S    
C64   O32   A    
