data_mof_unit_21177.cif
_audit_creation_date              2012-12-10T16:39:33-0500
_audit_creation_method            fapswitch 2.2
_symmetry_space_group_name_H-M    P1
_symmetry_Int_Tables_number       1
_space_group_crystal_system       triclinic
_cell_length_a                    16.804867
_cell_length_b                    16.848608
_cell_length_c                    16.883168
_cell_angle_alpha                 65.961978
_cell_angle_beta                  65.72857
_cell_angle_gamma                 65.768059
_cell_volume                      3806.53783252

loop_
_atom_site_label
_atom_site_type_symbol
_atom_type_description
_atom_site_fract_x
_atom_site_fract_y
_atom_site_fract_z
_atom_type_partial_charge
C1    C     C_R   0.326789 0.947451 0.459391 0.024270
C2    C     C_R   0.329192 0.460284 0.942442 0.026102
C3    C     C_R   0.543392 0.409966 0.995668 0.007617
C4    C     C_R   0.971655 0.474095 0.595658 0.003157
C5    C     C_R   0.028330 0.525917 0.404340 0.003145
C6    C     C_2   0.249296 0.075397 0.787609 0.351879
C7    C     C_2   0.750706 0.924595 0.212395 0.351887
C8    C     C_2   0.154287 0.742879 0.250584 0.373592
C9    C     C_2   0.845644 0.257172 0.749414 0.373537
C10   C     C_2   0.778320 0.247720 0.093074 0.428007
C11   C     C_2   0.221670 0.752274 0.906953 0.427929
C12   C     C_2   0.174429 0.004441 0.716506 0.346537
C13   C     C_R   0.052559 0.671697 0.543914 0.042408
C14   C     C_2   0.825574 0.995551 0.283498 0.346524
C15   C     C_2   0.709277 0.170703 0.021821 0.338866
C16   C     C_2   0.290710 0.829288 0.978212 0.338831
C17   C     C_2   0.124173 0.654290 0.157767 0.313980
C18   C     C_2   0.875713 0.345795 0.842228 0.313931
C19   C     C_R   0.947439 0.328305 0.456085 0.042404
C20   C     C_R   0.459405 0.973916 0.459502 -0.015891
C21   C     C_R   0.540596 0.026081 0.540498 -0.015890
C22   C     C_R   0.989732 0.452650 0.454154 -0.015396
C23   C     C_R   0.010259 0.547358 0.545846 -0.015394
C24   C     C_R   0.459989 0.458834 0.974075 -0.017083
C25   C     C_R   0.540005 0.541161 0.025944 -0.017084
C26   C     C_R   0.962064 0.179363 0.438077 0.886974
C27   C     C_R   0.673211 0.052547 0.540609 0.024267
C28   C     C_R   0.037937 0.820637 0.561922 0.886973
C29   C     C_R   0.179683 0.437641 0.962895 0.879593
C30   C     C_R   0.820317 0.562358 0.037106 0.879593
C31   C     C_R   0.437453 0.963505 0.179508 0.890880
C32   C     C_R   0.562547 0.036495 0.820491 0.890884
C33   C     C_R   0.562900 0.820784 0.035409 0.893928
C34   C     C_R   0.437100 0.179216 0.964593 0.893933
C35   C     C_R   0.018472 0.569855 0.824422 0.890785
C36   C     C_R   0.981529 0.430145 0.175577 0.890785
C37   C     C_R   0.820633 0.035940 0.562799 0.891584
C38   C     C_R   0.003582 0.433133 0.313067 0.020369
C39   C     C_R   0.179366 0.964060 0.437201 0.891580
C40   C     C_R   0.415987 0.954459 0.415836 0.076535
C41   C     C_R   0.584014 0.045539 0.584164 0.076534
C42   C     C_R   0.979101 0.405536 0.408032 0.075360
C43   C     C_R   0.020895 0.594468 0.591968 0.075365
C44   C     C_R   0.416600 0.415148 0.954642 0.074509
C45   C     C_R   0.583396 0.584848 0.045372 0.074511
C46   C     C_R   0.278417 0.943419 0.408623 -0.114213
C47   C     C_R   0.721583 0.056581 0.591376 -0.114211
C48   C     C_R   0.980009 0.392801 0.269296 -0.113041
C49   C     C_R   0.996415 0.566871 0.686933 0.020381
C50   C     C_R   0.019992 0.607198 0.730703 -0.113039
C51   C     C_R   0.408866 0.277687 0.944585 -0.112757
C52   C     C_R   0.591133 0.722312 0.055421 -0.112762
C53   C     C_R   0.590887 0.057325 0.721438 -0.115961
C54   C     C_R   0.409113 0.942674 0.278562 -0.115960
C55   C     C_R   0.720716 0.591129 0.058340 -0.112878
C56   C     C_R   0.279283 0.408870 0.941664 -0.112874
C57   C     C_R   0.052809 0.722692 0.593979 -0.118624
C58   C     C_R   0.947193 0.277308 0.406020 -0.118618
C59   C     C_R   0.445042 0.063400 0.707249 -0.188465
C60   C     C_R   0.459672 0.325404 0.949900 0.026058
C61   C     C_R   0.554959 0.936598 0.292751 -0.188463
C62   C     C_R   0.082871 0.695082 0.448735 -0.189751
C63   C     C_R   0.917122 0.304924 0.551264 -0.189727
C64   C     C_R   0.704604 0.445276 0.068599 -0.173103
C65   C     C_R   0.295393 0.554721 0.931414 -0.173139
C66   C     C_R   0.288621 0.946988 0.551405 -0.179629
C67   C     C_R   0.711380 0.053010 0.448596 -0.179624
C68   C     C_R   0.551051 0.286280 0.953104 -0.168144
C69   C     C_R   0.448945 0.713716 0.046913 -0.168147
C70   C     C_R   0.051165 0.498838 0.265234 -0.166016
C71   C     C_R   0.540325 0.674593 0.050113 0.026047
C72   C     C_R   0.948824 0.501173 0.734765 -0.166072
C73   C     C_R   0.321774 0.936310 0.321781 -0.267793
C74   C     C_R   0.678226 0.063690 0.678219 -0.267784
C75   C     C_R   0.952050 0.316080 0.316263 -0.268406
C76   C     C_R   0.047955 0.683918 0.683735 -0.268407
C77   C     C_R   0.322167 0.321379 0.936313 -0.274006
C78   C     C_R   0.677834 0.678621 0.063689 -0.273997
C79   C     C_R   0.676215 0.020801 0.409018 0.065324
C80   C     C_R   0.323786 0.979196 0.590983 0.065324
C81   C     C_R   0.941545 0.449919 0.691267 0.077325
C82   C     C_R   0.539273 0.055567 0.672209 0.034676
C83   C     C_R   0.058429 0.550102 0.308731 0.077353
C84   C     C_R   0.411292 0.678506 0.012826 0.061137
C85   C     C_R   0.588701 0.321488 0.987195 0.061092
C86   C     C_R   0.599292 0.957492 0.333677 0.074439
C87   C     C_R   0.400709 0.042504 0.666324 0.074437
C88   C     C_R   0.337395 0.599990 0.949878 0.070239
C89   C     C_R   0.662599 0.400005 0.050141 0.070220
C90   C     C_R   0.921503 0.354389 0.599137 0.072315
C91   C     C_R   0.078477 0.645626 0.400862 0.072304
C92   C     C_R   0.728361 0.995627 0.327377 -0.067728
C93   C     C_R   0.460727 0.944431 0.327791 0.034676
C94   C     C_R   0.271640 0.004368 0.672625 -0.067729
C95   C     C_R   0.902795 0.376701 0.741344 -0.056256
C96   C     C_R   0.097152 0.623340 0.258651 -0.056268
C97   C     C_R   0.332604 0.731324 0.982489 -0.091511
C98   C     C_R   0.667387 0.268669 0.017537 -0.091554
C99   C     C_R   0.691521 0.959198 0.292589 -0.096000
C100  C     C_R   0.308480 0.040796 0.707413 -0.095987
C101  C     C_R   0.298927 0.693443 0.946026 -0.122045
C102  C     C_R   0.701065 0.306551 0.053998 -0.122005
C103  C     C_R   0.889913 0.331081 0.695268 -0.102258
C104  C     C_R   0.670806 0.539714 0.057569 0.026093
C105  C     C_R   0.110042 0.668953 0.304729 -0.102287
C106  C     C_R   0.549105 0.980592 0.415787 0.008891
C107  C     C_R   0.450895 0.019405 0.584214 0.008890
C108  C     C_R   0.961280 0.426750 0.549791 0.010584
C109  C     C_R   0.038705 0.573261 0.450208 0.010592
C110  C     C_R   0.417655 0.549588 0.976606 0.006096
C111  C     C_R   0.582339 0.450407 0.023414 0.006079
C112  C     C_R   0.588905 0.008502 0.455284 0.006092
C113  C     C_R   0.411096 0.991494 0.544717 0.006093
C114  C     C_R   0.456601 0.590028 0.004353 0.007613
H1    H     H_    0.283838 0.934494 0.284097 0.207983
H2    H     H_    0.887620 0.249411 0.587697 0.204128
H3    H     H_    0.763538 0.406453 0.092291 0.221323
H4    H     H_    0.236463 0.593546 0.907718 0.221324
H5    H     H_    0.232513 0.919646 0.593585 0.235342
H6    H     H_    0.767487 0.080352 0.406415 0.235346
H7    H     H_    0.594784 0.229767 0.926849 0.241668
H8    H     H_    0.405215 0.770231 0.073166 0.241667
H9    H     H_    0.087044 0.506905 0.194251 0.199534
H10   H     H_    0.912952 0.493102 0.805751 0.199545
H11   H     H_    0.205118 0.037573 0.844016 0.071497
H12   H     H_    0.716162 0.065507 0.715903 0.207980
H13   H     H_    0.794887 0.962416 0.155988 0.071503
H14   H     H_    0.130729 0.796015 0.194679 0.111783
H15   H     H_    0.869161 0.204058 0.805350 0.111868
H16   H     H_    0.834498 0.199121 0.060015 0.091519
H17   H     H_    0.165490 0.800869 0.940016 0.091481
H18   H     H_    0.122530 0.065284 0.732118 0.066480
H19   H     H_    0.877472 0.934706 0.267888 0.066467
H20   H     H_    0.719362 0.120978 0.085122 0.056146
H21   H     H_    0.280622 0.879016 0.914913 0.056149
H22   H     H_    0.187691 0.671228 0.120393 0.080073
H23   H     H_    0.940917 0.282040 0.280940 0.210998
H24   H     H_    0.812144 0.328953 0.879569 0.080118
H25   H     H_    0.059091 0.717957 0.719058 0.210997
H26   H     H_    0.284180 0.283716 0.934399 0.206094
H27   H     H_    0.715822 0.716285 0.065599 0.206097
H28   H     H_    0.405324 0.086719 0.766200 0.220147
H29   H     H_    0.594676 0.913280 0.233800 0.220146
H30   H     H_    0.112376 0.750592 0.412303 0.204121
O1    O     O_R   0.982940 0.138950 0.510160 -0.636792
O2    O     O_R   0.982940 0.510160 0.138950 -0.601684
O3    O     O_R   0.861050 0.017060 0.489840 -0.634777
O4    O     O_R   0.138950 0.982940 0.510160 -0.634777
O5    O     O_R   0.867700 0.025880 0.612340 -0.615070
O6    O     O_R   0.132300 0.974120 0.387660 -0.615069
O7    O     O_R   0.025880 0.612340 0.867700 -0.621587
O8    O     O_R   0.974120 0.387660 0.132300 -0.621596
O9    O     O_R   0.612340 0.867700 0.025880 -0.613955
O10   O     O_R   0.387660 0.132300 0.974120 -0.613958
O11   O     O_R   0.387660 0.974120 0.132300 -0.603727
O12   O     O_R   0.017060 0.861050 0.489840 -0.636793
O13   O     O_R   0.612340 0.025880 0.867700 -0.603727
O14   O     O_R   0.132300 0.387660 0.974120 -0.608704
O15   O     O_R   0.867700 0.612340 0.025880 -0.608693
O16   O     O_R   0.974120 0.132300 0.387660 -0.603051
O17   O     O_R   0.025880 0.867700 0.612340 -0.603051
O18   O     O_2   0.245064 0.149062 0.788697 -0.549740
O19   O     O_2   0.754936 0.850930 0.211309 -0.549727
O20   O     O_2   0.219981 0.742254 0.265155 -0.547740
O21   O     O_2   0.779973 0.257791 0.734809 -0.547789
O22   O     O_2   0.777372 0.249730 0.164930 -0.526893
O23   O     O_R   0.138950 0.510160 0.982940 -0.637026
O24   O     O_2   0.222619 0.750271 0.835094 -0.526864
O25   O     O_2   0.152173 0.935999 0.739858 -0.541352
O26   O     O_2   0.847831 0.063992 0.260145 -0.541368
O27   O     O_2   0.737149 0.145460 0.954401 -0.581000
O28   O     O_2   0.262835 0.854525 0.045636 -0.580953
O29   O     O_2   0.073747 0.665633 0.116281 -0.562747
O30   O     O_2   0.926136 0.334387 0.883747 -0.562786
O31   O     O_R   0.861050 0.489840 0.017060 -0.637017
O32   O     O_R   0.510160 0.982940 0.138950 -0.643610
O33   O     O_R   0.489840 0.017060 0.861050 -0.643613
O34   O     O_R   0.489840 0.861050 0.017060 -0.635332
O35   O     O_R   0.510160 0.138950 0.982940 -0.635326
O36   O     O_R   0.017060 0.489840 0.861050 -0.601716
Zn1   Zn    Zn3+2 0.004880 0.004880 0.583590 1.026926
Zn2   Zn    Zn3+2 0.995120 0.995120 0.416410 1.026926
Zn3   Zn    Zn3+2 0.004880 0.583590 0.004880 1.072882
Zn4   Zn    Zn3+2 0.995120 0.416410 0.995120 1.072859
Zn5   Zn    Zn3+2 0.583590 0.004880 0.004880 1.037284
Zn6   Zn    Zn3+2 0.416410 0.995120 0.995120 1.037271

loop_
_geom_bond_atom_site_label_1
_geom_bond_atom_site_label_2
_ccdc_geom_bond_type
C96   C105  A    
C38   C70   A    
C68   C85   A    
C25   C45   A    
C89   C102  A    
C3    C85   A    
C91   C105  A    
C53   C74   A    
C59   C82   A    
C40   C93   A    
C14   O26   D    
C2    C65   A    
C8    C105  S    
C51   C77   A    
C88   C101  A    
C3    C24   A    
C25   C111  A    
O32   Zn5   S    
O6    Zn2   S    
C15   H20   S    
C106  C112  A    
C28   C57   S    
C33   C52   S    
O10   Zn6   S    
C39   O6    A    
C34   C51   S    
C7    C99   S    
O2    Zn3   S    
C84   C97   A    
C57   C76   A    
O13   Zn5   S    
C38   C42   A    
C20   C113  A    
C81   C95   A    
C61   C93   A    
C1    C46   A    
C13   C57   A    
C41   C82   A    
O1    Zn1   S    
C6    H11   S    
C23   C43   A    
C69   C71   A    
C87   C100  A    
C18   H24   S    
C27   C41   A    
C107  C113  A    
C54   C93   A    
C85   C98   A    
C1    C40   A    
C70   H9    S    
C61   H29   S    
O23   Zn3   S    
C5    C22   A    
C6    O18   D    
C59   H28   S    
C19   C63   A    
O4    Zn1   S    
C95   C103  A    
C49   C72   A    
C39   O4    A    
C28   O17   A    
C65   H4    S    
C77   H26   S    
C26   O16   A    
C37   C47   S    
C67   H6    S    
C110  C114  A    
C38   C48   A    
C72   C81   A    
C19   C42   A    
C10   O22   D    
C88   C110  A    
C72   H10   S    
O5    Zn1   S    
C18   C95   S    
C48   C75   A    
C12   C94   S    
C34   O35   A    
C86   C106  A    
C35   O7    A    
C64   C89   A    
C17   H22   S    
C52   C78   A    
O16   Zn2   S    
C17   O29   D    
C58   C75   A    
C20   C106  A    
C31   O32   A    
C34   O10   A    
C19   C58   A    
C30   O15   A    
C23   C109  A    
C13   C62   A    
C12   O25   D    
C10   C102  S    
C24   C110  A    
O33   Zn6   S    
C5    C109  A    
C75   H23   S    
C78   H27   S    
C2    C44   A    
C55   C78   A    
O12   Zn2   S    
C43   C49   A    
C36   O8    A    
C98   C102  A    
C7    O19   D    
C55   C104  A    
C64   H3    S    
C53   C82   A    
C6    C100  S    
C26   O1    A    
C10   H16   S    
C86   C99   A    
C45   C104  A    
C50   C76   A    
C54   C73   A    
C8    H14   S    
C16   O28   D    
C30   O31   A    
C94   C100  A    
C9    C103  S    
C62   C91   A    
C35   C50   S    
O17   Zn1   S    
C1    C66   A    
C15   O27   D    
C11   C101  S    
C17   C96   S    
C37   O3    A    
C70   C83   A    
C26   C58   S    
C14   C92   S    
C79   C92   A    
C21   C107  A    
C39   C46   S    
C21   C41   A    
C63   H2    S    
C79   C112  A    
O3    Zn2   S    
C36   O2    A    
C29   C56   S    
C66   H5    S    
C8    O20   D    
C11   O24   D    
C24   C44   A    
C32   O33   A    
O8    Zn4   S    
C15   C98   S    
C80   C94   A    
C18   O30   D    
C32   C53   S    
C13   C43   A    
C21   C112  A    
C45   C71   A    
C65   C88   A    
C28   O12   A    
C32   O13   A    
C76   H25   S    
C27   C47   A    
C35   O36   A    
C4    C23   A    
C84   C114  A    
C12   H18   S    
C33   O34   A    
C64   C104  A    
C47   C74   A    
C37   O5    A    
O11   Zn6   S    
C11   H17   S    
C68   H7    S    
C31   O11   A    
C5    C83   A    
O7    Zn3   S    
C29   O14   A    
O35   Zn5   S    
C14   H19   S    
C9    H15   S    
C66   C80   A    
C30   C55   S    
C89   C111  A    
C73   H1    S    
O15   Zn3   S    
C91   C109  A    
C9    O21   D    
C90   C108  A    
C69   C84   A    
C2    C56   A    
C25   C114  A    
C29   O23   A    
C74   H12   S    
O9    Zn5   S    
C69   H8    S    
C44   C60   A    
C20   C40   A    
C83   C96   A    
C4    C81   A    
C63   C90   A    
C36   C48   S    
C33   O9    A    
C46   C73   A    
C31   C54   S    
C22   C108  A    
C16   C97   S    
C59   C87   A    
C90   C103  A    
C27   C67   A    
C61   C86   A    
C56   C77   A    
C3    C111  A    
O34   Zn6   S    
C87   C107  A    
C80   C113  A    
C60   C68   A    
C49   C50   A    
C22   C42   A    
C52   C71   A    
C51   C60   A    
C4    C108  A    
C7    H13   S    
C16   H21   S    
O14   Zn4   S    
C67   C79   A    
C97   C101  A    
O36   Zn4   S    
C92   C99   A    
C62   H30   S    
O31   Zn4   S    
