data_mof_unit_14342.cif
_audit_creation_date              2012-12-11T14:10:42-0500
_audit_creation_method            fapswitch 2.2
_symmetry_space_group_name_H-M    P1
_symmetry_Int_Tables_number       1
_space_group_crystal_system       triclinic
_cell_length_a                    20.227825
_cell_length_b                    17.097837
_cell_length_c                    15.719766
_cell_angle_alpha                 90.028215
_cell_angle_beta                  51.047397
_cell_angle_gamma                 89.984902
_cell_volume                      4227.94705897

loop_
_atom_site_label
_atom_site_type_symbol
_atom_type_description
_atom_site_fract_x
_atom_site_fract_y
_atom_site_fract_z
_atom_type_partial_charge
C1    C     C_R   0.341246 0.176983 0.048958 -0.038325
C2    C     C_R   0.633219 0.804961 0.991821 -0.083156
C3    C     C_R   0.658278 0.177398 0.951924 -0.040635
C4    C     C_R   0.366764 0.805019 0.008296 -0.087741
C5    C     C_R   0.841246 0.676983 0.048958 -0.038325
C6    C     C_R   0.133219 0.304961 0.991821 -0.083156
C7    C     C_R   0.158278 0.677398 0.951924 -0.040635
C8    C     C_R   0.866764 0.305019 0.008296 -0.087741
C9    C     C_3   0.281075 0.234759 0.571610 -0.255165
C10   C     C_3   0.825903 0.822870 0.398976 -0.252020
C11   C     C_3   0.705553 0.240683 0.430855 -0.217734
C12   C     C_3   0.190904 0.815438 0.594219 -0.276711
C13   C     C_3   0.781075 0.734759 0.571610 -0.255165
C14   C     C_3   0.325903 0.322869 0.398976 -0.252020
C15   C     C_3   0.205553 0.740684 0.430855 -0.217734
C16   C     C_3   0.690903 0.315438 0.594219 -0.276711
C17   C     C_2   0.278607 0.696463 0.953516 -0.106071
C18   C     C_2   0.764457 0.272390 0.978259 -0.159161
C19   C     C_2   0.720878 0.696151 0.047400 -0.104831
C20   C     C_2   0.235011 0.272103 0.022907 -0.159990
C21   C     C_2   0.778607 0.196463 0.953516 -0.106071
C22   C     C_2   0.264457 0.772390 0.978259 -0.159161
C23   C     C_2   0.220878 0.196151 0.047400 -0.104831
C24   C     C_2   0.735011 0.772103 0.022907 -0.159990
C25   C     C_R   0.347841 0.829764 0.222431 -0.069615
C26   C     C_R   0.601546 0.198790 0.788191 -0.088376
C27   C     C_R   0.652288 0.829790 0.777301 -0.063533
C28   C     C_R   0.400386 0.199296 0.210477 -0.071153
C29   C     C_R   0.847841 0.329764 0.222431 -0.069615
C30   C     C_R   0.101546 0.698790 0.788191 -0.088376
C31   C     C_R   0.152288 0.329790 0.777301 -0.063533
C32   C     C_R   0.900386 0.699296 0.210477 -0.071153
C33   C     C_R   0.350721 0.894834 0.919428 -0.117688
C34   C     C_R   0.669942 0.088549 0.045757 -0.124092
C35   C     C_R   0.649091 0.894780 0.080867 -0.116536
C36   C     C_R   0.329864 0.088348 0.954644 -0.123978
C37   C     C_R   0.850721 0.394834 0.919428 -0.117688
C38   C     C_R   0.169942 0.588549 0.045757 -0.124092
C39   C     C_R   0.149090 0.394780 0.080867 -0.116536
C40   C     C_R   0.829864 0.588348 0.954644 -0.123978
C41   C     C_R   0.403372 0.106667 0.306345 -0.169846
C42   C     C_R   0.644177 0.921457 0.682674 -0.147821
C43   C     C_R   0.596989 0.106232 0.693434 -0.146544
C44   C     C_R   0.355770 0.921482 0.317343 -0.129734
C45   C     C_R   0.903372 0.606667 0.306345 -0.169846
C46   C     C_R   0.144177 0.421457 0.682674 -0.147821
C47   C     C_R   0.096989 0.606232 0.693434 -0.146544
C48   C     C_R   0.855770 0.421482 0.317343 -0.129734
C49   C     C_R   0.289182 0.150731 0.026872 0.041993
C50   C     C_R   0.673067 0.821088 0.034783 0.058766
C51   C     C_R   0.710322 0.151155 0.974048 0.041845
C52   C     C_R   0.326737 0.821223 0.965629 0.057676
C53   C     C_R   0.789182 0.650731 0.026872 0.041993
C54   C     C_R   0.173067 0.321088 0.034783 0.058766
C55   C     C_R   0.210322 0.651155 0.974048 0.041845
C56   C     C_R   0.826737 0.321223 0.965629 0.057676
C57   C     C_R   0.306020 0.862846 0.324195 0.024179
C58   C     C_R   0.615683 0.182467 0.692850 0.034263
C59   C     C_R   0.694116 0.862746 0.675373 0.028804
C60   C     C_R   0.386992 0.183486 0.305292 0.043570
C61   C     C_R   0.806020 0.362846 0.324195 0.024179
C62   C     C_R   0.115683 0.682467 0.692850 0.034263
C63   C     C_R   0.194116 0.362746 0.675373 0.028805
C64   C     C_R   0.886992 0.683486 0.305292 0.043570
C65   C     C_3   0.258140 0.218996 0.497370 0.263094
C66   C     C_3   0.848072 0.839451 0.474829 0.253436
C67   C     C_3   0.737252 0.210947 0.491516 0.269094
C68   C     C_3   0.159788 0.845538 0.532654 0.255414
C69   C     C_3   0.758139 0.718996 0.497369 0.263095
C70   C     C_3   0.348072 0.339452 0.474828 0.253435
C71   C     C_3   0.237252 0.710947 0.491516 0.269094
C72   C     C_3   0.659788 0.345538 0.532654 0.255414
C73   C     C_3   0.733524 0.803758 0.500327 -0.176545
C74   C     C_3   0.374119 0.253375 0.469494 -0.204149
C75   C     C_3   0.275492 0.789786 0.484287 -0.216923
C76   C     C_3   0.619800 0.265491 0.542595 -0.202406
C77   C     C_3   0.233524 0.303758 0.500327 -0.176545
C78   C     C_3   0.874119 0.753375 0.469494 -0.204149
C79   C     C_3   0.775491 0.289786 0.484287 -0.216924
C80   C     C_3   0.119800 0.765492 0.542595 -0.202406
C81   C     C_3   0.757120 0.821043 0.574761 0.062836
C82   C     C_3   0.349231 0.236467 0.396498 0.073062
C83   C     C_3   0.243224 0.821034 0.424172 0.083682
C84   C     C_3   0.653679 0.234869 0.601062 0.078472
C85   C     C_3   0.257120 0.321043 0.574761 0.062837
C86   C     C_3   0.849231 0.736467 0.396498 0.073061
C87   C     C_3   0.743224 0.321034 0.424172 0.083683
C88   C     C_3   0.153679 0.734869 0.601062 0.078472
H1    H     H_    0.327291 0.779711 0.203719 0.131391
H2    H     H_    0.593181 0.257166 0.818714 0.159025
H3    H     H_    0.673248 0.780150 0.796085 0.129447
H4    H     H_    0.409347 0.257467 0.179160 0.154379
H5    H     H_    0.827291 0.279711 0.203719 0.131391
H6    H     H_    0.093182 0.757166 0.818714 0.159025
H7    H     H_    0.173248 0.280150 0.796085 0.129447
H8    H     H_    0.909347 0.757467 0.179160 0.154379
H9    H     H_    0.336508 0.922575 0.870794 0.116899
H10   H     H_    0.690369 0.056979 0.085136 0.127219
H11   H     H_    0.663112 0.922546 0.129709 0.117095
H12   H     H_    0.309479 0.056805 0.915186 0.126945
H13   H     H_    0.836508 0.422575 0.870794 0.116899
H14   H     H_    0.190368 0.556979 0.085136 0.127219
H15   H     H_    0.163112 0.422546 0.129709 0.117095
H16   H     H_    0.809479 0.556805 0.915186 0.126945
H17   H     H_    0.408043 0.077844 0.363624 0.100087
H18   H     H_    0.656419 0.956025 0.616593 0.109577
H19   H     H_    0.590241 0.077812 0.637874 0.104213
H20   H     H_    0.343461 0.955822 0.383684 0.097830
H21   H     H_    0.908043 0.577844 0.363624 0.100086
H22   H     H_    0.156419 0.456025 0.616593 0.109577
H23   H     H_    0.090241 0.577812 0.637874 0.104213
H24   H     H_    0.843460 0.455822 0.383684 0.097830
H25   H     H_    0.675425 0.823459 0.513374 0.136519
H26   H     H_    0.433089 0.233043 0.453659 0.130568
H27   H     H_    0.340002 0.798504 0.459240 0.148618
H28   H     H_    0.554852 0.255438 0.569813 0.133009
H29   H     H_    0.175425 0.323459 0.513374 0.136519
H30   H     H_    0.933089 0.733043 0.453660 0.130568
H31   H     H_    0.840002 0.298504 0.459241 0.148618
H32   H     H_    0.054852 0.755439 0.569814 0.133009
H33   H     H_    0.262162 0.197581 0.641564 0.155398
H34   H     H_    0.845756 0.858854 0.327634 0.143242
H35   H     H_    0.711088 0.210819 0.363933 0.150050
H36   H     H_    0.183968 0.846754 0.661301 0.144338
H37   H     H_    0.762162 0.697581 0.641564 0.155398
H38   H     H_    0.345756 0.358854 0.327634 0.143242
H39   H     H_    0.211087 0.710819 0.363934 0.150050
H40   H     H_    0.683967 0.346754 0.661301 0.144338
H41   H     H_    0.339065 0.668337 0.917201 0.148185
H42   H     H_    0.702875 0.299300 0.017802 0.143938
H43   H     H_    0.660574 0.668040 0.083016 0.148714
H44   H     H_    0.296478 0.298972 0.983970 0.146272
H45   H     H_    0.839065 0.168337 0.917201 0.148185
H46   H     H_    0.202876 0.799300 0.017802 0.143938
H47   H     H_    0.160574 0.168040 0.083016 0.148714
H48   H     H_    0.796478 0.798972 0.983970 0.146272
N1    N     N_R   0.408680 0.130810 0.995780 -0.070539
N2    N     N_R   0.591320 0.869190 0.004220 -0.071388
N3    N     N_R   0.591320 0.130810 0.004220 -0.070905
N4    N     N_R   0.408680 0.869190 0.995780 -0.070901
N5    N     N_R   0.908680 0.630810 0.995780 -0.070539
N6    N     N_R   0.091320 0.369190 0.004220 -0.071388
N7    N     N_R   0.091320 0.630810 0.004220 -0.070905
N8    N     N_R   0.908680 0.369190 0.995780 -0.070901
N9    N     N_R   0.421410 0.867210 0.153620 -0.034747
N10   N     N_R   0.578590 0.132790 0.846380 -0.055966
N11   N     N_R   0.578590 0.867210 0.846380 -0.034959
N12   N     N_R   0.421410 0.132790 0.153620 -0.055976
N13   N     N_R   0.921410 0.367210 0.153620 -0.034747
N14   N     N_R   0.078590 0.632790 0.846380 -0.055966
N15   N     N_R   0.078590 0.367210 0.846380 -0.034959
N16   N     N_R   0.921410 0.632790 0.153620 -0.055976
N17   N     N_R   0.403840 0.921910 0.935760 -0.054491
N18   N     N_R   0.596160 0.078090 0.064240 -0.055300
N19   N     N_R   0.596160 0.921910 0.064240 -0.054670
N20   N     N_R   0.403840 0.078090 0.935760 -0.055480
N21   N     N_R   0.903840 0.421910 0.935760 -0.054491
N22   N     N_R   0.096160 0.578090 0.064240 -0.055300
N23   N     N_R   0.096160 0.421910 0.064240 -0.054670
N24   N     N_R   0.903840 0.578090 0.935760 -0.055480
N25   N     N_R   0.426250 0.076100 0.213650 -0.041052
N26   N     N_R   0.573750 0.923900 0.786350 -0.041021
N27   N     N_R   0.573750 0.076100 0.786350 -0.044754
N28   N     N_R   0.426250 0.923900 0.213650 -0.042169
N29   N     N_R   0.926250 0.576100 0.213650 -0.041052
N30   N     N_R   0.073750 0.423900 0.786350 -0.041021
N31   N     N_R   0.073750 0.576100 0.786350 -0.044754
N32   N     N_R   0.926250 0.423900 0.213650 -0.042169
Ni1   Ni    Ni4+2 0.500000 0.131570 0.000000 0.269751
Ni2   Ni    Ni4+2 0.500000 0.868430 0.000000 0.277313
Ni3   Ni    Ni4+2 0.000000 0.631570 0.000000 0.269751
Ni4   Ni    Ni4+2 0.000000 0.368430 0.000000 0.277313
Ni5   Ni    Ni4+2 0.488900 0.000000 0.862310 0.206243
Ni6   Ni    Ni4+2 0.511100 0.000000 0.137690 0.208162
Ni7   Ni    Ni4+2 0.988900 0.500000 0.862310 0.206243
Ni8   Ni    Ni4+2 0.011100 0.500000 0.137690 0.208162
C89   C     C_2   0.336055 0.252983 0.096529 0.925485
O1    O     O_2   0.396808 0.297537 0.044677 -0.641634
O2    O     O_R   0.260458 0.275629 0.197467 -0.795082
H49   H     H_    0.264480 0.329584 0.220680 0.317797
C90   C     C_2   0.605592 0.726300 0.987783 0.976495
O3    O     O_2   0.657168 0.679051 0.918628 -0.673116
O4    O     O_R   0.521152 0.704367 0.069487 -0.790487
H50   H     H_    0.510887 0.646954 0.065471 0.329390
C91   C     C_2   0.662621 0.253778 0.905830 0.923596
O5    O     O_2   0.600907 0.297318 0.957789 -0.642947
O6    O     O_R   0.738399 0.277923 0.806252 -0.801300
H51   H     H_    0.733890 0.332217 0.784411 0.315335
C92   C     C_2   0.394966 0.726353 0.011281 0.982592
O7    O     O_2   0.343915 0.679002 0.080590 -0.673700
O8    O     O_R   0.479251 0.704507 0.928327 -0.798374
H52   H     H_    0.489853 0.647073 0.931666 0.326680
C93   C     C_2   0.836055 0.752983 0.096529 0.925485
O9    O     O_2   0.896808 0.797537 0.044677 -0.641633
O10   O     O_R   0.760458 0.775629 0.197467 -0.795082
H53   H     H_    0.764480 0.829584 0.220680 0.317797
C94   C     C_2   0.105592 0.226300 0.987783 0.976495
O11   O     O_2   0.157168 0.179051 0.918628 -0.673116
O12   O     O_R   0.021152 0.204367 0.069487 -0.790487
H54   H     H_    0.010887 0.146954 0.065471 0.329390
C95   C     C_2   0.162621 0.753778 0.905831 0.923595
O13   O     O_2   0.100907 0.797318 0.957789 -0.642947
O14   O     O_R   0.238399 0.777923 0.806252 -0.801300
H55   H     H_    0.233890 0.832217 0.784411 0.315335
C96   C     C_2   0.894966 0.226353 0.011281 0.982592
O15   O     O_2   0.843916 0.179002 0.080590 -0.673701
O16   O     O_R   0.979251 0.204507 0.928327 -0.798374
H56   H     H_    0.989853 0.147073 0.931666 0.326680
N33   N     N_2   0.208436 0.152413 0.509604 -0.108508
H57   H     H_    0.238165 0.099693 0.496717 0.155545
C97   C     C_3   0.120975 0.152614 0.608738 -0.866190
H58   H     H_    0.087137 0.101611 0.608600 0.246711
H59   H     H_    0.088024 0.206519 0.613825 0.259582
H60   H     H_    0.118036 0.148791 0.681634 0.259799
N34   N     N_2   0.894169 0.906896 0.468326 -0.114110
H61   H     H_    0.859804 0.958075 0.491740 0.166739
C98   C     C_3   0.979979 0.913989 0.367063 -0.907238
H62   H     H_    0.011458 0.964857 0.372154 0.260079
H63   H     H_    0.979328 0.923161 0.297615 0.255936
H64   H     H_    0.017271 0.860634 0.352249 0.254118
N35   N     N_2   0.783259 0.138619 0.469202 -0.106406
H65   H     H_    0.780370 0.118298 0.533192 0.173182
C99   C     C_3   0.776774 0.079095 0.409422 -0.917819
H66   H     H_    0.813223 0.026503 0.399515 0.245909
H67   H     H_    0.804314 0.100888 0.326595 0.279017
H68   H     H_    0.709477 0.062270 0.453617 0.234452
N36   N     N_2   0.119623 0.920817 0.553070 -0.109902
H69   H     H_    0.154590 0.966103 0.550203 0.163760
C100  C     C_3   0.090360 0.936247 0.491211 -0.903176
H70   H     H_    0.056711 0.993319 0.516808 0.256142
H71   H     H_    0.045211 0.890170 0.506850 0.262475
H72   H     H_    0.145048 0.938700 0.402325 0.249358
N37   N     N_2   0.708436 0.652413 0.509604 -0.108508
H73   H     H_    0.738165 0.599693 0.496717 0.155545
C101  C     C_3   0.620975 0.652614 0.608738 -0.866190
H74   H     H_    0.587137 0.601611 0.608599 0.246711
H75   H     H_    0.588024 0.706519 0.613825 0.259582
H76   H     H_    0.618036 0.648790 0.681634 0.259800
N38   N     N_2   0.394169 0.406896 0.468326 -0.114110
H77   H     H_    0.359804 0.458075 0.491740 0.166739
C102  C     C_3   0.479979 0.413989 0.367063 -0.907236
H78   H     H_    0.511458 0.464857 0.372154 0.260078
H79   H     H_    0.479328 0.423161 0.297614 0.255935
H80   H     H_    0.517271 0.360635 0.352250 0.254118
N39   N     N_2   0.283259 0.638618 0.469202 -0.106406
H81   H     H_    0.280370 0.618298 0.533192 0.173182
C103  C     C_3   0.276773 0.579095 0.409421 -0.917818
H82   H     H_    0.313223 0.526503 0.399515 0.245908
H83   H     H_    0.304314 0.600888 0.326595 0.279017
H84   H     H_    0.209476 0.562270 0.453617 0.234452
N40   N     N_2   0.619623 0.420816 0.553069 -0.109902
H85   H     H_    0.654589 0.466103 0.550203 0.163760
C104  C     C_3   0.590360 0.436247 0.491210 -0.903177
H86   H     H_    0.556711 0.493319 0.516808 0.256143
H87   H     H_    0.545211 0.390169 0.506849 0.262475
H88   H     H_    0.645048 0.438700 0.402325 0.249358

loop_
_geom_bond_atom_site_label_1
_geom_bond_atom_site_label_2
_ccdc_geom_bond_type
N2    N19   A    
C68   C80   S    
C29   H5    S    
O14   H55   S    
C80   H32   S    
N39   C103  S    
C41   N25   A    
N2    Ni2   S    
N13   Ni4   S    
C14   C70   S    
C95   O13   D    
N34   H61   S    
C99   H66   S    
C16   C72   S    
C15   C80   S    
C16   C84   S    
N6    N23   A    
C72   C76   S    
C75   C83   S    
C76   C84   S    
C47   C62   A    
C7    N7    A    
N16   N29   A    
C65   C82   S    
C99   H68   S    
N40   H85   S    
N26   Ni5   S    
C90   O3    D    
C98   H64   S    
C27   H3    S    
C12   C68   S    
C34   C51   A    
N35   H65   S    
C10   C66   S    
C41   H17   S    
C22   H46   S    
N12   N25   A    
N17   Ni5   S    
N6    Ni4   S    
C78   H30   S    
C35   N19   A    
C100  H72   S    
C77   H29   S    
C11   C76   S    
N34   C98   S    
C104  H86   S    
C10   C73   S    
C33   N17   A    
C91   O6    S    
C39   C54   A    
C4    N4    A    
C74   H26   S    
C13   C81   S    
N5    Ni3   S    
C73   H25   S    
C67   N35   S    
C102  H78   S    
C14   C77   S    
C37   N21   A    
C66   N34   S    
C26   N10   A    
C69   N37   S    
C32   H8    S    
C61   C87   S    
C43   C58   A    
C9    C85   S    
N9    Ni2   S    
C37   C56   A    
C60   C82   S    
C26   C58   A    
C38   C55   A    
N38   H77   S    
C11   C87   S    
C89   O2    S    
C79   H31   S    
C70   C74   S    
C9    H33   S    
C101  H74   S    
C57   C83   S    
C69   C73   S    
C44   N28   A    
C7    C55   A    
C6    N6    A    
C2    C50   A    
N37   H73   S    
C17   C55   S    
C5    C93   S    
C65   N33   S    
N11   Ni2   S    
C18   C56   S    
N4    N17   A    
C13   H37   S    
C78   C86   S    
C44   H20   S    
C19   C53   S    
C77   C85   S    
O12   H54   S    
C15   H39   S    
N39   H81   S    
C63   C85   S    
C24   C50   S    
C95   O14   S    
C34   H10   S    
C8    C56   A    
C92   O7    D    
N13   N32   A    
C25   C57   A    
C20   H44   S    
C35   H11   S    
C3    C91   S    
C21   H45   S    
C11   C67   S    
N12   Ni1   S    
C103  H83   S    
N14   Ni3   S    
C19   H43   S    
C66   C78   S    
C27   N11   A    
C29   C61   A    
N20   Ni5   S    
C64   C86   S    
C28   N12   A    
N18   Ni6   S    
C17   H41   S    
O8    H52   S    
C2    N2    A    
C31   C63   A    
C65   C77   S    
C32   C64   A    
C8    N8    A    
C42   H18   S    
C90   O4    S    
C104  H87   S    
N16   Ni3   S    
C3    C51   A    
C15   C83   S    
N3    N18   A    
C93   O10   S    
C98   H62   S    
C96   O15   D    
C62   C88   S    
N38   C102  S    
N15   Ni4   S    
O16   H56   S    
N1    N20   A    
C102  H79   S    
C2    C90   S    
O4    H50   S    
C97   H58   S    
C100  H70   S    
N33   C97   S    
C58   C84   S    
N24   Ni7   S    
C40   H16   S    
C47   N31   A    
N5    N24   A    
C5    N5    A    
N36   H69   S    
C32   N16   A    
C20   C23   D    
C44   C57   A    
C12   C75   S    
C68   N36   S    
C35   C50   A    
C42   N26   A    
N33   H57   S    
N30   Ni7   S    
C67   C79   S    
C36   H12   S    
C43   H19   S    
C1    C89   S    
N28   Ni6   S    
C71   C88   S    
N37   C101  S    
C38   N22   A    
C79   C87   S    
C28   C60   A    
C73   C81   S    
N19   Ni6   S    
C20   C54   S    
C48   H24   S    
N40   C104  S    
N21   Ni7   S    
C48   N32   A    
C6    C54   A    
C34   N18   A    
N23   Ni8   S    
C30   C62   A    
C101  H75   S    
C100  H71   S    
C101  H76   S    
C97   H59   S    
C18   H42   S    
C3    N3    A    
C70   N38   S    
C14   C82   S    
N27   Ni5   S    
C21   C51   S    
C72   C87   S    
C1    N1    A    
C36   N20   A    
N7    N22   A    
C22   C52   S    
C74   C82   S    
C103  H84   S    
N22   Ni8   S    
N32   Ni8   S    
C18   C21   D    
C13   C78   S    
C10   C86   S    
N4    Ni2   S    
C46   N30   A    
C30   N14   A    
C39   N23   A    
C68   C83   S    
N1    Ni1   S    
C4    C92   S    
C40   N24   A    
C25   N9    A    
C11   H35   S    
C59   C81   S    
C41   C60   A    
C10   H34   S    
N11   N26   A    
C42   C59   A    
C6    C94   S    
C33   C52   A    
C103  H82   S    
C99   H67   S    
C39   H15   S    
C80   C88   S    
C8    C96   S    
N9    N28   A    
O2    H49   S    
C98   H63   S    
N15   N30   A    
C15   C71   S    
N10   N27   A    
N8    Ni4   S    
C45   C64   A    
C25   H1    S    
C17   C22   D    
C14   H38   S    
C23   H47   S    
C46   C63   A    
N35   C99   S    
C16   C79   S    
C102  H80   S    
C104  H88   S    
C94   O12   S    
C19   C24   D    
C5    C53   A    
N7    Ni3   S    
O6    H51   S    
C38   H14   S    
N36   C100  S    
C27   C59   A    
C7    C95   S    
C66   C81   S    
C37   H13   S    
N25   Ni6   S    
C70   C85   S    
C24   H48   S    
C91   O5    D    
C13   C69   S    
C69   C86   S    
C47   H23   S    
N14   N31   A    
C1    C49   A    
C31   N15   A    
C76   H28   S    
N3    Ni1   S    
N31   Ni7   S    
C45   H21   S    
C4    C52   A    
C16   H40   S    
C72   N40   S    
C94   O11   D    
C9    C65   S    
C29   N13   A    
C23   C49   S    
C31   H7    S    
C89   O1    D    
C40   C53   A    
O10   H53   S    
C28   H4    S    
C67   C84   S    
C97   H60   S    
C75   H27   S    
C30   H6    S    
C93   O9    D    
C9    C74   S    
N10   Ni1   S    
C48   C61   A    
C71   N39   S    
C46   H22   S    
C26   H2    S    
C33   H9    S    
C92   O8    S    
N8    N21   A    
C96   O16   S    
C45   N29   A    
C12   H36   S    
C12   C88   S    
C36   C49   A    
N29   Ni8   S    
C71   C75   S    
C43   N27   A    
