data_mof_unit_26924.cif
_audit_creation_date              2012-10-26T19:46:08-0400
_audit_creation_method            fapswitch 2.2
_symmetry_space_group_name_H-M    P1
_symmetry_Int_Tables_number       1
_space_group_crystal_system       triclinic
_cell_length_a                    10.825336
_cell_length_b                    9.579642
_cell_length_c                    15.908836
_cell_angle_alpha                 90.032296
_cell_angle_beta                  91.538064
_cell_angle_gamma                 90.052694
_cell_volume                      1649.19614852

loop_
_atom_site_label
_atom_site_type_symbol
_atom_type_description
_atom_site_fract_x
_atom_site_fract_y
_atom_site_fract_z
_atom_type_partial_charge
C1    C     C_R   0.262258 0.499945 0.499787 0.557729
C2    C     C_R   0.935861 0.625725 0.490164 -0.093897
C3    C     C_R   0.871685 0.499911 0.499590 0.025951
C4    C     C_R   0.128314 0.499852 0.499557 0.025303
C5    C     C_R   0.423955 0.073974 0.446286 0.017659
C6    C     C_R   0.421907 0.925750 0.447660 0.018837
C7    C     C_R   0.499782 0.499930 0.340417 0.567346
C8    C     C_R   0.580876 0.925922 0.551583 0.140826
C9    C     C_R   0.574687 0.074517 0.555633 0.135539
C10   C     C_R   0.737748 0.500017 0.499938 0.545737
C11   C     C_R   0.500175 0.500016 0.659579 0.550764
C12   C     C_3   0.593433 0.600718 0.953517 0.402612
C13   C     C_3   0.358213 0.533476 0.047139 0.166808
C14   C     C_3   0.534231 0.344804 0.049831 0.132958
C15   C     C_3   0.523246 0.345338 0.950331 -0.109930
C16   C     C_3   0.363411 0.546948 0.948156 -0.157249
C17   C     C_1   0.498602 0.499865 0.748898 0.070893
C18   C     C_3   0.491901 0.493354 0.083101 -0.076952
C19   C     C_3   0.492851 0.496600 0.916591 -0.094318
C20   C     C_2   0.252069 0.488734 0.899503 0.194957
C21   C     C_2   0.436160 0.235713 0.913258 0.266110
C22   C     C_2   0.682249 0.854211 0.599142 0.318835
C23   C     C_3   0.584965 0.605199 0.051000 -0.133385
C24   C     C_2   0.642792 0.147053 0.625044 0.330446
C25   C     C_2   0.261177 0.429434 0.075409 0.332644
C26   C     C_2   0.466826 0.223621 0.090850 0.279121
C27   C     C_1   0.496372 0.498914 0.824182 0.039507
C28   C     C_1   0.495772 0.497343 0.175607 0.036229
C29   C     C_1   0.498123 0.499360 0.250990 0.062166
C30   C     C_R   0.064149 0.373867 0.508416 -0.109093
C31   C     C_R   0.063651 0.625770 0.490349 -0.101888
C32   C     C_R   0.936348 0.373900 0.508483 -0.110426
Cl1   Cl    Cl    0.693704 0.313618 0.081106 -0.455132
Cl2   Cl    Cl    0.311410 0.701603 0.087880 -0.447623
Cl3   Cl    Cl    0.574149 0.774793 0.912247 -0.406143
Cl4   Cl    Cl    0.747115 0.551520 0.924735 -0.400529
Cu1   Cu    Cu3+1 0.500020 0.640660 0.500000 0.986925
Cu2   Cu    Cu3+1 0.500020 0.359340 0.500000 0.982319
H1    H     H_    0.615121 0.316491 0.925947 0.263774
H2    H     H_    0.358917 0.870197 0.405607 0.139167
H3    H     H_    0.262356 0.411044 0.850666 0.119513
H4    H     H_    0.342162 0.226923 0.934074 0.103714
H5    H     H_    0.666954 0.761849 0.635691 0.175861
H6    H     H_    0.700833 0.236020 0.614133 0.136175
H7    H     H_    0.236877 0.339442 0.037218 0.095372
H8    H     H_    0.405840 0.240839 0.142737 0.109773
H9    H     H_    0.357341 0.659595 0.932335 0.247029
H10   H     H_    0.556701 0.710778 0.071977 0.211195
H11   H     H_    0.677833 0.591229 0.081265 0.211921
H12   H     H_    0.112429 0.275430 0.515673 0.149058
H13   H     H_    0.111505 0.724165 0.482863 0.147270
H14   H     H_    0.888540 0.275445 0.515752 0.144917
H15   H     H_    0.887623 0.723949 0.482141 0.178029
H16   H     H_    0.362760 0.129316 0.403023 0.135342
N1    N     N_R   0.500030 0.852070 0.500020 -0.268793
N2    N     N_R   0.500030 0.147930 0.500020 -0.268729
O1    O     O_R   0.319660 0.618740 0.500000 -0.504947
O2    O     O_2   0.471896 0.153732 0.860382 -0.364173
O3    O     O_2   0.787423 0.900333 0.598079 -0.517221
O4    O     O_2   0.634629 0.105587 0.697266 -0.414741
O5    O     O_2   0.212683 0.441561 0.143505 -0.417994
O6    O     O_2   0.487164 0.103119 0.070119 -0.374186
O7    O     O_R   0.319660 0.381260 0.500000 -0.507527
O8    O     O_R   0.500020 0.618840 0.379440 -0.486896
O9    O     O_R   0.500020 0.381160 0.379440 -0.492868
O10   O     O_R   0.680370 0.618830 0.500010 -0.520489
O11   O     O_R   0.680370 0.381170 0.500010 -0.536528
O12   O     O_R   0.500010 0.618730 0.620560 -0.519452
O13   O     O_R   0.500010 0.381270 0.620560 -0.498168
O14   O     O_2   0.148690 0.533076 0.912857 -0.367057

loop_
_geom_bond_atom_site_label_1
_geom_bond_atom_site_label_2
_ccdc_geom_bond_type
C8    C9    A    
C8    C22   S    
C11   O13   A    
C9    C24   S    
Cu1   O1    S    
Cu1   Cu2   S    
C7    C29   S    
C1    O1    A    
C7    O9    A    
C19   C27   S    
C14   C18   S    
C5    N2    A    
C22   H5    S    
Cu2   O9    S    
C16   C20   S    
C6    N1    A    
C24   O4    D    
C1    C4    S    
C15   H1    S    
Cu1   O10   S    
C14   Cl1   S    
C20   H3    S    
C30   H12   S    
Cu2   O13   S    
C18   C28   S    
C13   Cl2   S    
C9    N2    A    
C25   O5    D    
C10   O11   A    
C14   C26   S    
C12   Cl3   S    
C30   C32   A    
C12   C23   S    
C13   C25   S    
C3    C32   A    
C15   C21   S    
C13   C18   S    
C16   C19   S    
C8    N1    A    
C1    O7    A    
C12   C19   S    
C28   C29   T    
C15   C19   S    
C2    C3    A    
C10   O10   A    
C26   O6    D    
C5    C6    A    
C24   H6    S    
C6    H2    S    
C7    O8    A    
C23   H11   S    
C4    C31   A    
C12   Cl4   S    
C32   H14   S    
C26   H8    S    
C18   C23   S    
C17   C27   T    
Cu1   O12   S    
C25   H7    S    
C5    H16   S    
C21   O2    D    
Cu1   O8    S    
Cu2   N2    S    
Cu2   O11   S    
C20   O14   D    
Cu2   O7    S    
C13   C16   S    
C22   O3    D    
C3    C10   S    
C16   H9    S    
C11   O12   A    
C11   C17   S    
C23   H10   S    
C14   C15   S    
C4    C30   A    
C21   H4    S    
C31   H13   S    
C2    C31   A    
C2    H15   S    
Cu1   N1    S    
