data_mof_unit_13296.cif
_audit_creation_date              2012-12-11T15:18:02-0500
_audit_creation_method            fapswitch 2.2
_symmetry_space_group_name_H-M    P1
_symmetry_Int_Tables_number       1
_space_group_crystal_system       triclinic
_cell_length_a                    15.688198
_cell_length_b                    15.711704
_cell_length_c                    34.381866
_cell_angle_alpha                 89.83446
_cell_angle_beta                  90.203569
_cell_angle_gamma                 119.740947
_cell_volume                      7358.36096387

loop_
_atom_site_label
_atom_site_type_symbol
_atom_type_description
_atom_site_fract_x
_atom_site_fract_y
_atom_site_fract_z
_atom_type_partial_charge
C1    C     C_R   0.578226 0.441700 0.554930 0.547771
C2    C     C_R   0.482894 0.928252 0.219530 0.347976
C3    C     C_3   0.340046 0.388470 0.551928 -0.428086
C4    C     C_3   0.676752 0.037172 0.582566 -0.266655
C5    C     C_3   0.648012 0.976243 0.545305 -0.420654
C6    C     C_3   0.632646 0.987899 0.086296 -0.278757
C7    C     C_3   0.695712 0.098925 0.091020 -0.442583
C8    C     C_3   0.358114 0.368116 0.086255 -0.279147
C9    C     C_3   0.407021 0.305481 0.091445 -0.443498
C10   C     C_3   0.009490 0.642420 0.085766 -0.279331
C11   C     C_3   0.898092 0.593251 0.090202 -0.444158
C12   C     C_3   0.972276 0.664468 0.846979 -0.269453
C13   C     C_R   0.444232 0.517878 0.219591 0.347882
C14   C     C_3   0.059511 0.764307 0.836641 -0.423898
C15   C     C_3   0.313230 0.325630 0.841380 -0.268510
C16   C     C_3   0.222523 0.333762 0.831374 -0.417836
C17   C     C_3   0.612514 0.904080 0.825212 -0.267831
C18   C     C_3   0.632462 0.820627 0.815977 -0.414961
C19   C     C_3   0.661545 0.961061 0.351709 -0.276581
C20   C     C_3   0.612419 0.849436 0.349267 -0.420879
C21   C     C_3   0.298976 0.340107 0.351634 -0.276962
C22   C     C_3   0.236263 0.389557 0.349178 -0.420514
C23   C     C_3   0.037137 0.698865 0.351041 -0.276806
C24   C     C_R   0.071164 0.553781 0.219395 0.348019
C25   C     C_3   0.148868 0.761211 0.348572 -0.420448
C26   C     C_R   0.009802 0.440940 0.852032 -0.134307
C27   C     C_R   0.559081 0.565688 0.852632 -0.140293
C28   C     C_R   0.336344 0.815749 0.834818 -0.125808
C29   C     C_R   0.437249 0.998649 0.353810 -0.136790
C30   C     C_R   0.559531 0.563477 0.354021 -0.136973
C31   C     C_R   0.001405 0.438353 0.353900 -0.137107
C32   C     C_R   0.051027 0.452832 0.888716 -0.139054
C33   C     C_R   0.558295 0.136010 0.554934 0.549386
C34   C     C_R   0.549300 0.593033 0.889979 -0.145411
C35   C     C_R   0.325289 0.804258 0.874898 -0.140026
C36   C     C_R   0.450534 0.044909 0.389495 -0.140258
C37   C     C_R   0.593037 0.549844 0.389662 -0.140600
C38   C     C_R   0.955351 0.405602 0.389632 -0.140518
C39   C     C_R   0.047746 0.604263 0.896563 -0.125572
C40   C     C_R   0.387384 0.450212 0.894319 -0.112803
C41   C     C_R   0.496484 0.850536 0.881227 -0.109205
C42   C     C_R   0.601805 0.041634 0.398989 -0.118461
C43   C     C_R   0.439475 0.399051 0.398985 -0.118207
C44   C     C_R   0.863466 0.421696 0.555049 0.547391
C45   C     C_R   0.957490 0.559350 0.398668 -0.118177
C46   C     C_R   0.004921 0.592683 0.859615 0.016172
C47   C     C_R   0.395796 0.421808 0.856594 0.017146
C48   C     C_R   0.509633 0.864789 0.840885 0.014523
C49   C     C_R   0.588907 0.993743 0.363159 0.019524
C50   C     C_R   0.403976 0.412300 0.363194 0.019272
C51   C     C_R   0.005177 0.594110 0.362785 0.019289
C52   C     C_R   0.990799 0.512423 0.836280 0.044703
C53   C     C_R   0.481054 0.483516 0.834718 0.045916
C54   C     C_R   0.427938 0.847138 0.817236 0.045662
C55   C     C_R   0.441309 0.579005 0.055458 0.540593
C56   C     C_R   0.508181 0.977393 0.339285 0.050795
C57   C     C_R   0.467612 0.492903 0.339425 0.050968
C58   C     C_R   0.022011 0.530040 0.339129 0.050896
C59   C     C_R   0.074610 0.536778 0.910489 0.007093
C60   C     C_R   0.461552 0.538105 0.910305 0.009905
C61   C     C_R   0.405467 0.823101 0.898473 0.006317
C62   C     C_R   0.535168 0.070974 0.411495 0.006873
C63   C     C_R   0.535255 0.465229 0.411532 0.006733
C64   C     C_R   0.928821 0.463890 0.411436 0.006835
C65   C     C_R   0.577610 0.442324 0.445560 0.551156
C66   C     C_R   0.137716 0.558855 0.055419 0.542310
C67   C     C_R   0.557710 0.135349 0.445575 0.551339
C68   C     C_R   0.864585 0.422247 0.445568 0.552130
C69   C     C_R   0.442115 0.577810 0.945611 0.543756
C70   C     C_R   0.135622 0.557967 0.945514 0.543398
C71   C     C_R   0.391747 0.809167 0.940763 0.571081
C72   C     C_R   0.912861 0.451659 0.593246 0.037858
C73   C     C_R   0.547611 0.462597 0.592588 0.038060
C74   C     C_R   0.530645 0.069347 0.588996 0.033086
C75   C     C_R   0.444943 0.900484 0.095585 0.029282
C76   C     C_R   0.456005 0.555512 0.095662 0.031037
C77   C     C_R   0.421178 0.862361 0.055438 0.552559
C78   C     C_R   0.099657 0.544301 0.095543 0.031300
C79   C     C_R   0.908774 0.376830 0.617045 -0.143178
C80   C     C_R   0.622393 0.533636 0.616165 -0.141963
C81   C     C_R   0.444783 0.050209 0.608970 -0.144056
C82   C     C_R   0.364735 0.873120 0.120649 -0.139032
C83   C     C_R   0.507628 0.635711 0.120794 -0.138570
C84   C     C_R   0.128464 0.492493 0.120802 -0.138378
C85   C     C_R   0.927586 0.391530 0.656539 -0.127733
C86   C     C_R   0.606502 0.541101 0.655223 -0.126982
C87   C     C_R   0.418592 0.997845 0.643519 -0.128820
C88   C     C_R   0.957991 0.491543 0.715838 0.348487
C89   C     C_R   0.377695 0.883241 0.160579 -0.128321
C90   C     C_R   0.504307 0.622861 0.160737 -0.128810
C91   C     C_R   0.118102 0.495081 0.160704 -0.128728
C92   C     C_R   0.952578 0.481916 0.673284 0.022253
C93   C     C_R   0.514992 0.478931 0.671707 0.023205
C94   C     C_R   0.477354 0.962688 0.659408 0.019780
C95   C     C_R   0.471404 0.921645 0.176849 0.016540
C96   C     C_R   0.449742 0.529283 0.176928 0.016389
C97   C     C_R   0.078024 0.549110 0.176740 0.016443
C98   C     C_R   0.968005 0.560612 0.649300 -0.106554
C99   C     C_R   0.504419 0.476992 0.714098 0.347186
C100  C     C_R   0.436550 0.415256 0.647807 -0.105608
C101  C     C_R   0.559739 0.975306 0.638667 -0.106181
C102  C     C_R   0.552992 0.955058 0.152117 -0.103869
C103  C     C_R   0.402954 0.447725 0.152148 -0.104087
C104  C     C_R   0.043298 0.596310 0.151801 -0.103739
C105  C     C_R   0.948947 0.547138 0.609114 0.007368
C106  C     C_R   0.451295 0.406121 0.608044 0.007342
C107  C     C_R   0.587367 0.027800 0.603358 0.004332
C108  C     C_R   0.541348 0.946730 0.111388 0.003008
C109  C     C_R   0.406782 0.459280 0.111419 0.003902
C110  C     C_R   0.457188 0.921497 0.699098 0.346810
C111  C     C_R   0.051932 0.593279 0.111103 0.003992
C112  C     C_R   0.969295 0.506233 0.794392 0.336869
C113  C     C_R   0.487540 0.472658 0.792523 0.334904
C114  C     C_R   0.435682 0.868202 0.775115 0.340762
C115  C     C_R   0.500896 0.950487 0.297892 0.337931
C116  C     C_R   0.447762 0.500050 0.297999 0.337970
C117  C     C_R   0.048804 0.549515 0.297723 0.337839
C118  C     C_3   0.966667 0.635254 0.584832 -0.270886
C119  C     C_3   0.046048 0.660059 0.554245 -0.427577
C120  C     C_3   0.363690 0.335303 0.583784 -0.270108
Cr1   Cr    Cr6+3 0.522350 0.263930 0.500020 1.003352
Cr2   Cr    Cr6+3 0.736070 0.258420 0.500020 1.001540
Cr3   Cr    Cr6+3 0.741580 0.477650 0.500020 1.002617
Cr4   Cr    Cr6+3 0.263930 0.522350 0.000020 0.998150
Cr5   Cr    Cr6+3 0.258420 0.736070 0.000020 0.999065
Cr6   Cr    Cr6+3 0.477650 0.741580 0.000020 1.001790
H1    H     H_    0.883600 0.303801 0.605798 0.128647
H2    H     H_    0.313387 0.858531 0.178745 0.143290
H3    H     H_    0.542863 0.687133 0.178960 0.143350
H4    H     H_    0.143938 0.456318 0.179030 0.143489
H5    H     H_    0.990950 0.631625 0.662181 0.128083
H6    H     H_    0.364844 0.369397 0.660547 0.126908
H7    H     H_    0.604320 0.946468 0.650582 0.128836
H8    H     H_    0.625976 0.986565 0.164514 0.133237
H9    H     H_    0.362126 0.374848 0.164496 0.133279
H10   H     H_    0.010526 0.636813 0.164006 0.133305
H11   H     H_    0.999018 0.378536 0.834924 0.133900
H12   H     H_    0.696168 0.579324 0.605208 0.131998
H13   H     H_    0.625551 0.613299 0.836733 0.129688
H14   H     H_    0.272942 0.801153 0.817389 0.135140
H15   H     H_    0.374280 0.985540 0.336329 0.130338
H16   H     H_    0.608824 0.626325 0.336600 0.130142
H17   H     H_    0.014855 0.388725 0.336577 0.129914
H18   H     H_    0.062306 0.667398 0.914034 0.117847
H19   H     H_    0.320625 0.405378 0.910563 0.125400
H20   H     H_    0.558551 0.863486 0.899277 0.130499
H21   H     H_    0.665453 0.058481 0.416748 0.114253
H22   H     H_    0.393245 0.335453 0.416656 0.115118
H23   H     H_    0.398793 0.079101 0.598695 0.132238
H24   H     H_    0.940254 0.605922 0.416255 0.115182
H25   H     H_    0.115488 0.673934 0.568458 0.156528
H26   H     H_    0.023052 0.599616 0.532941 0.156131
H27   H     H_    0.059851 0.727165 0.538223 0.129458
H28   H     H_    0.897764 0.623426 0.570963 0.169242
H29   H     H_    0.991462 0.701064 0.603523 0.127257
H30   H     H_    0.325833 0.444829 0.564984 0.155828
H31   H     H_    0.401291 0.424313 0.530862 0.156804
H32   H     H_    0.273330 0.334942 0.535867 0.129311
H33   H     H_    0.375816 0.277443 0.571069 0.170081
H34   H     H_    0.290147 0.837747 0.109624 0.138036
H35   H     H_    0.297219 0.295947 0.602270 0.127964
H36   H     H_    0.599281 0.897520 0.552337 0.149473
H37   H     H_    0.609356 0.999875 0.524624 0.164810
H38   H     H_    0.715045 0.984746 0.530905 0.124886
H39   H     H_    0.730699 0.115028 0.576508 0.169841
H40   H     H_    0.716463 0.010564 0.601408 0.125137
H41   H     H_    0.652056 0.135016 0.083859 0.160901
H42   H     H_    0.724300 0.118370 0.121177 0.156767
H43   H     H_    0.759329 0.127209 0.070939 0.140587
H44   H     H_    0.676339 0.952473 0.094480 0.139746
H45   H     H_    0.546071 0.710172 0.109784 0.138167
H46   H     H_    0.614921 0.974038 0.054962 0.167060
H47   H     H_    0.486566 0.349311 0.084658 0.159651
H48   H     H_    0.397767 0.276969 0.121622 0.157438
H49   H     H_    0.372733 0.241945 0.071318 0.141065
H50   H     H_    0.279174 0.324248 0.094056 0.140619
H51   H     H_    0.362284 0.385848 0.054898 0.162445
H52   H     H_    0.863407 0.514053 0.083018 0.159507
H53   H     H_    0.877827 0.601502 0.120291 0.157458
H54   H     H_    0.868943 0.628006 0.069994 0.139452
H55   H     H_    0.043500 0.721005 0.093920 0.140600
H56   H     H_    0.165106 0.454310 0.109942 0.138324
H57   H     H_    0.024070 0.639225 0.054488 0.162394
H58   H     H_    0.069861 0.398969 0.898973 0.129912
H59   H     H_    0.608213 0.660383 0.901967 0.127373
H60   H     H_    0.253795 0.780375 0.887544 0.125331
H61   H     H_    0.397151 0.065261 0.398761 0.132080
H62   H     H_    0.666574 0.602916 0.398975 0.132154
H63   H     H_    0.935524 0.332261 0.399092 0.132153
H64   H     H_    0.108601 0.796875 0.862176 0.137239
H65   H     H_    0.101831 0.757201 0.812330 0.184936
H66   H     H_    0.032573 0.814619 0.827438 0.143902
H67   H     H_    0.918454 0.330422 0.674238 0.137988
H68   H     H_    0.921204 0.636262 0.821820 0.171613
H69   H     H_    0.930385 0.673768 0.871014 0.133759
H70   H     H_    0.192981 0.350274 0.857837 0.137555
H71   H     H_    0.240718 0.392536 0.809568 0.192692
H72   H     H_    0.164673 0.263198 0.819100 0.141194
H73   H     H_    0.336070 0.299681 0.815593 0.171941
H74   H     H_    0.293293 0.268022 0.863952 0.133472
H75   H     H_    0.629938 0.781005 0.843107 0.139584
H76   H     H_    0.577248 0.768113 0.795175 0.194616
H77   H     H_    0.706573 0.850827 0.802956 0.142631
H78   H     H_    0.667440 0.593004 0.672906 0.137836
H79   H     H_    0.626030 0.951297 0.799341 0.176455
H80   H     H_    0.667172 0.952660 0.847169 0.130856
H81   H     H_    0.577191 0.815763 0.377439 0.152173
H82   H     H_    0.556173 0.820314 0.325877 0.185462
H83   H     H_    0.668509 0.828068 0.342693 0.138509
H84   H     H_    0.697472 0.994646 0.323735 0.179085
H85   H     H_    0.721770 0.986212 0.373498 0.126723
H86   H     H_    0.237887 0.424701 0.377374 0.152209
H87   H     H_    0.262898 0.445806 0.325843 0.185790
H88   H     H_    0.159080 0.333792 0.342508 0.138833
H89   H     H_    0.353696 0.988034 0.658497 0.138694
H90   H     H_    0.296548 0.304283 0.323628 0.179111
H91   H     H_    0.264432 0.279921 0.373362 0.126847
H92   H     H_    0.182827 0.759810 0.376803 0.152164
H93   H     H_    0.178294 0.734210 0.325318 0.185282
H94   H     H_    0.169714 0.838259 0.341778 0.139203
H95   H     H_    0.003259 0.701036 0.323004 0.179095
H96   H     H_    0.011625 0.733764 0.372675 0.126855
N1    N     N_R   0.920542 0.417296 0.776986 -0.231221
N2    N     N_R   0.402830 0.883426 0.242881 -0.222691
N3    N     N_R   0.478274 0.597841 0.242926 -0.222469
N4    N     N_R   0.116683 0.519007 0.242946 -0.222603
N5    N     N_R   0.005460 0.580755 0.733174 -0.230066
N6    N     N_R   0.415313 0.443427 0.730871 -0.231996
N7    N     N_R   0.507717 0.879943 0.714523 -0.235480
N8    N     N_R   0.572491 0.982765 0.236201 -0.234554
N9    N     N_R   0.409885 0.428463 0.236290 -0.234563
N10   N     N_R   0.015853 0.588340 0.235847 -0.234654
N11   N     N_R   0.011798 0.587831 0.771761 -0.233901
N12   N     N_R   0.576427 0.505668 0.775649 -0.232892
N13   N     N_R   0.407315 0.442385 0.769395 -0.235640
N14   N     N_R   0.496581 0.853149 0.751781 -0.235899
N15   N     N_R   0.581134 0.994170 0.274622 -0.231897
N16   N     N_R   0.412309 0.419905 0.274741 -0.231705
N17   N     N_R   0.004392 0.585569 0.274253 -0.231815
N18   N     N_R   0.382956 0.906758 0.759334 -0.227419
N19   N     N_R   0.411542 0.894678 0.281259 -0.235179
N20   N     N_R   0.480486 0.589217 0.281336 -0.234993
N21   N     N_R   0.105366 0.516445 0.281309 -0.235703
N22   N     N_R   0.914609 0.410152 0.738494 -0.227474
N23   N     N_R   0.584612 0.507417 0.737197 -0.225431
N24   N     N_R   0.393595 0.932967 0.722138 -0.227626
O1    O     O_R   0.498680 0.159540 0.541860 -0.527313
O2    O     O_R   0.358060 0.532760 0.040030 -0.506460
O3    O     O_R   0.174700 0.641940 0.040030 -0.508420
O4    O     O_R   0.467240 0.825300 0.040030 -0.503672
O5    O     O_R   0.498590 0.161190 0.456930 -0.519873
O6    O     O_R   0.838810 0.337400 0.456930 -0.520042
O7    O     O_R   0.662600 0.501410 0.456930 -0.519944
O8    O     O_R   0.161190 0.498590 0.956930 -0.519127
O9    O     O_R   0.337400 0.838810 0.956930 -0.509961
O10   O     O_R   0.501410 0.662600 0.956930 -0.529965
O11   O     O_R   0.532680 0.359580 0.461300 -0.504262
O12   O     O_R   0.840460 0.339140 0.541860 -0.528758
O13   O     O_R   0.640420 0.173100 0.461300 -0.505379
O14   O     O_R   0.826900 0.467320 0.461300 -0.503609
O15   O     O_R   0.359580 0.532680 0.961300 -0.509038
O16   O     O_R   0.173100 0.640420 0.961300 -0.527651
O17   O     O_R   0.467320 0.826900 0.961300 -0.505290
O18   O     O_3   0.666667 0.333333 0.499990 -0.230468
O19   O     O_3   0.333333 0.666667 0.999990 -0.258796
O20   O     O_R   0.660860 0.501320 0.541860 -0.528995
O21   O     O_R   0.159540 0.498680 0.041860 -0.517628
O22   O     O_R   0.339140 0.840460 0.041860 -0.514023
O23   O     O_R   0.501320 0.660860 0.041860 -0.519419
O24   O     O_R   0.532760 0.358060 0.540030 -0.506052
O25   O     O_R   0.641940 0.174700 0.540030 -0.507891
O26   O     O_R   0.825300 0.467240 0.540030 -0.505976

loop_
_geom_bond_atom_site_label_1
_geom_bond_atom_site_label_2
_ccdc_geom_bond_type
Cr3   O26   S    
C101  C107  A    
C40   C47   A    
C34   C60   A    
C7    H42   S    
C63   C65   S    
C26   C32   A    
C40   C60   A    
C116  N16   A    
C19   H84   S    
Cr6   O23   S    
C19   C20   S    
C28   H14   S    
C17   C48   S    
C15   C47   S    
C26   H11   S    
Cr2   O18   S    
C70   O8    A    
C102  H8    S    
C25   H92   S    
C43   C63   A    
C35   C61   A    
C66   O21   A    
C91   H4    S    
C6    H46   S    
C48   C54   A    
C29   C36   A    
C98   C105  A    
C62   C67   S    
N9    N16   A    
C19   H85   S    
C64   C68   S    
C31   C58   A    
C114  N18   A    
C2    C95   S    
C86   C93   A    
C45   C64   A    
C80   H12   S    
C72   C79   A    
N12   N23   A    
C13   N3    A    
N4    N21   A    
C24   N4    A    
N2    N19   A    
Cr1   O5    S    
C88   N5    A    
C14   H65   S    
C52   C112  S    
C15   C16   S    
C30   C57   A    
C46   C52   A    
Cr4   O19   S    
C82   H34   S    
C4    H39   S    
C70   O16   A    
C45   H24   S    
C73   C80   A    
C40   H19   S    
Cr5   O9    S    
C103  H9    S    
C118  C119  S    
N6    N13   A    
C80   C86   A    
C43   H22   S    
C74   C107  A    
C115  N19   A    
C90   H3    S    
C7    H41   S    
C8    H51   S    
Cr2   O12   S    
C1    O20   A    
C23   H95   S    
C28   C35   A    
C8    C9    S    
C65   O7    A    
Cr5   O16   S    
C3    H32   S    
C17   H79   S    
Cr6   O19   S    
C9    H47   S    
C18   H77   S    
C55   O23   A    
C84   C91   A    
C41   C61   A    
C99   N23   A    
C93   C99   S    
C99   N6    A    
C95   C102  A    
C47   C53   A    
N5    N11   A    
C14   H66   S    
C87   C94   A    
C68   O6    A    
Cr6   O10   S    
C110  N24   A    
C66   O3    A    
C39   C59   A    
C75   C108  A    
C119  H27   S    
C103  C109  A    
C21   H91   S    
C21   C22   S    
C33   O25   A    
N18   N24   A    
C10   H57   S    
C61   C71   S    
C9    H49   S    
C6    C108  S    
C36   C62   A    
C42   H21   S    
C76   C83   A    
C2    N2    A    
C21   C50   S    
C37   C63   A    
C85   C92   A    
C53   C113  S    
C57   C116  S    
C38   C64   A    
C33   C74   S    
C27   C34   A    
C71   O17   A    
C113  N12   A    
C66   C78   S    
C4    C107  S    
C116  N20   A    
C41   H20   S    
C13   C96   S    
C92   C98   A    
C24   C97   S    
C97   C104  A    
C5    H38   S    
C88   C92   S    
C10   C111  S    
C60   C69   S    
C94   C101  A    
Cr4   O8    S    
C10   C11   S    
C68   O14   A    
N10   N17   A    
C28   C54   A    
C76   C109  A    
C69   O15   A    
C1    O24   A    
C59   C70   S    
N3    N20   A    
Cr2   O6    S    
C94   C110  S    
C58   C117  S    
C27   H13   S    
C30   C37   A    
C83   H45   S    
C14   H64   S    
C89   C95   A    
C34   H59   S    
C65   O11   A    
C5    H37   S    
C16   H70   S    
C110  N7    A    
C26   C52   A    
C13   N9    A    
C15   H73   S    
C19   C49   S    
C23   C51   S    
C23   H96   S    
N1    N22   A    
C38   H63   S    
C29   H15   S    
C112  N1    A    
C8    H50   S    
C17   C18   S    
C21   H90   S    
C118  H29   S    
C18   H76   S    
C51   C58   A    
C81   C87   A    
C20   H83   S    
C91   C97   A    
C102  C108  A    
C75   C77   S    
C93   C100  A    
C71   O9    A    
C78   C111  A    
C120  H35   S    
C39   C46   A    
C55   C76   S    
Cr2   O25   S    
C12   C46   S    
C72   C105  A    
C12   C14   S    
C55   O2    A    
C22   H88   S    
Cr5   O22   S    
Cr3   O20   S    
C44   C72   S    
C12   H69   S    
C105  C118  S    
C25   H93   S    
C11   H53   S    
C20   H82   S    
C33   O1    A    
C86   H78   S    
C79   C85   A    
C16   H72   S    
C115  N15   A    
C6    H44   S    
C119  H26   S    
C113  N13   A    
C83   C90   A    
C42   C62   A    
C17   H80   S    
C87   H89   S    
C104  H10   S    
Cr5   O19   S    
C50   C57   A    
C12   H68   S    
C84   H56   S    
C32   H58   S    
C120  H33   S    
C56   C115  S    
C4    C5    S    
C24   N10   A    
C88   N22   A    
C104  C111  A    
C114  N14   A    
C100  H6    S    
C43   C50   A    
C90   C96   A    
C6    C7    S    
C11   H54   S    
C29   C56   A    
C101  H7    S    
Cr3   O14   S    
C49   C56   A    
C98   H5    S    
Cr4   O21   S    
C100  C106  A    
C30   H16   S    
C77   O22   A    
C44   O26   A    
Cr6   O4    S    
C36   H61   S    
C1    C73   S    
C5    H36   S    
Cr4   O2    S    
C31   C38   A    
C7    H43   S    
C79   H1    S    
Cr1   O18   S    
C8    C109  S    
C22   H86   S    
C15   H74   S    
Cr3   O18   S    
C85   H67   S    
C73   C106  A    
C82   C89   A    
Cr4   O15   S    
N7    N14   A    
C35   H60   S    
C81   H23   S    
C54   C114  S    
Cr5   O3    S    
C3    H30   S    
C117  N21   A    
C41   C48   A    
C4    H40   S    
Cr6   O17   S    
C118  H28   S    
C18   H75   S    
C106  C120  S    
C23   C25   S    
C31   H17   S    
Cr3   O7    S    
C119  H25   S    
C3    C120  S    
C2    N8    A    
C42   C49   A    
C44   O12   A    
C20   H81   S    
C37   H62   S    
C78   C84   A    
Cr2   O13   S    
Cr1   O1    S    
C39   H18   S    
C117  N17   A    
C11   H52   S    
C75   C82   A    
C22   H87   S    
C3    H31   S    
C10   H55   S    
C45   C51   A    
N8    N15   A    
C27   C53   A    
C77   O4    A    
C74   C81   A    
C32   C59   A    
C9    H48   S    
C96   C103  A    
C25   H94   S    
Cr1   O24   S    
C67   O13   A    
C16   H71   S    
C112  N11   A    
C69   O10   A    
Cr1   O11   S    
C89   H2    S    
C67   O5    A    
