data_mof_unit_8772.cif
_audit_creation_date              2012-12-10T17:28:37-0500
_audit_creation_method            fapswitch 2.2
_symmetry_space_group_name_H-M    P1
_symmetry_Int_Tables_number       1
_space_group_crystal_system       triclinic
_cell_length_a                    10.651037
_cell_length_b                    12.025443
_cell_length_c                    12.879633
_cell_angle_alpha                 91.907686
_cell_angle_beta                  91.171918
_cell_angle_gamma                 84.090246
_cell_volume                      1639.75023871

loop_
_atom_site_label
_atom_site_type_symbol
_atom_type_description
_atom_site_fract_x
_atom_site_fract_y
_atom_site_fract_z
_atom_type_partial_charge
C1    C     C_R   0.496623 0.520840 0.700097 0.959949
C2    C     C_R   0.562806 0.533589 0.129928 0.495880
C3    C     C_R   0.454904 0.463365 0.977516 -0.006546
C4    C     C_R   0.538286 0.536286 0.023676 -0.009809
C5    C     C_R   0.391594 0.961487 0.394583 -0.346487
C6    C     C_R   0.607607 0.036318 0.602521 -0.332342
C7    C     C_R   0.404976 0.844071 0.401990 0.141289
C8    C     C_R   0.608912 0.151878 0.588267 0.078116
C9    C     C_R   0.540567 0.855674 0.548942 -0.043662
C10   C     C_R   0.448598 0.145925 0.457253 -0.022441
C11   C     C_R   0.533498 0.973241 0.540002 0.086387
C12   C     C_R   0.501614 0.479105 0.300166 0.927048
C13   C     C_R   0.456065 0.027499 0.463962 0.098301
C14   C     C_R   0.738969 0.496594 0.483554 0.896339
C15   C     C_R   0.259397 0.503261 0.512595 0.898033
C16   C     C_R   0.915125 0.285930 0.466580 -0.149231
C17   C     C_R   0.082834 0.715273 0.509504 -0.071550
C18   C     C_R   0.985959 0.192276 0.505811 -0.128927
C19   C     C_R   0.013682 0.806374 0.463744 -0.140440
C20   C     C_R   0.091989 0.204721 0.569224 0.000283
C21   C     C_R   0.903215 0.791733 0.406780 -0.008429
C22   C     C_R   0.133264 0.311352 0.582729 -0.185791
C23   C     C_R   0.494118 0.467615 0.190101 -0.150010
C24   C     C_R   0.859869 0.685852 0.402262 -0.198233
C25   C     C_R   0.070008 0.404935 0.532577 0.054867
C26   C     C_R   0.926000 0.594248 0.452971 0.050120
C27   C     C_R   0.951782 0.394184 0.486922 0.081395
C28   C     C_R   0.045517 0.605873 0.496215 0.089638
C29   C     C_R   0.122665 0.507907 0.524837 -0.222771
C30   C     C_R   0.873823 0.492034 0.463292 -0.244847
C31   C     C_2   0.830437 0.886719 0.354743 0.908608
C32   C     C_2   0.160430 0.106752 0.619856 0.924300
C33   C     C_3   0.769523 0.529515 0.175819 -0.357772
C34   C     C_R   0.500723 0.531850 0.810810 -0.133467
C35   C     C_3   0.424619 0.274174 0.820944 -0.225102
C36   C     C_2   0.714573 0.201826 0.645705 0.891823
C37   C     C_2   0.347529 0.780373 0.317336 0.955994
C38   C     C_R   0.595868 0.610330 0.963083 -0.150525
C39   C     C_R   0.389573 0.395945 0.039587 -0.178004
C40   C     C_R   0.575341 0.609265 0.857035 -0.301142
C41   C     C_R   0.409120 0.398337 0.145709 -0.285487
C42   C     C_R   0.440281 0.458083 0.869814 0.468892
H1    H     H_    0.334033 0.000558 0.332745 0.157872
H2    H     H_    0.622722 0.665127 0.810434 0.179281
H3    H     H_    0.657422 0.668485 0.997155 0.209797
H4    H     H_    0.321605 0.342944 0.007092 0.191746
H5    H     H_    0.385582 0.188221 0.400806 0.129431
H6    H     H_    0.599831 0.814402 0.608429 0.133395
H7    H     H_    0.670204 0.944962 0.279286 0.353940
H8    H     H_    0.315297 0.043123 0.699053 0.339645
H9    H     H_    0.793424 0.491536 0.097687 0.169351
H10   H     H_    0.770261 0.463075 0.233978 0.148752
H11   H     H_    0.845167 0.583010 0.197841 0.208670
H12   H     H_    0.670024 0.993783 0.659527 0.182706
H13   H     H_    0.517896 0.263928 0.862588 0.139044
H14   H     H_    0.439794 0.244685 0.739494 0.233752
H15   H     H_    0.361820 0.218350 0.856294 0.186305
H16   H     H_    0.785521 0.331829 0.720636 0.334645
H17   H     H_    0.339493 0.744781 0.163326 0.340781
H18   H     H_    0.832761 0.272751 0.418945 0.165443
H19   H     H_    0.164076 0.732412 0.556706 0.171506
H20   H     H_    0.954638 0.110570 0.490254 0.217576
H21   H     H_    0.047493 0.887998 0.471881 0.198971
H22   H     H_    0.214301 0.321394 0.632990 0.216828
H23   H     H_    0.774342 0.674784 0.358153 0.228059
H24   H     H_    0.355311 0.348620 0.193577 0.177424
N1    N     N_R   0.523130 0.207800 0.519340 -0.131533
N2    N     N_R   0.476870 0.792200 0.480660 -0.137920
O1    O     O_R   0.506170 0.421700 0.658830 -0.549137
O2    O     O_R   0.710954 0.874046 0.311518 -0.776998
O3    O     O_2   0.114103 0.017903 0.620465 -0.638408
O4    O     O_R   0.277941 0.115680 0.667706 -0.849027
O5    O     O_3   0.652443 0.596374 0.175303 -0.585843
O6    O     O_3   0.363429 0.384619 0.821630 -0.637643
O7    O     O_2   0.811009 0.141435 0.666038 -0.638584
O8    O     O_R   0.706131 0.311927 0.682622 -0.763215
O9    O     O_2   0.264322 0.721499 0.334911 -0.628808
O10   O     O_R   0.385233 0.792138 0.215304 -0.776304
O11   O     O_R   0.493830 0.578300 0.341170 -0.572563
O12   O     O_R   0.491330 0.609310 0.646410 -0.652005
O13   O     O_R   0.508670 0.390690 0.353590 -0.650109
O14   O     O_R   0.690650 0.406190 0.506220 -0.595452
O15   O     O_R   0.309350 0.593810 0.493780 -0.596946
O16   O     O_R   0.675800 0.593810 0.493800 -0.619643
O17   O     O_R   0.324200 0.406190 0.506200 -0.628105
O18   O     O_2   0.874532 0.976220 0.349147 -0.665219
Zn1   Zn    Zn3+2 0.509910 0.374730 0.508290 0.971956
Zn2   Zn    Zn3+2 0.490090 0.625270 0.491710 0.992335

loop_
_geom_bond_atom_site_label_1
_geom_bond_atom_site_label_2
_ccdc_geom_bond_type
C3    C42   A    
C34   C42   A    
C14   O16   A    
H16   O8    S    
C35   O6    S    
C10   N1    A    
C33   H10   S    
C21   C31   S    
C12   C23   S    
C34   C40   A    
C28   C29   A    
C19   C21   A    
C24   C26   A    
C16   H18   S    
O14   Zn1   S    
C12   O11   A    
C8    C36   S    
H8    O4    S    
C38   H3    S    
C36   O8    S    
C17   H19   S    
C7    N2    A    
C31   O2    S    
C19   H21   S    
C22   C25   A    
C5    C13   A    
O1    Zn1   S    
C15   O17   A    
C16   C27   A    
O15   Zn2   S    
C5    H1    S    
C3    C39   A    
C31   O18   D    
C27   C30   A    
C25   C29   A    
C6    H12   S    
H17   O10   S    
O11   Zn2   S    
C1    C34   S    
C15   C29   S    
C32   O3    D    
O17   Zn1   S    
C33   H11   S    
C42   O6    S    
C35   H13   S    
C32   O4    S    
C6    C11   A    
C5    C7    A    
C18   H20   S    
C6    C8    A    
C14   C30   S    
C37   O9    D    
C1    O1    A    
C2    C4    A    
C36   O7    D    
C7    C37   S    
C9    C11   A    
O13   Zn1   S    
C2    O5    S    
C24   H23   S    
C8    N1    A    
C39   H4    S    
C33   O5    S    
C20   C22   A    
C26   C30   A    
H7    O2    S    
N2    Zn2   S    
C33   H9    S    
C14   O14   A    
C3    C4    A    
C2    C23   A    
C20   C32   S    
C35   H14   S    
C17   C28   A    
N1    Zn1   S    
O16   Zn2   S    
C4    C38   A    
C10   C13   A    
C15   O15   A    
C41   H24   S    
C25   C27   A    
C37   O10   S    
C26   C28   A    
C23   C41   A    
C35   H15   S    
C9    N2    A    
O12   Zn2   S    
C38   C40   A    
C11   C13   A    
C17   C19   A    
C12   O13   A    
C18   C20   A    
C22   H22   S    
C40   H2    S    
C39   C41   A    
C9    H6    S    
C16   C18   A    
C21   C24   A    
C10   H5    S    
C1    O12   A    
