data_mof_unit_61112.cif
_audit_creation_date              2012-12-10T18:37:05-0500
_audit_creation_method            fapswitch 2.2
_symmetry_space_group_name_H-M    P1
_symmetry_Int_Tables_number       1
_space_group_crystal_system       triclinic
_cell_length_a                    30.11347
_cell_length_b                    21.342339
_cell_length_c                    21.357483
_cell_angle_alpha                 89.679597
_cell_angle_beta                  134.812918
_cell_angle_gamma                 90.37512
_cell_volume                      9737.36846866

loop_
_atom_site_label
_atom_site_type_symbol
_atom_type_description
_atom_site_fract_x
_atom_site_fract_y
_atom_site_fract_z
_atom_type_partial_charge
C1    C     C_R   0.121434 0.499391 0.121108 0.945808
C2    C     C_R   0.621566 0.999930 0.121331 0.951804
C3    C     C_3   0.958578 0.730030 0.916061 0.192902
C4    C     C_3   0.956905 0.270058 0.917144 0.166080
C5    C     C_3   0.464021 0.229977 0.915199 0.164300
C6    C     C_3   0.454920 0.770035 0.917908 0.185594
C7    C     C_3   0.999929 0.688921 0.999799 -0.221294
C8    C     C_3   0.000064 0.311098 0.000777 -0.227003
C9    C     C_3   0.498642 0.188728 0.997908 -0.217007
C10   C     C_3   0.500721 0.811072 0.001204 -0.230531
C11   C     C_3   0.229060 0.482412 0.170370 -0.291911
C12   C     C_3   0.228357 0.557036 0.240805 -0.233328
C13   C     C_3   0.728882 0.998308 0.167786 -0.278446
C14   C     C_3   0.729317 0.052416 0.256245 -0.243389
C15   C     C_3   0.270253 0.539995 0.226265 0.299324
C16   C     C_3   0.770412 0.050105 0.237646 0.291937
C17   C     C_3   0.310673 0.499468 0.309792 -0.237471
C18   C     C_3   0.810955 0.999631 0.308962 -0.235141
C19   C     C_3   0.269815 0.441535 0.254575 0.172695
C20   C     C_3   0.269189 0.516217 0.324991 0.146274
C21   C     C_3   0.769836 0.947564 0.239781 0.179953
C22   C     C_3   0.770419 0.001468 0.328254 0.152723
C23   C     C_3   0.228674 0.458449 0.269963 0.490620
C24   C     C_3   0.729414 0.949590 0.258974 0.478518
C25   C     C_3   0.188578 0.498898 0.187128 -0.181053
C26   C     C_3   0.688962 0.999888 0.187957 -0.183963
C27   C     C_3   0.769579 0.558474 0.759897 0.367607
C28   C     C_3   0.770263 0.461223 0.727017 0.356004
C29   C     C_3   0.270580 0.038305 0.725829 0.346712
C30   C     C_3   0.268922 0.942189 0.762186 0.362936
C31   C     C_3   0.729740 0.519380 0.675030 0.335199
C32   C     C_3   0.229532 0.979713 0.676060 0.343799
C33   C     C_R   0.999922 0.621551 0.999804 0.966384
C34   C     C_R   0.999961 0.378455 0.000137 0.974601
C35   C     C_R   0.499166 0.121480 0.998956 0.954898
C36   C     C_R   0.500261 0.878447 0.000398 0.988443
C37   C     C_3   0.688652 0.499140 0.690282 -0.362006
C38   C     C_3   0.188655 0.001549 0.690721 -0.353967
C39   C     C_3   0.728848 0.538624 0.775848 0.087182
C40   C     C_3   0.729663 0.440277 0.742533 0.086142
C41   C     C_3   0.230058 0.060899 0.740602 0.085302
C42   C     C_3   0.228593 0.963817 0.777744 0.073848
C43   C     C_3   0.770049 0.480275 0.827018 0.419753
C44   C     C_3   0.270272 0.022457 0.826599 0.426771
C45   C     C_3   0.811036 0.500509 0.812016 -0.334817
C46   C     C_3   0.310986 0.000366 0.812134 -0.328477
C47   C     C_R   0.000057 0.999147 0.878580 0.934316
C48   C     C_R   0.500250 0.499423 0.878796 0.940102
C49   C     C_R   0.999934 0.878461 0.000622 0.972713
C50   C     C_R   0.000080 0.121526 0.001332 0.967258
C51   C     C_R   0.499873 0.378404 0.000158 0.957258
C52   C     C_R   0.500166 0.621515 0.001339 0.977239
C53   C     C_R   0.999756 0.000516 0.121356 1.010817
C54   C     C_R   0.499781 0.499621 0.121376 1.004982
C55   C     C_R   0.499172 0.500170 0.377707 0.994017
C56   C     C_R   0.999795 0.000259 0.378300 1.000026
C57   C     C_R   0.378305 0.499866 0.377968 0.971708
C58   C     C_R   0.878426 0.999894 0.377046 0.992370
C59   C     C_R   0.499794 0.499760 0.621517 0.943087
C60   C     C_R   0.999641 0.999826 0.621257 0.961552
C61   C     C_R   0.878448 0.500432 0.878690 1.033233
C62   C     C_R   0.378428 0.999809 0.878703 1.028315
C63   C     C_R   0.621457 0.499888 0.622087 1.007500
C64   C     C_R   0.121454 0.000325 0.622269 1.009493
C65   C     C_3   0.026680 0.052245 0.797428 -0.301738
C66   C     C_3   0.032769 0.948420 0.803369 -0.286468
C67   C     C_3   0.520474 0.555654 0.791208 -0.268064
C68   C     C_3   0.540440 0.453751 0.811416 -0.281596
C69   C     C_3   0.559063 0.510568 0.787900 -0.221352
C70   C     C_3   0.059106 0.002507 0.788004 -0.224084
C71   C     C_3   0.500097 0.498976 0.689406 -0.172278
C72   C     C_3   0.999343 0.999234 0.688345 -0.165304
C73   C     C_3   0.461946 0.543272 0.692752 0.439658
C74   C     C_3   0.481701 0.442724 0.712445 0.407577
C75   C     C_3   0.967237 0.047709 0.697694 0.472452
C76   C     C_3   0.973176 0.945866 0.702676 0.426165
C77   C     C_3   0.940549 0.994450 0.711120 0.418969
C78   C     C_3   0.442551 0.487071 0.713584 0.381590
C79   C     C_3   0.999714 0.998368 0.810840 -0.210054
C80   C     C_3   0.500831 0.498829 0.812022 -0.172770
C81   C     C_3   0.001640 0.941993 0.231925 0.422760
C82   C     C_3   0.049833 0.032265 0.279226 0.426760
C83   C     C_3   0.542103 0.459313 0.272534 0.426682
C84   C     C_3   0.513941 0.557239 0.243144 0.420971
C85   C     C_3   0.557427 0.517280 0.328302 -0.441649
C86   C     C_3   0.053110 0.972574 0.323846 -0.433644
C87   C     C_3   0.498948 0.500515 0.310170 -0.302049
C88   C     C_3   0.999714 0.001021 0.310861 -0.301941
C89   C     C_3   0.058463 0.729289 0.044291 -0.309376
C90   C     C_3   0.057981 0.271293 0.042177 -0.276120
C91   C     C_3   0.558727 0.228597 0.052135 -0.290772
C92   C     C_3   0.557351 0.771239 0.037408 -0.293614
C93   C     C_3   0.484935 0.442320 0.255778 0.359885
C94   C     C_3   0.456359 0.541507 0.226064 0.360131
C95   C     C_3   0.948997 0.969433 0.219793 0.358323
C96   C     C_3   0.997710 0.060693 0.267475 0.360823
C97   C     C_3   0.946781 0.029161 0.177235 0.265564
C98   C     C_3   0.441910 0.483213 0.172449 0.268121
C99   C     C_3   0.999166 0.001214 0.188135 -0.302821
C100  C     C_3   0.499254 0.499549 0.188193 -0.305462
C101  C     C_3   0.016464 0.770933 0.960868 0.441275
C102  C     C_3   0.014181 0.229708 0.958949 0.448118
C103  C     C_3   0.523384 0.270512 0.969734 0.454678
C104  C     C_3   0.510959 0.729619 0.954712 0.438990
C105  C     C_3   0.999956 0.811047 0.001027 -0.224959
C106  C     C_3   0.000239 0.188951 0.002435 -0.223152
C107  C     C_3   0.499498 0.310889 0.999731 -0.216612
C108  C     C_3   0.500753 0.688915 0.002683 -0.223689
C109  C     C_3   0.041026 0.769791 0.084151 0.287593
C110  C     C_3   0.043071 0.230139 0.085377 0.271668
C111  C     C_3   0.533799 0.269283 0.081428 0.267631
C112  C     C_3   0.546368 0.730092 0.085364 0.292138
C113  C     C_3   0.983613 0.728079 0.041926 -0.324805
C114  C     C_3   0.986290 0.271267 0.046158 -0.329969
C115  C     C_3   0.474546 0.228111 0.029262 -0.325548
C116  C     C_3   0.490931 0.771242 0.051321 -0.320514
C117  C     C_3   0.943079 0.769573 0.958242 0.449920
C118  C     C_3   0.943985 0.229944 0.962637 0.435330
C119  C     C_3   0.440912 0.269726 0.947107 0.432934
C120  C     C_3   0.445809 0.729917 0.967893 0.444453
H1    H     H_    0.606501 0.519931 0.815938 0.205479
H2    H     H_    0.107398 0.005731 0.817006 0.189510
H3    H     H_    0.048765 0.095421 0.838086 0.193732
H4    H     H_    0.060136 0.908565 0.849737 0.197479
H5    H     H_    0.536855 0.601260 0.826205 0.196717
H6    H     H_    0.572822 0.417911 0.862819 0.186097
H7    H     H_    0.603553 0.531226 0.393608 0.203775
H8    H     H_    0.095661 0.949922 0.385501 0.203393
H9    H     H_    0.105628 0.710595 0.080290 0.177086
H10   H     H_    0.104618 0.290389 0.075441 0.192050
H11   H     H_    0.606817 0.209469 0.096010 0.177714
H12   H     H_    0.603004 0.790271 0.066493 0.195837
H13   H     H_    0.971102 0.708777 0.076243 0.187142
H14   H     H_    0.975484 0.289799 0.082652 0.186574
H15   H     H_    0.455105 0.209182 0.054416 0.187792
H16   H     H_    0.483495 0.789828 0.091792 0.188605
H17   H     H_    0.211399 0.468998 0.105858 0.195534
H18   H     H_    0.209547 0.604252 0.232672 0.196004
H19   H     H_    0.710750 0.997450 0.101057 0.199817
H20   H     H_    0.710955 0.095298 0.260633 0.199673
O1    O     O_R   0.093030 0.500000 0.145540 -0.588361
O2    O     O_R   0.593030 0.000000 0.145540 -0.597694
O3    O     O_R   0.052520 0.906980 0.052620 -0.597556
O4    O     O_R   0.052520 0.093020 0.052620 -0.595732
O5    O     O_R   0.552520 0.406980 0.052620 -0.595002
O6    O     O_R   0.552520 0.593020 0.052620 -0.599017
O7    O     O_R   0.947460 0.000000 0.040550 -0.604389
O8    O     O_R   0.447460 0.500000 0.040550 -0.602716
O9    O     O_R   0.052490 0.000000 0.145610 -0.571594
O10   O     O_R   0.552490 0.500000 0.145610 -0.575011
O11   O     O_R   0.499990 0.552490 0.407030 -0.609109
O12   O     O_R   0.499990 0.447510 0.407030 -0.586703
O13   O     O_R   0.999990 0.052490 0.407030 -0.584981
O14   O     O_R   0.999990 0.947510 0.407030 -0.615104
O15   O     O_R   0.406970 0.552510 0.407040 -0.572489
O16   O     O_R   0.406970 0.447490 0.407040 -0.601383
O17   O     O_R   0.906970 0.052510 0.407040 -0.579012
O18   O     O_R   0.906970 0.947490 0.407040 -0.601627
O19   O     O_R   0.500000 0.552540 0.593090 -0.585293
O20   O     O_R   0.500000 0.447460 0.593090 -0.591936
O21   O     O_R   0.000000 0.052540 0.593090 -0.594838
O22   O     O_R   0.000000 0.947460 0.593090 -0.590985
O23   O     O_R   0.593020 0.552520 0.593090 -0.614442
O24   O     O_R   0.593020 0.447480 0.593090 -0.603632
O25   O     O_R   0.093020 0.052520 0.593090 -0.603861
O26   O     O_R   0.093020 0.947480 0.593090 -0.613023
O27   O     O_R   0.093020 0.500000 0.040510 -0.645349
O28   O     O_R   0.593020 0.000000 0.040510 -0.644440
O29   O     O_R   0.999990 0.593020 0.052510 -0.629199
O30   O     O_R   0.999990 0.406980 0.052510 -0.617828
O31   O     O_R   0.499990 0.093020 0.052510 -0.622727
O32   O     O_R   0.499990 0.906980 0.052510 -0.622453
O33   O     O_R   0.999990 0.593020 0.947470 -0.612409
O34   O     O_R   0.999990 0.406980 0.947470 -0.612903
O35   O     O_R   0.499990 0.093020 0.947470 -0.603701
O36   O     O_R   0.499990 0.906980 0.947470 -0.618236
O37   O     O_R   0.906980 0.500000 0.959490 -0.593428
O38   O     O_R   0.406980 0.000000 0.959490 -0.595554
O39   O     O_R   0.906970 0.500000 0.854460 -0.587594
O40   O     O_R   0.406970 0.000000 0.854460 -0.583694
O41   O     O_R   0.947510 0.000000 0.854550 -0.619299
O42   O     O_R   0.447510 0.500000 0.854550 -0.587060
O43   O     O_R   0.052540 0.000000 0.959610 -0.611763
O44   O     O_R   0.552540 0.500000 0.959610 -0.623292
O45   O     O_R   0.947490 0.906970 0.947560 -0.601649
O46   O     O_R   0.947490 0.093030 0.947560 -0.582373
O47   O     O_R   0.447490 0.406970 0.947560 -0.586139
O48   O     O_R   0.447490 0.593030 0.947560 -0.593939
Zn1   Zn    Zn3+2 0.000000 0.500000 0.070130 1.042405
Zn2   Zn    Zn3+2 0.500000 0.000000 0.070130 1.039911
Zn3   Zn    Zn3+2 0.000000 0.500000 0.929870 1.020479
Zn4   Zn    Zn3+2 0.500000 0.000000 0.929870 1.027593
Zn5   Zn    Zn3+2 0.929870 0.000000 0.929930 1.065029
Zn6   Zn    Zn3+2 0.429870 0.500000 0.929930 1.090308
Zn7   Zn    Zn3+2 0.070130 0.000000 0.070230 1.088255
Zn8   Zn    Zn3+2 0.570130 0.500000 0.070230 1.082051
Zn9   Zn    Zn3+2 0.499990 0.570130 0.500050 1.068578
Zn10  Zn    Zn3+2 0.499990 0.429870 0.500050 1.092701
Zn11  Zn    Zn3+2 0.999990 0.070130 0.500050 1.102567
Zn12  Zn    Zn3+2 0.999990 0.929870 0.500050 1.046776
O49   O     O_3   0.031847 0.798621 0.917962 -0.617201
C121  C     C_3   0.061901 0.754165 0.909861 -0.265293
H21   H     H_    0.033655 0.710548 0.876970 0.195630
H22   H     H_    0.109311 0.743258 0.975352 0.181556
H23   H     H_    0.068133 0.774499 0.868592 0.172472
O50   O     O_3   0.026895 0.202565 0.912842 -0.611610
C122  C     C_3   0.054592 0.247667 0.900656 -0.266270
H24   H     H_    0.103012 0.258704 0.964326 0.175753
H25   H     H_    0.026188 0.291175 0.869326 0.196938
H26   H     H_    0.057827 0.227895 0.856075 0.179220
O51   O     O_3   0.547258 0.297787 0.937984 -0.612163
C123  C     C_3   0.582331 0.252926 0.939960 -0.265233
H27   H     H_    0.554451 0.209877 0.902744 0.195058
H28   H     H_    0.626027 0.241086 0.008999 0.182682
H29   H     H_    0.596584 0.273285 0.908433 0.173082
O52   O     O_3   0.519420 0.702354 0.903667 -0.613254
C124  C     C_3   0.545210 0.747014 0.887847 -0.249124
H30   H     H_    0.595046 0.756329 0.949114 0.176088
H31   H     H_    0.518152 0.791473 0.860514 0.195715
H32   H     H_    0.543823 0.727669 0.838393 0.183534
O53   O     O_3   0.200712 0.414602 0.283335 -0.577118
C125  C     C_3   0.245474 0.391522 0.370375 -0.183494
H33   H     H_    0.248419 0.423097 0.414166 0.165828
H34   H     H_    0.292677 0.384971 0.396177 0.173618
H35   H     H_    0.229447 0.345095 0.371832 0.205445
O54   O     O_3   0.701560 0.897235 0.261045 -0.595711
C126  C     C_3   0.747248 0.862317 0.338820 -0.150819
H36   H     H_    0.754553 0.882007 0.393473 0.191874
H37   H     H_    0.792698 0.859464 0.358674 0.177271
H38   H     H_    0.729610 0.813725 0.327412 0.208281
O55   O     O_3   0.702936 0.537848 0.590776 -0.641000
C127  C     C_3   0.749826 0.561448 0.597064 -0.250352
H39   H     H_    0.793989 0.533952 0.642759 0.199789
H40   H     H_    0.759857 0.611281 0.617567 0.217368
H41   H     H_    0.732117 0.559374 0.530696 0.170383
O56   O     O_3   0.202438 0.957430 0.593193 -0.634599
C128  C     C_3   0.249507 0.948074 0.594728 -0.263629
H42   H     H_    0.291393 0.923787 0.655587 0.217666
H43   H     H_    0.263630 0.993242 0.587034 0.193139
H44   H     H_    0.230073 0.918214 0.537728 0.184359
O57   O     O_3   0.795478 0.618135 0.773154 -0.587023
C129  C     C_3   0.747601 0.663512 0.724047 -0.209471
H45   H     H_    0.736966 0.679734 0.761469 0.192632
H46   H     H_    0.703943 0.646892 0.657505 0.181196
H47   H     H_    0.764613 0.704777 0.714079 0.207042
O58   O     O_3   0.797176 0.420632 0.709396 -0.552747
C130  C     C_3   0.750915 0.398549 0.621826 -0.122514
H48   H     H_    0.746699 0.431084 0.577316 0.141180
H49   H     H_    0.704202 0.391428 0.597510 0.168692
H50   H     H_    0.766004 0.352618 0.618220 0.206530
O59   O     O_3   0.298472 0.074683 0.705619 -0.566640
C131  C     C_3   0.253051 0.112250 0.630767 -0.176605
H51   H     H_    0.249890 0.158155 0.651462 0.218214
H52   H     H_    0.205944 0.089821 0.581554 0.147623
H53   H     H_    0.268439 0.121478 0.597264 0.174296
O60   O     O_3   0.293749 0.881507 0.779821 -0.594930
C132  C     C_3   0.245405 0.838894 0.716696 -0.131053
H54   H     H_    0.234973 0.840758 0.655517 0.191120
H55   H     H_    0.201700 0.846466 0.700364 0.181742
H56   H     H_    0.261630 0.790756 0.743615 0.189949
Br1   Br    Br    0.696266 0.590337 0.810519 -0.545484
Br2   Br    Br    0.701921 0.354464 0.729115 -0.517504
Br3   Br    Br    0.201415 0.145582 0.728630 -0.546996
Br4   Br    Br    0.195334 0.910836 0.811289 -0.559966
O61   O     O_3   0.796930 0.462403 0.911533 -0.562671
C133  C     C_3   0.751116 0.436561 0.906201 -0.162884
H57   H     H_    0.750624 0.384825 0.901049 0.181982
H58   H     H_    0.703105 0.455257 0.850715 0.166429
H59   H     H_    0.764249 0.447417 0.968259 0.180855
O62   O     O_3   0.297724 0.046404 0.908998 -0.566362
C134  C     C_3   0.252105 0.054189 0.910694 -0.165424
H60   H     H_    0.250195 0.011680 0.938855 0.195809
H61   H     H_    0.204460 0.064916 0.845115 0.169910
H62   H     H_    0.266482 0.093917 0.955061 0.176692
O63   O     O_3   0.421593 0.588700 0.626828 -0.567607
C135  C     C_3   0.400498 0.628686 0.653629 -0.113992
H63   H     H_    0.439428 0.658060 0.710533 0.156421
H64   H     H_    0.377711 0.602202 0.669819 0.190908
H65   H     H_    0.364956 0.660799 0.598261 0.206762
O64   O     O_3   0.460311 0.385860 0.665162 -0.611186
C136  C     C_3   0.469430 0.336674 0.717431 -0.208259
H66   H     H_    0.452872 0.348727 0.748883 0.191778
H67   H     H_    0.519523 0.323217 0.768266 0.175422
H68   H     H_    0.442217 0.295314 0.674627 0.202906
O65   O     O_3   0.932241 0.097484 0.637067 -0.568543
C137  C     C_3   0.918017 0.140931 0.670200 -0.113866
H69   H     H_    0.960841 0.166151 0.728145 0.153741
H70   H     H_    0.894421 0.118367 0.687520 0.197146
H71   H     H_    0.885375 0.176300 0.618252 0.196354
O66   O     O_3   0.942016 0.894388 0.644133 -0.591177
C138  C     C_3   0.966792 0.837857 0.691789 -0.276784
H72   H     H_    0.962309 0.834691 0.739148 0.188611
H73   H     H_    0.016376 0.832377 0.726264 0.180277
H74   H     H_    0.939712 0.798421 0.644668 0.201079
O67   O     O_3   0.878301 0.995348 0.671664 -0.579766
C139  C     C_3   0.859513 0.934822 0.672035 -0.115490
H75   H     H_    0.896265 0.909770 0.735783 0.140684
H76   H     H_    0.845077 0.906826 0.616459 0.200328
H77   H     H_    0.818022 0.939202 0.661656 0.175612
O68   O     O_3   0.382958 0.478342 0.681799 -0.595791
C140  C     C_3   0.343742 0.443692 0.602871 -0.177387
H78   H     H_    0.348585 0.392925 0.617884 0.176290
H79   H     H_    0.352835 0.452731 0.561386 0.185447
H80   H     H_    0.294514 0.456794 0.563645 0.190747
O69   O     O_3   0.002514 0.881645 0.206253 -0.592802
C141  C     C_3   0.017087 0.837276 0.267529 -0.189675
H81   H     H_    0.986318 0.841728 0.278746 0.179368
H82   H     H_    0.067102 0.841142 0.331042 0.180983
H83   H     H_    0.009691 0.789711 0.240791 0.191875
O70   O     O_3   0.100527 0.065244 0.302627 -0.553703
C142  C     C_3   0.145960 0.076924 0.394049 -0.228793
H84   H     H_    0.170289 0.032945 0.431575 0.165562
H85   H     H_    0.125507 0.099586 0.415803 0.165849
H86   H     H_    0.181565 0.109482 0.409800 0.198951
O71   O     O_3   0.585189 0.416672 0.289765 -0.554314
C143  C     C_3   0.629426 0.400028 0.379718 -0.207616
H87   H     H_    0.606819 0.384685 0.401792 0.166066
H88   H     H_    0.662147 0.439608 0.420742 0.151008
H89   H     H_    0.657475 0.360184 0.390063 0.210985
O72   O     O_3   0.528146 0.615970 0.230087 -0.587716
C144  C     C_3   0.550914 0.656558 0.299352 -0.193416
H90   H     H_    0.599132 0.643151 0.361387 0.174126
H91   H     H_    0.519647 0.657961 0.309946 0.176409
H92   H     H_    0.553113 0.704731 0.281905 0.198700
O73   O     O_3   0.469858 0.383614 0.267723 -0.588597
C145  C     C_3   0.467397 0.337525 0.218341 -0.200949
H93   H     H_    0.515286 0.321748 0.253960 0.222129
H94   H     H_    0.442348 0.353469 0.150540 0.181311
H95   H     H_    0.441599 0.296301 0.211407 0.182912
O74   O     O_3   0.413239 0.584475 0.208390 -0.575340
C146  C     C_3   0.383694 0.617587 0.129968 -0.189609
H96   H     H_    0.361547 0.585753 0.073363 0.188517
H97   H     H_    0.416785 0.649999 0.139008 0.181778
H98   H     H_    0.345968 0.646754 0.112615 0.206409
O75   O     O_3   0.898074 0.937249 0.196790 -0.589401
C147  C     C_3   0.861167 0.909517 0.113036 -0.205769
H99   H     H_    0.885400 0.868799 0.116174 0.188120
H100  H     H_    0.847606 0.943504 0.062379 0.183253
H101  H     H_    0.817334 0.891788 0.091151 0.203073
O76   O     O_3   0.995617 0.121361 0.291324 -0.588936
C148  C     C_3   0.000758 0.166709 0.248442 -0.216598
H102  H     H_    0.970855 0.156084 0.177420 0.184824
H103  H     H_    0.050257 0.172260 0.282993 0.220904
H104  H     H_    0.985197 0.212431 0.251729 0.182409
O77   O     O_3   0.893433 0.057489 0.097388 -0.598991
C149  C     C_3   0.854092 0.080045 0.106029 -0.194428
H105  H     H_    0.876563 0.118933 0.154415 0.213629
H106  H     H_    0.839413 0.042294 0.124368 0.201395
H107  H     H_    0.811037 0.099003 0.041304 0.180942
O78   O     O_3   0.383667 0.465934 0.088438 -0.591311
C150  C     C_3   0.340767 0.451890 0.094083 -0.219839
H108  H     H_    0.335601 0.491218 0.122392 0.206831
H109  H     H_    0.354046 0.408438 0.132675 0.206013
H110  H     H_    0.294169 0.443540 0.026449 0.180232
Br5   Br    Br    0.100793 0.799381 0.204889 -0.441059
Br6   Br    Br    0.105147 0.200480 0.206139 -0.469135
Br7   Br    Br    0.585760 0.297010 0.201510 -0.475946
Br8   Br    Br    0.613047 0.700987 0.205715 -0.459178
O79   O     O_3   0.883374 0.795215 0.910624 -0.569302
C151  C     C_3   0.850255 0.756529 0.919870 -0.228490
H111  H     H_    0.869297 0.761710 0.986932 0.159089
H112  H     H_    0.851077 0.706485 0.906293 0.205682
H113  H     H_    0.800696 0.771777 0.871551 0.183225
O80   O     O_3   0.885184 0.204114 0.920310 -0.565558
C152  C     C_3   0.847658 0.250573 0.910590 -0.149210
H114  H     H_    0.845702 0.294078 0.879732 0.202505
H115  H     H_    0.864463 0.261409 0.975275 0.133516
H116  H     H_    0.799188 0.232236 0.866642 0.210033
O81   O     O_3   0.380363 0.295492 0.891747 -0.574023
C153  C     C_3   0.337995 0.248879 0.869793 -0.147680
H117  H     H_    0.345732 0.237205 0.927650 0.152360
H118  H     H_    0.340758 0.205838 0.843494 0.200226
H119  H     H_    0.289809 0.267527 0.817428 0.213560
O82   O     O_3   0.387978 0.703989 0.929651 -0.571194
C154  C     C_3   0.355806 0.747339 0.935183 -0.223260
H120  H     H_    0.354928 0.795004 0.912899 0.212489
H121  H     H_    0.376882 0.749147 0.003658 0.149293
H122  H     H_    0.306621 0.731349 0.891586 0.190592
Br9   Br    Br    0.899654 0.701680 0.794654 -0.498641
Br10  Br    Br    0.895146 0.298164 0.795496 -0.455730
Br11  Br    Br    0.413669 0.202082 0.794938 -0.491559
Br12  Br    Br    0.390777 0.798053 0.796489 -0.492398
Br13  Br    Br    0.299217 0.600920 0.194366 -0.480358
Br14  Br    Br    0.799528 0.122947 0.220356 -0.512367
Br15  Br    Br    0.296716 0.357734 0.259425 -0.460856
Br16  Br    Br    0.296420 0.548633 0.431759 -0.491924
Br17  Br    Br    0.797953 0.873085 0.224530 -0.469173
Br18  Br    Br    0.803473 0.008089 0.445429 -0.429648

loop_
_geom_bond_atom_site_label_1
_geom_bond_atom_site_label_2
_ccdc_geom_bond_type
C61   O37   A    
C18   C21   S    
C108  C120  S    
O46   Zn5   S    
C138  H72   S    
C4    C118  S    
O4    Zn7   S    
C140  H78   S    
C53   C99   S    
C136  H68   S    
C63   O23   A    
C66   C79   S    
C5    C119  S    
C51   O47   A    
C13   H19   S    
C67   H5    S    
C51   O5    A    
C81   C95   S    
C86   C88   S    
C140  H80   S    
C91   H11   S    
C1    O27   A    
C134  H60   S    
C83   C93   S    
C87   C94   S    
O22   Zn12  S    
C89   H9    S    
O11   Zn9   S    
C11   C15   S    
C18   C58   S    
C40   C43   S    
C31   O55   S    
C122  H26   S    
O18   Zn12  S    
C145  H93   S    
O42   Zn6   S    
C6    C104  S    
C81   C86   S    
C8    C114  S    
O34   Zn3   S    
C85   C87   S    
C88   C95   S    
C113  H13   S    
C106  C118  S    
C7    C33   S    
C42   C44   S    
C37   C63   S    
C44   C46   S    
C38   C64   S    
C77   C79   S    
C129  H47   S    
C121  H21   S    
C27   C31   S    
C84   C100  S    
O37   Zn1   S    
O76   C148  S    
C104  O52   S    
C56   O14   A    
C39   Br1   S    
C5    Br11  S    
C48   O44   A    
O50   C122  S    
C81   C99   S    
O32   Zn2   S    
O33   Zn3   S    
C31   C37   S    
C143  H87   S    
C19   C23   S    
C64   O25   A    
C34   O34   A    
O14   Zn12  S    
C59   O20   A    
C126  H36   S    
C66   C76   S    
C12   C20   S    
C145  H95   S    
C127  H40   S    
C141  H81   S    
C13   C21   S    
C2    C26   S    
C14   C26   S    
C55   O11   A    
C120  O82   S    
C139  H75   S    
C46   C62   S    
C61   O39   A    
C83   C100  S    
C58   O18   A    
O68   C140  S    
C32   O56   S    
C130  H50   S    
C67   C69   S    
C21   Br17  S    
C52   O6    A    
C137  H71   S    
C89   C101  S    
C117  O79   S    
C91   C103  S    
C147  H99   S    
C154  H120  S    
C95   C97   S    
C43   O61   S    
O27   Zn3   S    
O28   Zn4   S    
C35   O35   A    
C101  O49   S    
C152  H114  S    
C137  H70   S    
C66   C70   S    
O78   C150  S    
C92   C104  S    
O75   C147  S    
O39   Zn3   S    
C123  H27   S    
C6    Br12  S    
C51   C107  S    
C144  H90   S    
C21   C24   S    
O79   C151  S    
C28   C40   S    
C103  C107  S    
O17   Zn11  S    
C131  H51   S    
C5    C103  S    
C65   C79   S    
C150  H108  S    
O29   Zn1   S    
C47   O41   A    
C153  H117  S    
C150  H110  S    
C81   O69   S    
C54   O10   A    
C16   Br14  S    
C74   O64   S    
C143  H89   S    
C138  H73   S    
C24   C26   S    
C37   C40   S    
C78   C80   S    
C56   C88   S    
C11   C25   S    
C68   C74   S    
C65   C70   S    
C118  O80   S    
O80   C152  S    
C132  H54   S    
O82   C154  S    
C90   C102  S    
O5    Zn8   S    
C149  H106  S    
C139  H77   S    
C60   O22   A    
C123  H29   S    
C96   O76   S    
C14   C16   S    
C110  C114  S    
C76   O66   S    
C3    C101  S    
C78   O68   S    
C128  H42   S    
O60   C132  S    
C53   O9    A    
C119  O81   S    
C147  H101  S    
C151  H111  S    
C50   O4    A    
C148  H103  S    
C57   O16   A    
C36   O32   A    
C70   C72   S    
C112  Br8   S    
O64   C136  S    
C38   C41   S    
C152  H116  S    
C103  O51   S    
O35   Zn4   S    
C8    C34   S    
C125  H35   S    
C124  H30   S    
C116  C120  S    
O31   Zn2   S    
C4    C102  S    
C19   Br15  S    
C5    C9    S    
O53   C125  S    
C43   C45   S    
C70   H2    S    
O43   Zn7   S    
C20   C23   S    
C144  H92   S    
C114  H14   S    
C28   O58   S    
C125  H34   S    
C75   C77   S    
C133  H58   S    
C131  H53   S    
C113  C117  S    
C126  H37   S    
C14   H20   S    
C115  C119  S    
C142  H85   S    
C2    O2    A    
C12   H18   S    
C13   C26   S    
C50   O46   A    
C2    O28   A    
C112  C116  S    
C10   C116  S    
C149  H107  S    
C54   O8    A    
C154  H122  S    
C105  C109  S    
O58   C130  S    
C29   C41   S    
C18   C22   S    
C107  C111  S    
C30   C46   S    
C58   O17   A    
C136  H67   S    
C132  H56   S    
C14   C22   S    
O67   C139  S    
O9    Zn7   S    
C115  H15   S    
C87   C93   S    
C3    Br9   S    
C30   O60   S    
C60   C72   S    
C55   C87   S    
C146  H98   S    
C97   O77   S    
C85   H7    S    
O52   C124  S    
C49   O45   A    
C135  H63   S    
O23   Zn9   S    
O54   C126  S    
C13   C16   S    
C122  H25   S    
C145  H94   S    
C52   O48   A    
C151  H113  S    
C134  H62   S    
C88   C96   S    
C35   O31   A    
C82   C99   S    
O63   C135  S    
C33   O29   A    
O59   C131  S    
C124  H32   S    
O30   Zn1   S    
C11   C19   S    
C121  H22   S    
C29   O59   S    
C84   O72   S    
C29   C32   S    
C3    C7    S    
O38   Zn2   S    
C9    C35   S    
C94   C98   S    
O2    Zn2   S    
C17   C20   S    
C143  H88   S    
O66   C138  S    
C64   O26   A    
C3    C117  S    
C22   Br18  S    
C59   O19   A    
C23   O53   S    
C20   Br16  S    
C68   C69   S    
C121  H23   S    
C141  H82   S    
C67   C73   S    
O41   Zn5   S    
O15   Zn9   S    
C72   C76   S    
C27   C45   S    
C139  H76   S    
C109  Br5   S    
C10   C92   S    
O71   C143  S    
C105  C117  S    
C27   O57   S    
C107  C119  S    
O24   Zn10  S    
C130  H49   S    
C63   O24   A    
C111  Br7   S    
C141  H83   S    
C122  H24   S    
C9    C115  S    
O1    Zn1   S    
C84   C85   S    
C42   Br4   S    
O74   C146  S    
C129  H46   S    
C92   C112  S    
C49   C105  S    
C82   C86   S    
C86   H8    S    
C133  H59   S    
C108  C112  S    
C146  H96   S    
O65   C137  S    
C77   O67   S    
O51   C123  S    
C135  H65   S    
C83   O71   S    
C75   O65   S    
C129  H45   S    
C84   C94   S    
C140  H79   S    
C47   O43   A    
C83   C85   S    
C123  H28   S    
C36   O36   A    
C98   C100  S    
O47   Zn6   S    
C41   C44   S    
C22   C24   S    
C104  C108  S    
C131  H52   S    
C15   C17   S    
O70   C142  S    
C92   H12   S    
C28   C31   S    
O16   Zn10  S    
C67   C80   S    
C56   O13   A    
C6    C10   S    
C71   C74   S    
C153  H118  S    
C150  H109  S    
C116  H16   S    
C147  H100  S    
C29   C46   S    
C152  H115  S    
C11   H17   S    
C37   C39   S    
C15   Br13  S    
C95   O75   S    
C72   C75   S    
O20   Zn10  S    
C49   O3    A    
C45   C61   S    
C127  H39   S    
C65   H3    S    
O73   C145  S    
C153  H119  S    
C1    O1    A    
C90   H10   S    
O19   Zn9   S    
O69   C141  S    
C74   C78   S    
C50   C106  S    
O62   C134  S    
C30   C42   S    
C10   C36   S    
C17   C57   S    
C68   C80   S    
C48   O42   A    
C142  H84   S    
C94   O74   S    
O49   C121  S    
C47   C79   S    
C4    C8    S    
C9    C91   S    
C151  H112  S    
C55   O12   A    
C110  Br6   S    
C148  H102  S    
O56   C128  S    
C57   O15   A    
C38   C42   S    
O25   Zn11  S    
C62   O40   A    
C137  H69   S    
O36   Zn4   S    
C7    C89   S    
C89   C109  S    
O57   C129  S    
C91   C111  S    
C69   C71   S    
O44   Zn8   S    
C40   Br2   S    
C27   C39   S    
C144  H91   S    
C73   C78   S    
C12   C15   S    
O7    Zn5   S    
C32   C38   S    
C33   O33   A    
O61   C133  S    
C34   O30   A    
C109  C113  S    
O3    Zn7   S    
C1    C25   S    
C54   C100  S    
C24   O54   S    
C6    C120  S    
C97   C99   S    
C154  H121  S    
C101  C105  S    
C28   C45   S    
C82   C96   S    
O21   Zn11  S    
C41   Br3   S    
C138  H74   S    
C76   C77   S    
O40   Zn4   S    
C102  O50   S    
C39   C43   S    
C136  H66   S    
C48   C80   S    
C127  H41   S    
C132  H55   S    
C82   O70   S    
C69   H1    S    
C96   C97   S    
C60   O21   A    
O12   Zn10  S    
C146  H97   S    
O10   Zn8   S    
C114  C118  S    
C98   O78   S    
C135  H64   S    
C128  H43   S    
C66   H4    S    
C128  H44   S    
C8    C90   S    
C90   C110  S    
O6    Zn8   S    
C68   H6    S    
C4    Br10  S    
C44   O62   S    
O81   C153  S    
C106  C110  S    
C148  H104  S    
O8    Zn6   S    
C134  H61   S    
O45   Zn5   S    
C62   O38   A    
C93   O73   S    
C130  H48   S    
O13   Zn11  S    
C124  H31   S    
C65   C75   S    
C12   C25   S    
O72   C144  S    
C7    C113  S    
C30   C32   S    
C149  H105  S    
C73   O63   S    
C17   C19   S    
C102  C106  S    
C23   C25   S    
C125  H33   S    
O26   Zn12  S    
C53   O7    A    
C133  H57   S    
O48   Zn6   S    
C126  H38   S    
C52   C108  S    
C16   C18   S    
C142  H86   S    
C71   C73   S    
O55   C127  S    
C111  C115  S    
O77   C149  S    
C93   C98   S    
C59   C71   S    
