data_mof_unit_13579.cif
_audit_creation_date              2012-12-11T15:14:51-0500
_audit_creation_method            fapswitch 2.2
_symmetry_space_group_name_H-M    P1
_symmetry_Int_Tables_number       1
_space_group_crystal_system       triclinic
_cell_length_a                    11.187873
_cell_length_b                    11.175944
_cell_length_c                    18.442125
_cell_angle_alpha                 89.699222
_cell_angle_beta                  90.384008
_cell_angle_gamma                 119.996533
_cell_volume                      1996.99837302

loop_
_atom_site_label
_atom_site_type_symbol
_atom_type_description
_atom_site_fract_x
_atom_site_fract_y
_atom_site_fract_z
_atom_type_partial_charge
C1    C     C_R   0.521484 0.457479 0.645108 0.578923
C2    C     C_R   0.428569 0.540284 0.362463 0.530140
C3    C     C_R   0.476188 0.930412 0.143522 0.546489
C4    C     C_R   0.070522 0.547339 0.356797 0.546534
C5    C     C_3   0.471811 0.087477 0.461333 0.031937
C6    C     C_3   0.612951 0.615346 0.024535 0.043669
C7    C     C_3   0.916752 0.382736 0.464116 0.034207
C8    C     C_3   0.394888 0.016618 0.024641 0.042324
C9    C     C_3   0.593406 0.524667 0.462856 0.030186
C10   C     C_3   0.002422 0.391040 0.023406 0.044168
C11   C     C_3   0.079957 0.474767 0.956251 0.044596
C12   C     C_R   0.893447 0.461930 0.862470 0.528983
C13   C     C_3   0.607750 0.622396 0.524576 0.034528
C14   C     C_3   0.402280 0.933753 0.960377 0.043886
C15   C     C_3   0.015931 0.395171 0.525609 0.036022
C16   C     C_3   0.529333 0.609008 0.956898 0.045433
C17   C     C_3   0.377535 0.991678 0.521622 0.028574
C18   C     C_3   0.600650 0.127335 0.510072 -0.129468
C19   C     C_3   0.609594 0.482784 0.000971 -0.197338
C20   C     C_3   0.870678 0.471217 0.508512 -0.136627
C21   C     C_3   0.525655 0.144953 0.998418 -0.203023
C22   C     C_3   0.498185 0.397651 0.510705 -0.124963
C23   C     C_R   0.543136 0.066856 0.644348 0.579073
C24   C     C_3   0.874052 0.396774 0.999675 -0.198097
C25   C     C_3   0.131158 0.611804 0.998746 -0.127665
C26   C     C_3   0.481306 0.626750 0.495956 -0.198949
C27   C     C_3   0.491947 0.890656 0.006283 -0.120509
C28   C     C_3   0.131216 0.527809 0.491347 -0.188485
C29   C     C_3   0.393188 0.522213 0.999229 -0.128866
C30   C     C_3   0.389722 0.872306 0.489931 -0.199020
C31   C     C_3   0.505487 0.027770 0.569253 0.005104
C32   C     C_3   0.521411 0.473613 0.935092 -0.000242
C33   C     C_3   0.973147 0.485210 0.569017 0.005363
C34   C     C_R   0.538345 0.432631 0.862700 0.528184
C35   C     C_3   0.535954 0.060611 0.936262 0.001582
C36   C     C_3   0.510645 0.497090 0.571660 0.006788
C37   C     C_3   0.953388 0.483626 0.934387 0.002163
C38   C     C_3   0.051326 0.527101 0.065098 -0.005333
C39   C     C_3   0.463614 0.524446 0.436791 0.002451
C40   C     C_3   0.486673 0.977526 0.069515 -0.000512
C41   C     C_3   0.029569 0.517566 0.432221 0.003089
C42   C     C_3   0.477380 0.526329 0.065864 -0.003235
C43   C     C_3   0.488532 0.970103 0.432275 0.021404
C44   C     C_3   0.516523 0.909207 0.538891 -0.159723
C45   C     C_R   0.933290 0.477810 0.644269 0.580872
C46   C     C_3   0.387722 0.386684 0.977333 -0.075009
C47   C     C_3   0.087962 0.616782 0.536059 -0.132332
C48   C     C_3   0.625420 0.020201 0.981511 -0.071278
C49   C     C_3   0.385599 0.502822 0.544832 -0.153590
C50   C     C_3   0.001823 0.618357 0.976174 -0.072057
C51   C     C_3   0.923033 0.532202 0.042478 -0.125948
C52   C     C_3   0.368488 0.401039 0.484457 -0.074232
C53   C     C_3   0.616360 0.104840 0.044641 -0.140687
C54   C     C_3   0.987144 0.605707 0.475931 -0.070920
C55   C     C_3   0.474813 0.394637 0.043852 -0.122416
C56   C     C_R   0.572281 0.112989 0.862506 0.529377
C57   C     C_3   0.614175 0.006294 0.480215 -0.080356
C58   C     C_2   0.427367 0.156882 0.405214 0.611024
C59   C     C_2   0.735659 0.738148 0.057666 0.601011
C60   C     C_2   0.858978 0.267394 0.409180 0.580906
C61   C     C_2   0.269523 0.011232 0.057335 0.598840
C62   C     C_2   0.702665 0.561250 0.406337 0.583445
C63   C     C_2   0.001561 0.267414 0.056312 0.601571
C64   C     C_2   0.143188 0.428252 0.898872 0.621246
C65   C     C_2   0.735086 0.745308 0.554631 0.606636
C66   C     C_2   0.290338 0.867763 0.903438 0.620965
C67   C     C_R   0.432618 0.539669 0.137493 0.520053
C68   C     C_2   0.027890 0.279840 0.561563 0.586090
C69   C     C_2   0.577172 0.722017 0.900963 0.624197
C70   C     C_2   0.241670 0.976235 0.544751 0.595039
C71   C     C_R   0.476445 0.927410 0.357272 0.564863
C72   C     C_R   0.109167 0.569218 0.137397 0.520032
Cr1   Cr    Cr6+3 0.769930 0.543130 0.750000 1.077309
Cr2   Cr    Cr6+3 0.773200 0.230070 0.750000 1.076921
Cr3   Cr    Cr6+3 0.456870 0.226800 0.750000 1.084341
Cr4   Cr    Cr6+3 0.543130 0.769930 0.250000 1.119661
Cr5   Cr    Cr6+3 0.230070 0.773200 0.250000 1.111758
Cr6   Cr    Cr6+3 0.226800 0.456870 0.250000 1.116097
H1    H     H_    0.529029 0.838603 0.576319 0.194466
H2    H     H_    0.980309 0.693610 0.452984 0.251426
H3    H     H_    0.459757 0.314036 0.083587 0.200822
H4    H     H_    0.708041 0.004914 0.462923 0.224316
H5    H     H_    0.682713 0.228066 0.527861 0.106639
H6    H     H_    0.696136 0.467902 0.990885 0.101514
H7    H     H_    0.766750 0.452115 0.522154 0.108697
H8    H     H_    0.537071 0.241519 0.979558 0.099726
H9    H     H_    0.508859 0.307904 0.525234 0.110709
H10   H     H_    0.772929 0.315671 0.983866 0.096954
H11   H     H_    0.236029 0.695685 0.008887 0.097977
H12   H     H_    0.298740 0.290800 0.955995 0.221988
H13   H     H_    0.477236 0.712039 0.470369 0.114784
H14   H     H_    0.476199 0.787378 0.017925 0.102088
H15   H     H_    0.230478 0.549490 0.469768 0.101791
H16   H     H_    0.310924 0.543874 0.009728 0.091710
H17   H     H_    0.306892 0.774715 0.469228 0.119783
H18   H     H_    0.460701 0.250852 0.307859 0.369245
H19   H     H_    0.860107 0.944245 0.058713 0.352517
H20   H     H_    0.736350 0.180462 0.322452 0.368542
H21   H     H_    0.062357 0.919056 0.059533 0.351847
H22   H     H_    0.785959 0.497149 0.330768 0.366973
H23   H     H_    0.155432 0.706574 0.570625 0.162665
H24   H     H_    0.083981 0.143658 0.058396 0.353600
H25   H     H_    0.133897 0.268731 0.843365 0.349068
H26   H     H_    0.817752 0.891888 0.632008 0.349825
H27   H     H_    0.139198 0.875659 0.847054 0.348120
H28   H     H_    0.104065 0.220049 0.644776 0.343890
H29   H     H_    0.737258 0.871361 0.845163 0.351190
H30   H     H_    0.123955 0.983983 0.624797 0.340832
H31   H     H_    0.721538 0.026758 0.961204 0.217066
H32   H     H_    0.311174 0.505454 0.582911 0.194882
H33   H     H_    0.995789 0.707820 0.954488 0.219050
H34   H     H_    0.860309 0.551144 0.081915 0.199876
H35   H     H_    0.266340 0.314352 0.468004 0.225397
H36   H     H_    0.696297 0.172692 0.084156 0.190921
O1    O     O_R   0.913270 0.574260 0.668550 -0.493253
O2    O     O_R   0.574260 0.913270 0.331450 -0.509901
O3    O     O_R   0.086730 0.660990 0.168550 -0.471488
O4    O     O_R   0.339010 0.425740 0.331450 -0.477471
O5    O     O_R   0.640160 0.530400 0.673300 -0.483907
O6    O     O_R   0.890240 0.359840 0.826700 -0.474556
O7    O     O_R   0.469600 0.109760 0.673300 -0.458472
O8    O     O_R   0.640160 0.530400 0.826700 -0.473019
O9    O     O_R   0.890240 0.359840 0.673300 -0.478916
O10   O     O_R   0.469600 0.109760 0.826700 -0.469510
O11   O     O_R   0.530400 0.640160 0.173300 -0.465805
O12   O     O_R   0.660990 0.086730 0.831450 -0.495035
O13   O     O_R   0.359840 0.890240 0.326700 -0.480048
O14   O     O_R   0.109760 0.469600 0.173300 -0.475240
O15   O     O_R   0.530400 0.640160 0.326700 -0.456251
O16   O     O_R   0.359840 0.890240 0.173300 -0.489648
O17   O     O_R   0.109760 0.469600 0.326700 -0.484206
O18   O     O_3   0.666667 0.333333 0.750000 -0.363075
O19   O     O_3   0.333333 0.666667 0.250000 -0.375724
O20   O     O_2   0.314981 0.148776 0.410274 -0.472126
O21   O     O_R   0.505076 0.213947 0.342751 -0.605419
O22   O     O_2   0.790434 0.723198 0.111795 -0.501034
O23   O     O_R   0.425740 0.339010 0.668550 -0.481154
O24   O     O_R   0.783750 0.869448 0.028500 -0.673498
O25   O     O_2   0.915718 0.199336 0.400209 -0.447627
O26   O     O_R   0.754073 0.249857 0.362120 -0.630331
O27   O     O_2   0.281679 0.079713 0.111162 -0.513805
O28   O     O_R   0.138811 0.921968 0.029190 -0.671259
O29   O     O_2   0.775150 0.681878 0.387977 -0.444432
O30   O     O_R   0.714353 0.458820 0.370664 -0.632061
O31   O     O_2   0.930579 0.211250 0.109496 -0.505852
O32   O     O_R   0.085648 0.220254 0.028160 -0.672399
O33   O     O_2   0.238747 0.512892 0.862282 -0.417919
O34   O     O_R   0.913270 0.574260 0.831450 -0.498934
O35   O     O_R   0.085282 0.287396 0.884227 -0.648039
O36   O     O_2   0.846686 0.786496 0.525688 -0.446620
O37   O     O_R   0.725568 0.810692 0.616872 -0.685251
O38   O     O_2   0.277332 0.770267 0.868046 -0.419978
O39   O     O_R   0.207908 0.925971 0.887498 -0.645538
O40   O     O_2   0.965585 0.162825 0.537067 -0.459786
O41   O     O_R   0.104866 0.305481 0.625351 -0.691743
O42   O     O_2   0.493893 0.740259 0.867126 -0.419510
O43   O     O_R   0.717565 0.800440 0.884619 -0.644356
O44   O     O_2   0.148760 0.940897 0.500271 -0.423281
O45   O     O_R   0.660990 0.086730 0.668550 -0.488448
O46   O     O_R   0.220022 0.998952 0.616588 -0.665883
O47   O     O_R   0.425740 0.339010 0.831450 -0.499607
O48   O     O_R   0.574260 0.913270 0.168550 -0.485693
O49   O     O_R   0.086730 0.660990 0.331450 -0.496923
O50   O     O_R   0.339010 0.425740 0.168550 -0.474033

loop_
_geom_bond_atom_site_label_1
_geom_bond_atom_site_label_2
_ccdc_geom_bond_type
C27   C48   S    
Cr5   O49   S    
H27   O39   S    
C28   C47   S    
Cr6   O50   S    
C51   H34   S    
Cr1   O5    S    
Cr2   O18   S    
C29   C42   S    
C3    O16   A    
C33   C45   S    
H19   O24   S    
H21   O28   S    
Cr4   O48   S    
C10   C63   S    
C62   O29   D    
C68   O41   S    
Cr6   O14   S    
C25   H11   S    
C2    O4    A    
C23   O7    A    
C13   C65   S    
C52   H35   S    
C45   O9    A    
C6    C19   S    
C5    C58   S    
C72   O14   A    
C47   H23   S    
C56   O10   A    
H26   O37   S    
Cr6   O4    S    
C68   O40   D    
C67   O11   A    
C29   H16   S    
C25   C38   S    
C9    C22   S    
C5    C17   S    
C4    C41   S    
C19   C32   S    
C59   O22   D    
C9    C39   S    
C2    O15   A    
C1    O5    A    
C65   O36   D    
C11   C37   S    
C9    C13   S    
C25   C50   S    
C3    O48   A    
C12   O6    A    
C6    C42   S    
C2    C39   S    
C23   O45   A    
C46   C55   S    
C69   O43   S    
C56   O12   A    
C14   C27   S    
H18   O21   S    
C44   C57   S    
C63   O32   S    
Cr5   O13   S    
C8    C61   S    
C34   O47   A    
C24   C51   S    
C7    C15   S    
C48   H31   S    
C5    C43   S    
Cr1   O18   S    
C17   C70   S    
C34   O8    A    
C17   C30   S    
C30   C44   S    
Cr5   O19   S    
C13   C26   S    
C35   C48   S    
C67   O50   A    
H29   O43   S    
C24   C37   S    
C4    O17   A    
C54   H2    S    
C46   H12   S    
C48   C53   S    
C38   C72   S    
C69   O42   D    
C31   C44   S    
Cr1   O34   S    
Cr3   O10   S    
C13   C36   S    
C20   C54   S    
C11   C64   S    
H22   O30   S    
C26   C49   S    
C14   C35   S    
H25   O35   S    
C38   C51   S    
C71   O13   A    
C59   O24   S    
C10   C24   S    
C16   C29   S    
C58   O20   D    
C53   H36   S    
C9    C62   S    
H20   O26   S    
C28   H15   S    
C70   O44   D    
C32   C34   S    
C72   O3    A    
Cr6   O17   S    
C36   C49   S    
C66   O38   D    
C30   H17   S    
C42   C55   S    
Cr4   O15   S    
C45   O1    A    
C18   C57   S    
C27   C40   S    
C49   C52   S    
C20   H7    S    
C18   H5    S    
C14   C66   S    
C4    O49   A    
C27   H14   S    
C50   C51   S    
C22   H9    S    
Cr4   O11   S    
C24   H10   S    
C60   O26   S    
C47   C54   S    
C21   C35   S    
C20   C33   S    
Cr2   O45   S    
C61   O27   D    
C3    C40   S    
C7    C20   S    
C64   O33   D    
Cr3   O23   S    
C42   C67   S    
C17   C31   S    
C8    C14   S    
C30   C43   S    
C55   H3    S    
C19   H6    S    
C7    C60   S    
C1    O23   A    
Cr3   O18   S    
C22   C52   S    
C19   C55   S    
Cr5   O3    S    
C21   H8    S    
C43   C71   S    
C35   C56   S    
Cr3   O7    S    
C32   C46   S    
C6    C59   S    
Cr1   O8    S    
C44   H1    S    
C16   C69   S    
C62   O30   S    
C8    C21   S    
C66   O39   S    
Cr4   O19   S    
C40   C53   S    
H30   O46   S    
C58   O21   S    
C16   C32   S    
C22   C36   S    
C29   C46   S    
C65   O37   S    
Cr1   O1    S    
Cr3   O47   S    
C64   O35   S    
C10   C38   S    
C12   O34   A    
C26   H13   S    
H24   O32   S    
C21   C53   S    
C37   C50   S    
C15   C28   S    
Cr2   O12   S    
C5    C18   S    
C33   C47   S    
C15   C68   S    
C50   H33   S    
Cr4   O2    S    
C15   C33   S    
C71   O2    A    
Cr2   O9    S    
C70   O46   S    
Cr5   O16   S    
C7    C41   S    
C26   C39   S    
Cr6   O19   S    
C41   C54   S    
C10   C11   S    
C43   C57   S    
C60   O25   D    
C6    C16   S    
Cr2   O6    S    
C61   O28   S    
H28   O41   S    
C12   C37   S    
C11   C25   S    
C57   H4    S    
C18   C31   S    
C8    C40   S    
C63   O31   D    
C28   C41   S    
C39   C52   S    
C1    C36   S    
C23   C31   S    
C49   H32   S    
