data_mof_unit_54075.cif
_audit_creation_date              2012-12-11T14:44:18-0500
_audit_creation_method            fapswitch 2.2
_symmetry_space_group_name_H-M    P1
_symmetry_Int_Tables_number       1
_space_group_crystal_system       triclinic
_cell_length_a                    18.861028
_cell_length_b                    10.943366
_cell_length_c                    18.792618
_cell_angle_alpha                 90.008449
_cell_angle_beta                  90.246434
_cell_angle_gamma                 89.995946
_cell_volume                      3878.81929407

loop_
_atom_site_label
_atom_site_type_symbol
_atom_type_description
_atom_site_fract_x
_atom_site_fract_y
_atom_site_fract_z
_atom_type_partial_charge
C1    C     C_R   0.731264 0.380006 0.147082 0.537203
C2    C     C_R   0.988358 0.998510 0.035101 -0.097938
C3    C     C_R   0.994966 0.776017 0.037450 0.018434
C4    C     C_R   0.500041 0.053374 0.036375 -0.170431
C5    C     C_R   0.500324 0.053407 0.963499 -0.170390
C6    C     C_R   0.000053 0.553372 0.036372 -0.170428
C7    C     C_R   0.000336 0.553407 0.963495 -0.170388
C8    C     C_2   0.507271 0.394318 0.578054 0.634210
C9    C     C_2   0.493384 0.394762 0.422119 0.634293
C10   C     C_2   0.007267 0.894368 0.578056 0.634020
C11   C     C_2   0.993395 0.894711 0.422140 0.634369
C12   C     C_R   0.511389 0.498576 0.964974 -0.097843
C13   C     C_R   0.488364 0.498511 0.035101 -0.097942
C14   C     C_R   0.694217 0.875542 0.035123 -0.141959
C15   C     C_R   0.305795 0.875557 0.964867 -0.141819
C16   C     C_R   0.194217 0.375542 0.035123 -0.141962
C17   C     C_R   0.805795 0.375557 0.964867 -0.141817
C18   C     C_R   0.696247 0.863179 0.961527 -0.162947
C19   C     C_R   0.303760 0.863194 0.038462 -0.162884
C20   C     C_R   0.196247 0.363179 0.961528 -0.162948
C21   C     C_R   0.268733 0.380012 0.852915 0.537273
C22   C     C_R   0.803760 0.363194 0.038462 -0.162883
C23   C     C_R   0.747284 0.927204 0.922027 0.016196
C24   C     C_R   0.252696 0.927183 0.077967 0.016192
C25   C     C_R   0.247284 0.427204 0.922027 0.016197
C26   C     C_R   0.752696 0.427184 0.077967 0.016190
C27   C     C_R   0.790776 0.014466 0.956133 0.231402
C28   C     C_R   0.209169 0.014397 0.043861 0.231399
C29   C     C_R   0.290776 0.514466 0.956133 0.231401
C30   C     C_R   0.709169 0.514398 0.043861 0.231400
C31   C     C_R   0.792700 0.017404 0.029305 -0.056234
C32   C     C_R   0.231264 0.880006 0.147082 0.537199
C33   C     C_R   0.207247 0.017314 0.970689 -0.056207
C34   C     C_R   0.292700 0.517404 0.029305 -0.056233
C35   C     C_R   0.707248 0.517315 0.970689 -0.056208
C36   C     C_R   0.745031 0.947774 0.069599 -0.013574
C37   C     C_R   0.254956 0.947740 0.930391 -0.013592
C38   C     C_R   0.245031 0.447774 0.069599 -0.013573
C39   C     C_R   0.754956 0.447741 0.930391 -0.013592
C40   C     C_R   0.496082 0.054011 0.462920 0.203420
C41   C     C_R   0.502828 0.053744 0.536639 0.204718
C42   C     C_R   0.996232 0.553971 0.462984 0.203651
C43   C     C_R   0.768733 0.880012 0.852915 0.537275
C44   C     C_R   0.002978 0.553771 0.536704 0.204501
C45   C     C_R   0.499101 0.164824 0.574442 -0.003393
C46   C     C_R   0.500505 0.165129 0.425340 -0.003393
C47   C     C_R   0.999176 0.664853 0.574484 -0.003327
C48   C     C_R   0.000581 0.665090 0.425382 -0.003431
C49   C     C_R   0.530454 0.155397 0.146937 0.594461
C50   C     C_R   0.469572 0.155410 0.853045 0.594268
C51   C     C_R   0.030455 0.655397 0.146936 0.594436
C52   C     C_R   0.969573 0.655411 0.853044 0.594286
C53   C     C_R   0.501100 0.277842 0.537601 -0.044405
C54   C     C_R   0.520265 0.388167 0.927899 0.260087
C55   C     C_R   0.498993 0.278014 0.462369 -0.044029
C56   C     C_R   0.001146 0.777856 0.537628 -0.044377
C57   C     C_R   0.999046 0.777984 0.462399 -0.044030
C58   C     C_R   0.784401 0.049686 0.478275 -0.131760
C59   C     C_R   0.216037 0.050565 0.521566 -0.132182
C60   C     C_R   0.284398 0.549670 0.478276 -0.131863
C61   C     C_R   0.716041 0.550594 0.521564 -0.132122
C62   C     C_R   0.790780 0.023150 0.549696 -0.154682
C63   C     C_R   0.209638 0.023867 0.450138 -0.153760
C64   C     C_R   0.290769 0.523152 0.549698 -0.154725
C65   C     C_R   0.479616 0.388046 0.072130 0.260009
C66   C     C_R   0.709636 0.523879 0.450137 -0.153745
C67   C     C_R   0.745577 0.937317 0.581499 0.068731
C68   C     C_R   0.254503 0.937311 0.418494 0.069017
C69   C     C_R   0.245576 0.437303 0.581498 0.068754
C70   C     C_R   0.754505 0.437327 0.418490 0.068998
C71   C     C_R   0.687176 0.891327 0.543052 0.239402
C72   C     C_R   0.312631 0.890666 0.457083 0.240655
C73   C     C_R   0.187188 0.391282 0.543044 0.239534
C74   C     C_R   0.812642 0.390705 0.457076 0.240532
C75   C     C_R   0.680478 0.921035 0.470711 -0.127664
C76   C     C_R   0.020263 0.888171 0.927898 0.260085
C77   C     C_R   0.319275 0.920327 0.529430 -0.126925
C78   C     C_R   0.180487 0.420997 0.470704 -0.127613
C79   C     C_R   0.819283 0.420357 0.529425 -0.126973
C80   C     C_R   0.730882 0.996074 0.437693 -0.009727
C81   C     C_R   0.269173 0.996156 0.562303 -0.009957
C82   C     C_R   0.230885 0.496052 0.437691 -0.009788
C83   C     C_R   0.769177 0.496178 0.562300 -0.009908
C84   C     C_R   0.740039 0.974714 0.145144 0.567494
C85   C     C_R   0.259958 0.974708 0.854852 0.567511
C86   C     C_R   0.240040 0.474713 0.145144 0.567487
C87   C     C_R   0.979613 0.888043 0.072129 0.260013
C88   C     C_R   0.759958 0.474708 0.854852 0.567517
C89   C     C_R   0.731138 0.381914 0.351405 0.560626
C90   C     C_R   0.268869 0.381905 0.648597 0.560553
C91   C     C_R   0.231137 0.881911 0.351405 0.560647
C92   C     C_R   0.768869 0.881907 0.648598 0.560548
C93   C     C_R   0.530426 0.157335 0.353077 0.590620
C94   C     C_R   0.469486 0.157263 0.646850 0.590895
C95   C     C_R   0.030442 0.657328 0.353090 0.590559
C96   C     C_R   0.969503 0.657269 0.646865 0.590917
C97   C     C_R   0.727394 0.022067 0.361576 0.567371
C98   C     C_R   0.011383 0.998578 0.964974 -0.097844
C99   C     C_R   0.272621 0.022112 0.638431 0.567218
C100  C     C_R   0.227395 0.522060 0.361576 0.567351
C101  C     C_R   0.772623 0.522119 0.638432 0.567233
C102  C     C_R   0.499662 0.163199 0.925293 0.032245
C103  C     C_R   0.500474 0.163136 0.074641 0.032189
C104  C     C_R   0.999667 0.663200 0.925290 0.032245
C105  C     C_R   0.000479 0.663134 0.074639 0.032191
C106  C     C_R   0.505041 0.276066 0.962533 0.018433
C107  C     C_R   0.494965 0.276019 0.037451 0.018432
C108  C     C_R   0.005042 0.776067 0.962531 0.018431
Cr1   Cr    Cr6+3 0.772000 0.169640 0.250110 1.054184
Cr2   Cr    Cr6+3 0.383330 0.010620 0.749160 1.050362
Cr3   Cr    Cr6+3 0.116670 0.510620 0.250840 1.049620
Cr4   Cr    Cr6+3 0.883330 0.510620 0.749160 1.050232
Cr5   Cr    Cr6+3 0.228000 0.169640 0.749890 1.054018
Cr6   Cr    Cr6+3 0.272000 0.669640 0.250110 1.054210
Cr7   Cr    Cr6+3 0.728000 0.669640 0.749890 1.053995
Cr8   Cr    Cr6+3 0.614960 0.323350 0.249260 1.084639
Cr9   Cr    Cr6+3 0.385040 0.323350 0.750740 1.084531
Cr10  Cr    Cr6+3 0.114960 0.823350 0.249260 1.084669
Cr11  Cr    Cr6+3 0.885040 0.823350 0.750740 1.084504
Cr12  Cr    Cr6+3 0.616670 0.010620 0.250840 1.049489
H1    H     H_    0.502622 0.965349 0.062675 0.147868
H2    H     H_    0.166037 0.064812 0.421043 0.185042
H3    H     H_    0.334633 0.563575 0.578643 0.185296
H4    H     H_    0.666028 0.564811 0.421044 0.184959
H5    H     H_    0.637877 0.881586 0.439764 0.127111
H6    H     H_    0.361582 0.880217 0.560496 0.128529
H7    H     H_    0.137888 0.381542 0.439755 0.127431
H8    H     H_    0.861588 0.380245 0.560489 0.128205
H9    H     H_    0.021401 0.085287 0.939133 0.108885
H10   H     H_    0.978232 0.085164 0.060978 0.108760
H11   H     H_    0.521409 0.585283 0.939133 0.108886
H12   H     H_    0.497913 0.965398 0.937150 0.147824
H13   H     H_    0.478240 0.585167 0.060977 0.108759
H14   H     H_    0.653775 0.828075 0.064984 0.176234
H15   H     H_    0.346264 0.828131 0.935006 0.176293
H16   H     H_    0.153776 0.328074 0.064984 0.176232
H17   H     H_    0.846264 0.328131 0.935006 0.176294
H18   H     H_    0.660375 0.799362 0.936078 0.135957
H19   H     H_    0.339656 0.799418 0.063909 0.135939
H20   H     H_    0.160375 0.299361 0.936079 0.135956
H21   H     H_    0.839656 0.299417 0.063909 0.135941
H22   H     H_    0.829564 0.080163 0.054224 0.147334
H23   H     H_    0.002639 0.465346 0.062670 0.147869
H24   H     H_    0.170356 0.080032 0.945773 0.147403
H25   H     H_    0.329564 0.580163 0.054224 0.147336
H26   H     H_    0.670358 0.580034 0.945773 0.147402
H27   H     H_    0.604645 0.785033 0.540180 0.326244
H28   H     H_    0.394957 0.783863 0.460088 0.325512
H29   H     H_    0.104677 0.284942 0.540164 0.326237
H30   H     H_    0.894987 0.283943 0.460075 0.325506
H31   H     H_    0.557236 0.472851 0.844661 0.324098
H32   H     H_    0.442556 0.472561 0.155389 0.324229
H33   H     H_    0.057231 0.972860 0.844661 0.324096
H34   H     H_    0.997931 0.465397 0.937145 0.147821
H35   H     H_    0.942549 0.972553 0.155388 0.324231
H36   H     H_    0.811630 0.112979 0.873656 0.336205
H37   H     H_    0.188287 0.112951 0.126334 0.336171
H38   H     H_    0.311630 0.612979 0.873656 0.336209
H39   H     H_    0.688288 0.612951 0.126334 0.336168
H40   H     H_    0.517553 0.882090 0.446672 0.317493
H41   H     H_    0.481818 0.881036 0.551611 0.317608
H42   H     H_    0.017529 0.381870 0.446962 0.317568
H43   H     H_    0.981798 0.381244 0.551903 0.317567
H44   H     H_    0.557186 0.487331 0.656249 0.346581
H45   H     H_    0.823428 0.107789 0.454035 0.192943
H46   H     H_    0.443820 0.488961 0.344189 0.345995
H47   H     H_    0.057067 0.987428 0.656307 0.346510
H48   H     H_    0.943665 0.988913 0.344304 0.346043
H49   H     H_    0.177339 0.109487 0.545692 0.192340
H50   H     H_    0.323425 0.607767 0.454036 0.192957
H51   H     H_    0.677349 0.609534 0.545688 0.192318
H52   H     H_    0.834657 0.063549 0.578635 0.185282
O1    O     O_R   0.787540 0.042690 0.170470 -0.521861
O2    O     O_R   0.454130 0.051100 0.669160 -0.459532
O3    O     O_R   0.045870 0.551100 0.330840 -0.460921
O4    O     O_R   0.954130 0.551100 0.669160 -0.459818
O5    O     O_R   0.681340 0.959300 0.325510 -0.501218
O6    O     O_R   0.318660 0.959300 0.674490 -0.500820
O7    O     O_R   0.181340 0.459300 0.325510 -0.501173
O8    O     O_R   0.818660 0.459300 0.674490 -0.500866
O9    O     O_3   0.667880 0.167870 0.250070 -0.302011
O10   O     O_3   0.332120 0.167870 0.749930 -0.302177
O11   O     O_3   0.167880 0.667870 0.250070 -0.302033
O12   O     O_R   0.212460 0.042690 0.829530 -0.521813
O13   O     O_3   0.832120 0.667870 0.749930 -0.302148
O14   O     O_R   0.765660 0.292160 0.175050 -0.517807
O15   O     O_R   0.234340 0.292160 0.824950 -0.517760
O16   O     O_R   0.265660 0.792160 0.175050 -0.517812
O17   O     O_R   0.734340 0.792160 0.824950 -0.517755
O18   O     O_R   0.670190 0.408980 0.168550 -0.485470
O19   O     O_R   0.329810 0.408980 0.831450 -0.485374
O20   O     O_R   0.170190 0.908980 0.168550 -0.485469
O21   O     O_R   0.829810 0.908980 0.831450 -0.485377
O22   O     O_R   0.556580 0.251450 0.175160 -0.439447
O23   O     O_R   0.287540 0.542690 0.170470 -0.521856
O24   O     O_R   0.443420 0.251450 0.824840 -0.439445
O25   O     O_R   0.056580 0.751450 0.175160 -0.439468
O26   O     O_R   0.943420 0.751450 0.824840 -0.439434
O27   O     O_R   0.545920 0.049510 0.170320 -0.535244
O28   O     O_R   0.454080 0.049510 0.829680 -0.535312
O29   O     O_R   0.045920 0.549510 0.170320 -0.535260
O30   O     O_R   0.954080 0.549510 0.829680 -0.535296
O31   O     O_R   0.681390 0.957840 0.176710 -0.498993
O32   O     O_R   0.318610 0.957840 0.823290 -0.498997
O33   O     O_R   0.181390 0.457840 0.176710 -0.499002
O34   O     O_R   0.712460 0.542690 0.829530 -0.521818
O35   O     O_R   0.818610 0.457840 0.823290 -0.498989
O36   O     O_R   0.787500 0.044280 0.330990 -0.475505
O37   O     O_R   0.212500 0.044280 0.669010 -0.475800
O38   O     O_R   0.287500 0.544280 0.330990 -0.475484
O39   O     O_R   0.712500 0.544280 0.669010 -0.475841
O40   O     O_R   0.765610 0.293630 0.323860 -0.459700
O41   O     O_R   0.234390 0.293630 0.676140 -0.460002
O42   O     O_R   0.265610 0.793630 0.323860 -0.459688
O43   O     O_R   0.734390 0.793630 0.676140 -0.460016
O44   O     O_R   0.670140 0.410570 0.329080 -0.522377
O45   O     O_R   0.556540 0.252920 0.323970 -0.484800
O46   O     O_R   0.329860 0.410570 0.670920 -0.522791
O47   O     O_R   0.170140 0.910570 0.329080 -0.522278
O48   O     O_R   0.829860 0.910570 0.670920 -0.522850
O49   O     O_3   0.639147 0.815259 0.576045 -0.654620
O50   O     O_3   0.360436 0.813995 0.424217 -0.654761
O51   O     O_3   0.139176 0.315178 0.576030 -0.654541
O52   O     O_3   0.860461 0.314066 0.424204 -0.654851
O53   O     O_3   0.548704 0.387527 0.860221 -0.670906
O54   O     O_3   0.451189 0.387271 0.139805 -0.670925
O55   O     O_3   0.048701 0.887535 0.860220 -0.670885
O56   O     O_R   0.443460 0.252920 0.676030 -0.485043
O57   O     O_3   0.951186 0.887264 0.139804 -0.670955
O58   O     O_3   0.834443 0.093871 0.919975 -0.716913
O59   O     O_3   0.165471 0.093784 0.080020 -0.716852
O60   O     O_3   0.334443 0.593871 0.919975 -0.716909
O61   O     O_3   0.665472 0.593785 0.080021 -0.716857
O62   O     O_3   0.486713 0.945972 0.425938 -0.648755
O63   O     O_3   0.511609 0.945319 0.573419 -0.648938
O64   O     O_3   0.986933 0.445886 0.426020 -0.648803
O65   O     O_3   0.011829 0.445393 0.573502 -0.648947
O66   O     O_2   0.467485 0.479791 0.565258 -0.512760
O67   O     O_R   0.056540 0.752920 0.323970 -0.484894
O68   O     O_R   0.558119 0.404513 0.632092 -0.660513
O69   O     O_2   0.533686 0.479518 0.434959 -0.512621
O70   O     O_R   0.442485 0.406017 0.368201 -0.660662
O71   O     O_2   0.967518 0.979866 0.565157 -0.512893
O72   O     O_R   0.058033 0.904581 0.632178 -0.660436
O73   O     O_2   0.033804 0.979405 0.434839 -0.512574
O74   O     O_R   0.942334 0.905997 0.368356 -0.660701
O75   O     O_R   0.943460 0.752920 0.676030 -0.484988
O76   O     O_R   0.545870 0.051100 0.330840 -0.461223

loop_
_geom_bond_atom_site_label_1
_geom_bond_atom_site_label_2
_ccdc_geom_bond_type
Cr10  O67   S    
C58   C62   A    
H48   O74   S    
C79   H8    S    
Cr9   O56   S    
C71   O49   S    
C12   H11   S    
C80   C97   S    
Cr11  O26   S    
C92   O48   A    
Cr6   O42   S    
Cr5   O41   S    
Cr8   O44   S    
Cr1   O14   S    
C9    O69   D    
C44   O65   S    
Cr3   O29   S    
C24   C32   S    
Cr6   O16   S    
C48   C57   A    
C13   C65   A    
Cr10  O11   S    
C101  O39   A    
C13   H13   S    
C15   C19   A    
C7    H34   S    
C42   O64   S    
C62   C67   A    
C38   C86   S    
Cr3   O3    S    
Cr2   O32   S    
C16   C20   A    
C48   C95   S    
C36   C84   S    
C91   O42   A    
C14   C36   A    
Cr7   O13   S    
C34   H25   S    
Cr1   O1    S    
C21   O19   A    
Cr5   O12   S    
C15   H15   S    
C20   C25   A    
Cr2   O6    S    
C76   C98   A    
Cr6   O11   S    
Cr5   O15   S    
C4    C103  A    
C74   O52   S    
Cr12  O27   S    
C23   C43   S    
C56   C57   A    
C32   O20   A    
C92   O43   A    
C93   O45   A    
C17   C39   A    
C100  O38   A    
C18   H18   S    
C58   H45   S    
H28   O50   S    
C15   C37   A    
C43   O17   A    
Cr11  O75   S    
Cr9   O19   S    
C85   O32   A    
C63   C68   A    
Cr10  O20   S    
C61   C66   A    
C5    H12   S    
C96   O4    A    
C79   C83   A    
C46   C55   A    
C70   C74   A    
C73   C78   A    
C69   C73   A    
C9    C55   S    
Cr4   O30   S    
Cr1   O40   S    
C51   O25   A    
Cr12  O9    S    
Cr3   O33   S    
C96   O75   A    
C52   O30   A    
H27   O49   S    
C44   C47   A    
C94   O56   A    
C84   O1    A    
Cr4   O8    S    
H42   O64   S    
C1    O18   A    
C53   C55   A    
C45   C53   A    
C30   O61   S    
H40   O62   S    
C76   O55   S    
Cr3   O7    S    
H39   O61   S    
C42   C44   A    
C39   C88   S    
C78   H7    S    
C86   O33   A    
C21   O15   A    
C89   O40   A    
Cr2   O2    S    
C33   H24   S    
C25   C29   A    
Cr6   O23   S    
C32   O16   A    
C27   C31   A    
C18   C23   A    
C11   O73   D    
C59   C81   A    
C65   O54   S    
C45   C94   S    
C10   O72   S    
Cr4   O35   S    
C99   O6    A    
C40   O62   S    
C61   C83   A    
H38   O60   S    
Cr4   O13   S    
C73   O51   S    
Cr9   O10   S    
C95   O67   A    
C41   O63   S    
C1    O14   A    
C3    C87   A    
C29   C34   A    
H35   O57   S    
C3    C105  A    
C68   C72   A    
Cr11  O21   S    
C35   H26   S    
Cr1   O36   S    
C35   C39   A    
Cr12  O5    S    
Cr11  O13   S    
C54   O53   S    
H44   O68   S    
C72   C77   A    
C93   O76   A    
H36   O58   S    
C86   O23   A    
C78   C82   A    
C27   O58   S    
C97   O5    A    
Cr5   O10   S    
H41   O63   S    
C77   C81   A    
C68   C91   S    
C47   C96   S    
C72   O50   S    
Cr8   O9    S    
Cr3   O11   S    
C98   H9    S    
Cr7   O43   S    
Cr9   O46   S    
C42   C48   A    
C64   C69   A    
C54   C106  A    
C28   O59   S    
Cr2   O10   S    
C6    C7    A    
C8    O68   S    
C60   C82   A    
C94   O2    A    
C89   O44   A    
H32   O54   S    
C30   C35   A    
C84   O31   A    
C40   C41   A    
Cr4   O4    S    
C28   C33   A    
C26   C30   A    
C85   O12   A    
C23   C27   A    
C74   C79   A    
C22   C26   A    
C1    C26   S    
H46   O70   S    
C66   H4    S    
C70   C89   S    
C52   O26   A    
C40   C46   A    
C88   O35   A    
C59   H49   S    
C69   C90   S    
C16   H16   S    
C76   C108  A    
C104  C108  A    
C63   H2    S    
C10   C56   S    
H37   O59   S    
C33   C37   A    
C49   O27   A    
C37   C85   S    
C21   C25   S    
C5    C102  A    
C52   C104  S    
C50   O28   A    
C83   C101  S    
H31   O53   S    
C34   C38   A    
C11   O74   S    
C82   C100  S    
C14   C18   A    
H33   O55   S    
C10   O71   D    
C24   C28   A    
C29   O60   S    
C88   O34   A    
C4    C5    A    
H29   O51   S    
H43   O65   S    
C8    C53   S    
C49   C103  S    
C17   H17   S    
C62   H52   S    
C50   C102  S    
C49   O22   A    
C8    O66   D    
C3    C108  A    
C64   H3    S    
C14   H14   S    
C43   O21   A    
C66   C70   A    
C61   H51   S    
C59   C63   A    
C17   C22   A    
Cr2   O28   S    
Cr7   O39   S    
C81   C99   S    
C60   C64   A    
C60   H50   S    
C58   C80   A    
Cr6   O38   S    
C31   H22   S    
C19   C24   A    
Cr8   O45   S    
Cr8   O22   S    
Cr9   O24   S    
C87   O57   S    
C95   O3    A    
C71   C75   A    
C100  O7    A    
C20   H20   S    
Cr11  O48   S    
C46   C93   S    
Cr8   O18   S    
C7    C104  A    
C22   H21   S    
Cr1   O9    S    
C67   C92   S    
C2    H10   S    
C6    C105  A    
C4    H1    S    
C102  C106  A    
C67   C71   A    
C97   O36   A    
C91   O47   A    
C9    O70   S    
C51   C105  S    
C90   O46   A    
Cr5   O37   S    
Cr7   O17   S    
C2    C87   A    
C75   C80   A    
C12   C13   A    
C2    C98   A    
C19   H19   S    
H47   O72   S    
C106  C107  A    
Cr7   O34   S    
C50   O24   A    
Cr10  O47   S    
C101  O8    A    
Cr12  O31   S    
C41   C45   A    
C31   C36   A    
C103  C107  A    
Cr12  O76   S    
C75   H5    S    
C6    H23   S    
C11   C57   S    
Cr10  O25   S    
C65   C107  A    
C90   O41   A    
C12   C54   A    
C77   H6    S    
C51   O29   A    
C16   C38   A    
C47   C56   A    
H30   O52   S    
C99   O37   A    
