data_mof_unit_37278.cif
_audit_creation_date              2012-12-11T14:54:43-0500
_audit_creation_method            fapswitch 2.2
_symmetry_space_group_name_H-M    P1
_symmetry_Int_Tables_number       1
_space_group_crystal_system       triclinic
_cell_length_a                    18.981221
_cell_length_b                    10.894728
_cell_length_c                    18.841985
_cell_angle_alpha                 90.226686
_cell_angle_beta                  90.02838
_cell_angle_gamma                 90.189493
_cell_volume                      3896.38049933

loop_
_atom_site_label
_atom_site_type_symbol
_atom_type_description
_atom_site_fract_x
_atom_site_fract_y
_atom_site_fract_z
_atom_type_partial_charge
C1    C     C_R   0.728300 0.373265 0.644184 0.531189
C2    C     C_R   0.270515 0.374564 0.354854 0.542527
C3    C     C_R   0.228299 0.873264 0.644183 0.531188
C4    C     C_R   0.770514 0.874566 0.354853 0.542530
C5    C     C_3   0.451513 0.358640 0.474309 -0.101986
C6    C     C_3   0.471607 0.350498 0.552808 -0.059434
C7    C     C_3   0.951498 0.858628 0.474314 -0.101981
C8    C     C_3   0.971591 0.850481 0.552814 -0.059421
C9    C     C_R   0.728269 0.826831 0.545397 -0.109402
C10   C     C_R   0.308729 0.883814 0.462993 -0.134669
C11   C     C_R   0.228284 0.326818 0.545401 -0.109354
C12   C     C_R   0.808729 0.383810 0.462993 -0.134677
C13   C     C_R   0.730723 0.808164 0.472495 -0.123159
C14   C     C_R   0.303708 0.872991 0.536317 -0.151765
C15   C     C_R   0.230739 0.308151 0.472499 -0.123142
C16   C     C_R   0.803708 0.372987 0.536317 -0.151771
C17   C     C_R   0.753350 0.903416 0.427422 0.016471
C18   C     C_R   0.239854 0.899793 0.569760 0.012918
C19   C     C_R   0.253354 0.403410 0.427424 0.016486
C20   C     C_R   0.739856 0.399797 0.569761 0.012927
C21   C     C_R   0.771858 0.017570 0.454896 -0.100459
C22   C     C_R   0.180818 0.933373 0.529192 -0.133469
C23   C     C_R   0.271851 0.517570 0.454897 -0.100429
C24   C     C_R   0.680821 0.433388 0.529194 -0.133469
C25   C     C_R   0.769130 0.036131 0.527200 -0.085612
C26   C     C_R   0.185159 0.940264 0.456697 -0.141240
C27   C     C_R   0.269122 0.536132 0.527200 -0.085574
C28   C     C_R   0.685160 0.440277 0.456699 -0.141242
C29   C     C_R   0.748082 0.940843 0.572636 0.054220
C30   C     C_R   0.249646 0.920740 0.423294 0.013107
C31   C     C_R   0.248084 0.440839 0.572638 0.054300
C32   C     C_R   0.749646 0.420743 0.423294 0.013114
C33   C     C_R   0.540583 0.065539 0.973391 -0.094362
C34   C     C_R   0.530985 0.070271 0.045727 -0.088618
C35   C     C_R   0.040586 0.565541 0.973391 -0.094357
C36   C     C_R   0.030987 0.570274 0.045728 -0.088615
C37   C     C_R   0.497564 0.170848 0.076183 0.014523
C38   C     C_R   0.518719 0.163285 0.930355 0.010044
C39   C     C_R   0.997563 0.670848 0.076183 0.014524
C40   C     C_R   0.018719 0.663285 0.930355 0.010046
C41   C     C_R   0.479735 0.272910 0.034196 -0.137260
C42   C     C_R   0.490841 0.269390 0.961207 -0.145887
C43   C     C_R   0.979732 0.772908 0.034195 -0.137260
C44   C     C_R   0.990839 0.769388 0.961206 -0.145887
C45   C     C_R   0.565086 0.149572 0.638817 0.550304
C46   C     C_R   0.469681 0.155890 0.352620 0.568296
C47   C     C_R   0.065087 0.649571 0.638817 0.550331
C48   C     C_R   0.969681 0.655891 0.352621 0.568304
C49   C     C_R   0.794591 0.004832 0.970133 -0.142302
C50   C     C_R   0.186550 0.936302 0.041723 -0.160805
C51   C     C_R   0.294592 0.504830 0.970133 -0.142301
C52   C     C_R   0.686550 0.436302 0.041722 -0.160806
C53   C     C_R   0.793450 0.997665 0.042487 -0.165352
C54   C     C_R   0.182999 0.934399 0.969204 -0.141474
C55   C     C_R   0.293451 0.497664 0.042487 -0.165352
C56   C     C_R   0.682999 0.434399 0.969204 -0.141473
C57   C     C_R   0.748220 0.915806 0.076174 0.011496
C58   C     C_R   0.242416 0.905323 0.928129 -0.035516
C59   C     C_R   0.248220 0.415806 0.076173 0.011495
C60   C     C_R   0.742416 0.405324 0.928129 -0.035515
C61   C     C_R   0.697626 0.847384 0.035741 -0.007951
C62   C     C_R   0.306777 0.874301 0.961283 -0.013842
C63   C     C_R   0.197626 0.347384 0.035741 -0.007953
C64   C     C_R   0.806778 0.374301 0.961283 -0.013844
C65   C     C_R   0.701286 0.850728 0.960782 -0.049946
C66   C     C_R   0.309262 0.870144 0.036291 -0.002476
C67   C     C_R   0.201286 0.350728 0.960781 -0.049946
C68   C     C_R   0.809262 0.370145 0.036291 -0.002474
C69   C     C_R   0.749043 0.933148 0.928498 -0.022604
C70   C     C_R   0.250044 0.913111 0.075744 -0.034357
C71   C     C_R   0.249044 0.433147 0.928498 -0.022604
C72   C     C_R   0.750045 0.413112 0.075744 -0.034357
C73   C     C_R   0.741289 0.970482 0.646908 0.560631
C74   C     C_R   0.258646 0.968490 0.352309 0.531960
C75   C     C_R   0.241290 0.470480 0.646909 0.560637
C76   C     C_R   0.758646 0.468490 0.352309 0.531961
C77   C     C_R   0.728941 0.376993 0.853568 0.521606
C78   C     C_R   0.269267 0.378700 0.147628 0.558880
C79   C     C_R   0.228941 0.876993 0.853568 0.521606
C80   C     C_R   0.769267 0.878700 0.147628 0.558879
C81   C     C_R   0.535448 0.156651 0.855375 0.555973
C82   C     C_R   0.468020 0.157973 0.146755 0.553600
C83   C     C_R   0.035448 0.656651 0.855375 0.555977
C84   C     C_R   0.968020 0.657973 0.146755 0.553605
C85   C     C_R   0.741247 0.971189 0.854758 0.538444
C86   C     C_R   0.258605 0.967570 0.146380 0.524519
C87   C     C_R   0.241247 0.471189 0.854758 0.538437
C88   C     C_R   0.758605 0.467570 0.146380 0.524519
C89   C     C_R   0.513492 0.166481 0.416325 0.004289
C90   C     C_R   0.552294 0.153299 0.561376 -0.037295
C91   C     C_R   0.013491 0.666484 0.416326 0.004290
C92   C     C_R   0.052293 0.653298 0.561376 -0.037289
C93   C     C_R   0.509799 0.269551 0.460273 -0.123979
C94   C     C_R   0.528433 0.262551 0.530936 -0.087246
C95   C     C_R   0.009789 0.769550 0.460277 -0.123974
C96   C     C_R   0.028422 0.762546 0.530939 -0.087249
C97   C     C_R   0.566916 0.052764 0.513873 0.205201
C98   C     C_R   0.551240 0.063874 0.440609 0.287021
C99   C     C_R   0.066929 0.552775 0.513870 0.205204
C100  C     C_R   0.051249 0.563886 0.440606 0.287016
Cr1   Cr    Cr6+3 0.771950 0.169480 0.750100 1.067763
Cr2   Cr    Cr6+3 0.228050 0.169480 0.249900 1.076554
Cr3   Cr    Cr6+3 0.271950 0.669480 0.750100 1.067778
Cr4   Cr    Cr6+3 0.728050 0.669480 0.249900 1.076552
Cr5   Cr    Cr6+3 0.614930 0.323340 0.749170 1.060053
Cr6   Cr    Cr6+3 0.385070 0.323340 0.250830 1.022097
Cr7   Cr    Cr6+3 0.114930 0.823340 0.749170 1.060045
Cr8   Cr    Cr6+3 0.885070 0.823340 0.250830 1.022082
Cr9   Cr    Cr6+3 0.616590 0.010620 0.750610 1.047907
Cr10  Cr    Cr6+3 0.383410 0.010620 0.249390 1.077968
Cr11  Cr    Cr6+3 0.116590 0.510620 0.750610 1.047895
Cr12  Cr    Cr6+3 0.883410 0.510620 0.249390 1.077962
H1    H     H_    0.830769 0.070201 0.946989 0.201683
H2    H     H_    0.140017 0.962975 0.071225 0.145597
H3    H     H_    0.330770 0.570199 0.946989 0.201689
H4    H     H_    0.640017 0.462976 0.071225 0.145597
H5    H     H_    0.831462 0.051927 0.071992 0.141116
H6    H     H_    0.132193 0.953530 0.945528 0.176101
H7    H     H_    0.331462 0.551925 0.071991 0.141119
H8    H     H_    0.632193 0.453530 0.945528 0.176102
H9    H     H_    0.898600 0.821274 0.460527 0.127558
H10   H     H_    0.993658 0.936499 0.576086 0.181566
H11   H     H_    0.398612 0.321293 0.460524 0.127570
H12   H     H_    0.493679 0.436515 0.576076 0.181545
H13   H     H_    0.711110 0.753579 0.580120 0.129362
H14   H     H_    0.359415 0.869173 0.438021 0.175356
H15   H     H_    0.211134 0.253563 0.580124 0.129335
H16   H     H_    0.859413 0.369162 0.438020 0.175338
H17   H     H_    0.717922 0.718028 0.451644 0.144511
H18   H     H_    0.349172 0.843998 0.566629 0.156843
H19   H     H_    0.217947 0.218010 0.451648 0.144497
H20   H     H_    0.849171 0.343988 0.566628 0.156828
H21   H     H_    0.790235 0.090742 0.420701 0.151353
H22   H     H_    0.130148 0.952345 0.553099 0.150533
H23   H     H_    0.290219 0.590746 0.420700 0.151348
H24   H     H_    0.630152 0.452368 0.553102 0.150526
H25   H     H_    0.783112 0.125636 0.547841 0.148365
H26   H     H_    0.138892 0.968448 0.427314 0.138008
H27   H     H_    0.283094 0.625643 0.547840 0.148341
H28   H     H_    0.638895 0.468466 0.427317 0.137996
H29   H     H_    0.565584 0.984991 0.951248 0.197919
H30   H     H_    0.545946 0.992359 0.077451 0.217492
H31   H     H_    0.065588 0.484996 0.951248 0.197915
H32   H     H_    0.045950 0.492363 0.077452 0.217488
H33   H     H_    0.453596 0.352071 0.056929 0.151721
H34   H     H_    0.476157 0.347304 0.928931 0.147852
H35   H     H_    0.953591 0.852067 0.056928 0.151721
H36   H     H_    0.976153 0.847301 0.928930 0.147851
O1    O     O_R   0.787510 0.042610 0.670410 -0.475307
O2    O     O_R   0.212490 0.042610 0.329590 -0.524379
O3    O     O_R   0.287510 0.542610 0.670410 -0.475313
O4    O     O_R   0.712490 0.542610 0.329590 -0.524382
O5    O     O_R   0.556450 0.252890 0.823790 -0.486494
O6    O     O_R   0.443550 0.252890 0.176210 -0.513636
O7    O     O_R   0.056450 0.752890 0.823790 -0.486494
O8    O     O_R   0.943550 0.752890 0.176210 -0.513636
O9    O     O_R   0.545750 0.051070 0.830560 -0.500052
O10   O     O_R   0.454250 0.051070 0.169440 -0.471597
O11   O     O_R   0.045750 0.551070 0.830560 -0.500050
O12   O     O_R   0.954250 0.551070 0.169440 -0.471590
O13   O     O_R   0.681210 0.959150 0.825320 -0.502644
O14   O     O_R   0.318790 0.959150 0.174680 -0.511027
O15   O     O_R   0.181210 0.459150 0.825320 -0.502650
O16   O     O_R   0.818790 0.459150 0.174680 -0.511025
O17   O     O_3   0.667820 0.167810 0.749960 -0.288905
O18   O     O_3   0.332180 0.167810 0.250040 -0.268222
O19   O     O_3   0.167820 0.667810 0.749960 -0.288903
O20   O     O_3   0.832180 0.667810 0.250040 -0.268217
O21   O     O_R   0.765670 0.292090 0.675090 -0.510339
O22   O     O_R   0.234330 0.292090 0.324910 -0.492048
O23   O     O_R   0.265670 0.792090 0.675090 -0.510334
O24   O     O_R   0.734330 0.792090 0.324910 -0.492049
O25   O     O_R   0.670220 0.409020 0.668560 -0.530018
O26   O     O_R   0.329780 0.409020 0.331440 -0.517203
O27   O     O_R   0.170220 0.909020 0.668560 -0.530022
O28   O     O_R   0.829780 0.909020 0.331440 -0.517222
O29   O     O_R   0.556580 0.251590 0.674980 -0.465037
O30   O     O_R   0.443420 0.251590 0.325020 -0.527442
O31   O     O_R   0.056580 0.751590 0.674980 -0.465043
O32   O     O_R   0.943420 0.751590 0.325020 -0.527447
O33   O     O_R   0.545890 0.049670 0.670030 -0.515918
O34   O     O_R   0.454110 0.049670 0.329970 -0.447955
O35   O     O_R   0.045890 0.549670 0.670030 -0.515964
O36   O     O_R   0.954110 0.549670 0.329970 -0.447965
O37   O     O_R   0.681340 0.957860 0.676500 -0.545243
O38   O     O_R   0.318660 0.957860 0.323500 -0.510448
O39   O     O_R   0.181340 0.457860 0.676500 -0.545204
O40   O     O_R   0.818660 0.457860 0.323500 -0.510452
O41   O     O_R   0.787380 0.044010 0.830940 -0.492613
O42   O     O_R   0.212620 0.044010 0.169060 -0.510575
O43   O     O_R   0.287380 0.544010 0.830940 -0.492610
O44   O     O_R   0.712620 0.544010 0.169060 -0.510574
O45   O     O_R   0.765540 0.293390 0.823910 -0.499293
O46   O     O_R   0.234460 0.293390 0.176090 -0.454573
O47   O     O_R   0.265540 0.793390 0.823910 -0.499287
O48   O     O_R   0.734460 0.793390 0.176090 -0.454573
O49   O     O_R   0.670090 0.410410 0.829090 -0.513101
O50   O     O_R   0.329910 0.410410 0.170910 -0.532097
O51   O     O_R   0.170090 0.910410 0.829090 -0.513105
O52   O     O_R   0.829910 0.910410 0.170910 -0.532099
O53   O     O_3   0.589967 0.938851 0.535297 -0.720828
H37   H     H_    0.595214 0.934502 0.586676 0.367515
O54   O     O_3   0.566312 0.970815 0.392703 -0.656635
H38   H     H_    0.597954 0.909716 0.414530 0.374460
O55   O     O_3   0.090010 0.438878 0.535288 -0.720878
H39   H     H_    0.095182 0.434477 0.586675 0.367525
O56   O     O_3   0.066329 0.470836 0.392696 -0.656651
H40   H     H_    0.097968 0.409733 0.414523 0.374470
C101  C     C_2   0.642865 0.769707 0.070172 0.311240
H41   H     H_    0.630537 0.679553 0.049254 0.144492
O57   O     O_2   0.609543 0.807367 0.121154 -0.486731
C102  C     C_2   0.370131 0.850373 0.916725 0.302807
H42   H     H_    0.380419 0.908155 0.871058 0.107867
O58   O     O_2   0.408816 0.763281 0.927829 -0.449171
C103  C     C_2   0.142865 0.269706 0.070172 0.311241
H43   H     H_    0.130537 0.179552 0.049254 0.144491
O59   O     O_2   0.109543 0.307366 0.121154 -0.486730
C104  C     C_2   0.870131 0.350372 0.916725 0.302798
H44   H     H_    0.880417 0.408147 0.871055 0.107873
O60   O     O_2   0.908820 0.263287 0.927832 -0.449171
C105  C     C_2   0.657633 0.767671 0.915327 0.211296
H45   H     H_    0.680007 0.729981 0.866949 0.124904
O61   O     O_2   0.596172 0.744944 0.929296 -0.488088
C106  C     C_2   0.371782 0.819991 0.073903 0.307763
H46   H     H_    0.364106 0.761666 0.119837 0.094622
O62   O     O_2   0.431674 0.847478 0.056622 -0.441741
C107  C     C_2   0.157632 0.267671 0.915327 0.211296
H47   H     H_    0.180006 0.229981 0.866949 0.124900
O63   O     O_2   0.096172 0.244946 0.929296 -0.488086
C108  C     C_2   0.871782 0.319993 0.073903 0.307771
H48   H     H_    0.864106 0.261663 0.119835 0.094616
O64   O     O_2   0.931674 0.347487 0.056625 -0.441735
C109  C     C_2   0.466421 0.481991 0.442035 0.247062
H49   H     H_    0.499158 0.489219 0.394997 0.124081
O65   O     O_2   0.439950 0.574481 0.467041 -0.510792
C110  C     C_2   0.414949 0.291783 0.597224 0.250735
H50   H     H_    0.388527 0.208864 0.579003 0.098229
O66   O     O_2   0.398671 0.336650 0.654303 -0.476970
C111  C     C_2   0.966402 0.981983 0.442043 0.247047
H51   H     H_    0.999117 0.989212 0.394990 0.124101
O67   O     O_2   0.939952 0.074475 0.467068 -0.510825
C112  C     C_2   0.914935 0.791750 0.597226 0.250728
H52   H     H_    0.888518 0.708831 0.579001 0.098232
O68   O     O_2   0.898655 0.836606 0.654307 -0.476972

loop_
_geom_bond_atom_site_label_1
_geom_bond_atom_site_label_2
_ccdc_geom_bond_type
Cr2   O22   S    
C87   O15   A    
O54   H38   S    
C58   C62   A    
C93   C94   A    
Cr10  O18   S    
C55   C59   A    
Cr6   O26   S    
C34   C37   A    
C85   O13   A    
C41   C42   A    
C14   C18   A    
C49   H1    S    
C95   C96   A    
C8    C96   S    
C6    H12   S    
C103  H43   S    
Cr9   O9    S    
C106  H46   S    
C3    O23   A    
C65   C105  S    
C97   C98   A    
C84   O12   A    
C79   O47   A    
C7    C8    S    
Cr12  O36   S    
C46   C89   S    
C55   H7    S    
O55   H39   S    
Cr3   O19   S    
C1    O25   A    
C50   C54   A    
C51   C71   A    
C22   H22   S    
C37   C41   A    
C64   C68   A    
C29   C73   S    
C39   C84   S    
C38   C42   A    
C53   H5    S    
Cr1   O41   S    
C103  O59   D    
C78   O46   A    
C5    C6    S    
C30   C74   S    
C49   C53   A    
C67   C107  S    
C83   O7    A    
C76   O4    A    
C85   O41   A    
Cr12  O20   S    
Cr8   O28   S    
C92   C96   A    
C81   O5    A    
C110  H50   S    
Cr8   O32   S    
C3    C18   S    
C47   C92   S    
Cr1   O1    S    
C46   O30   A    
C9    C13   A    
Cr2   O42   S    
C15   C19   A    
C11   C15   A    
C6    C110  S    
Cr10  O38   S    
C111  H51   S    
C68   C108  S    
Cr6   O6    S    
C48   C91   S    
C28   H28   S    
C47   O31   A    
C99   O55   S    
Cr1   O21   S    
C86   O14   A    
C23   C27   A    
C91   C100  A    
Cr12  O12   S    
C109  H49   S    
C90   C97   A    
C51   C55   A    
C76   O40   A    
C9    C29   A    
Cr6   O30   S    
Cr6   O50   S    
Cr7   O31   S    
C24   H24   S    
Cr5   O49   S    
Cr8   O20   S    
C11   C31   A    
Cr2   O18   S    
C49   C69   A    
Cr7   O7    S    
C12   C32   A    
Cr3   O23   S    
C41   H33   S    
C56   H8    S    
C57   C80   S    
C40   C83   S    
Cr3   O47   S    
C7    H9    S    
C80   O48   A    
Cr2   O46   S    
C59   C78   S    
C21   H21   S    
C73   O37   A    
C72   C88   S    
C100  O56   S    
Cr1   O45   S    
C90   C94   A    
Cr7   O19   S    
C52   H4    S    
C25   C29   A    
Cr12  O16   S    
C63   C67   A    
C60   C77   S    
C86   O42   A    
C79   O51   A    
C62   C66   A    
C45   O33   A    
O56   H40   S    
C12   C16   A    
C98   O54   S    
C28   C32   A    
C81   O9    A    
C101  H41   S    
C10   C14   A    
C97   O53   S    
C112  O68   D    
C48   O36   A    
C53   C57   A    
C19   C23   A    
C39   C43   A    
C6    C94   S    
Cr5   O5    S    
C88   O16   A    
C89   C98   A    
C27   C31   A    
C17   C21   A    
C25   H25   S    
C56   C60   A    
C106  O62   D    
C68   C72   A    
C50   H2    S    
C35   C36   A    
Cr8   O52   S    
C11   H15   S    
C43   C44   A    
Cr12  O40   S    
C105  H45   S    
C52   C72   A    
Cr4   O20   S    
C10   C30   A    
C31   C75   S    
C107  H47   S    
Cr8   O8    S    
C8    C112  S    
C16   C20   A    
C77   O45   A    
Cr11  O35   S    
C33   C34   A    
Cr4   O48   S    
C83   O11   A    
C23   H23   S    
C111  O67   D    
C82   O10   A    
C61   C101  S    
C102  H42   S    
C108  O64   D    
C45   C90   S    
C109  O65   D    
Cr9   O17   S    
C58   C79   S    
Cr2   O2    S    
C70   C86   S    
C71   C87   S    
C4    C17   S    
C47   O35   A    
C107  O63   D    
C2    O22   A    
C26   C30   A    
C54   H6    S    
C38   C81   S    
C22   C26   A    
C54   C58   A    
C37   C82   S    
Cr3   O43   S    
Cr5   O17   S    
C42   H34   S    
Cr6   O18   S    
C48   O32   A    
C69   C85   S    
Cr9   O33   S    
C66   C106  S    
C87   O43   A    
C14   H18   S    
C3    O27   A    
C64   C104  S    
C88   O44   A    
C21   C25   A    
C34   H30   S    
C1    C20   S    
C13   H17   S    
C4    O24   A    
C80   O52   A    
C73   O1    A    
C2    C19   S    
C18   C22   A    
C59   C63   A    
C36   C39   A    
C75   O39   A    
C24   C28   A    
Cr5   O29   S    
C26   H26   S    
Cr10  O10   S    
C32   C76   S    
C5    C93   S    
C33   H29   S    
C27   H27   S    
C57   C61   A    
C12   H16   S    
Cr3   O3    S    
C5    C109  S    
C7    C95   S    
C5    H11   S    
Cr11  O39   S    
C33   C38   A    
O53   H37   S    
Cr4   O24   S    
C104  O60   D    
C60   C64   A    
Cr9   O37   S    
Cr10  O14   S    
Cr4   O4    S    
C35   C40   A    
C36   H32   S    
C105  O61   D    
Cr11  O15   S    
Cr9   O13   S    
C99   C100  A    
Cr1   O17   S    
Cr7   O51   S    
C45   O29   A    
C84   O8    A    
C46   O34   A    
C104  H44   S    
C50   C70   A    
Cr7   O27   S    
C7    C111  S    
C65   C69   A    
C112  H52   S    
C1    O21   A    
C101  O57   D    
C110  O66   D    
C67   C71   A    
C8    H10   S    
C89   C93   A    
C108  H48   S    
C16   H20   S    
C51   H3    S    
C43   H35   S    
C102  O58   D    
Cr11  O19   S    
C91   C95   A    
C13   C17   A    
C82   O6    A    
C9    H13   S    
C61   C65   A    
C40   C44   A    
C15   H19   S    
C66   C70   A    
Cr10  O34   S    
C4    O28   A    
C75   O3    A    
C62   C102  S    
C74   O2    A    
Cr5   O25   S    
C78   O50   A    
C63   C103  S    
C44   H36   S    
C10   H14   S    
C77   O49   A    
C20   C24   A    
C2    O26   A    
C52   C56   A    
C92   C99   A    
C35   H31   S    
C74   O38   A    
Cr11  O11   S    
Cr4   O44   S    
