data_mof_unit_21996.cif
_audit_creation_date              2012-12-10T17:54:17-0500
_audit_creation_method            fapswitch 2.2
_symmetry_space_group_name_H-M    P1
_symmetry_Int_Tables_number       1
_space_group_crystal_system       triclinic
_cell_length_a                    27.705073
_cell_length_b                    10.71598
_cell_length_c                    9.874023
_cell_angle_alpha                 88.926217
_cell_angle_beta                  89.873657
_cell_angle_gamma                 91.820545
_cell_volume                      2929.46340445

loop_
_atom_site_label
_atom_site_type_symbol
_atom_type_description
_atom_site_fract_x
_atom_site_fract_y
_atom_site_fract_z
_atom_type_partial_charge
C1    C     C_R   0.504371 0.260291 0.502093 0.897296
C2    C     C_R   0.972255 0.371373 0.536415 0.062879
C3    C     C_R   0.976309 0.597584 0.481979 0.000970
C4    C     C_R   0.405916 0.499034 0.500269 0.877360
C5    C     C_R   0.949017 0.485466 0.509507 0.031762
C6    C     C_R   0.943654 0.260653 0.553690 -0.221068
C7    C     C_R   0.893647 0.262865 0.549408 -0.137402
C8    C     C_R   0.870479 0.375507 0.528920 -0.009793
C9    C     C_R   0.898051 0.487295 0.510171 -0.056385
C10   C     C_R   0.874542 0.600755 0.491733 -0.053849
C11   C     C_R   0.824053 0.600216 0.490221 0.520697
C12   C     C_R   0.278850 0.462665 0.372902 -0.100208
C13   C     C_R   0.820070 0.379231 0.526242 0.503028
C14   C     C_R   0.722104 0.539905 0.615274 -0.098229
C15   C     C_R   0.672026 0.542405 0.613590 -0.211270
C16   C     C_R   0.495799 0.739252 0.499238 0.910663
C17   C     C_R   0.671342 0.449639 0.390850 -0.215884
C18   C     C_R   0.721451 0.447005 0.392873 -0.099900
C19   C     C_R   0.746777 0.492348 0.504938 0.314931
C20   C     C_R   0.023225 0.371430 0.543451 0.048393
C21   C     C_R   0.050131 0.478932 0.498352 0.066846
C22   C     C_R   0.026612 0.589347 0.458978 0.039394
C23   C     C_R   0.252241 0.476150 0.491338 0.289158
C24   C     C_R   0.048353 0.267401 0.593090 -0.220271
C25   C     C_R   0.103878 0.680939 0.383001 -0.152570
C26   C     C_R   0.952006 0.713064 0.479929 0.189278
C27   C     C_R   0.901624 0.712487 0.479787 -0.206059
C28   C     C_R   0.593891 0.499821 0.500023 0.880700
C29   C     C_R   0.053993 0.685533 0.392428 -0.179644
C30   C     C_R   0.506164 0.106457 0.762095 -0.189851
C31   C     C_R   0.487071 0.043172 0.875675 -0.293432
C32   C     C_R   0.460991 0.930323 0.860635 0.502379
C33   C     C_R   0.458873 0.876765 0.732987 -0.132285
C34   C     C_R   0.101039 0.475870 0.491593 -0.054882
C35   C     C_R   0.482715 0.934857 0.620086 -0.010047
C36   C     C_R   0.499670 0.058126 0.630360 0.022291
C37   C     C_R   0.509637 0.126528 0.507980 -0.156089
C38   C     C_R   0.516678 0.064655 0.385386 0.441602
C39   C     C_R   0.508717 0.937054 0.383057 -0.316985
C40   C     C_R   0.175653 0.371654 0.537527 0.510880
C41   C     C_R   0.492272 0.872373 0.498823 -0.142100
C42   C     C_R   0.436229 0.336703 0.143569 -0.173273
C43   C     C_R   0.404505 0.257249 0.074922 -0.240477
C44   C     C_R   0.403963 0.257644 0.934059 0.239072
C45   C     C_R   0.125151 0.370462 0.540352 -0.023112
C46   C     C_R   0.436412 0.337032 0.862783 -0.163734
C47   C     C_R   0.468743 0.419208 0.929384 0.121342
C48   C     C_R   0.468684 0.419257 0.074028 0.135901
C49   C     C_R   0.529556 0.578969 0.069761 0.264192
C50   C     C_R   0.529106 0.579180 0.925890 -0.141308
C51   C     C_R   0.178236 0.575105 0.434233 0.516727
C52   C     C_R   0.275447 0.497423 0.614482 -0.236948
C53   C     C_R   0.325967 0.506458 0.620497 0.415242
C54   C     C_R   0.328863 0.470776 0.377108 -0.302639
C55   C     C_3   0.995893 0.855561 0.624978 -0.769879
C56   C     C_R   0.098480 0.267449 0.592235 -0.136173
C57   C     C_3   0.611234 0.646076 0.121240 -0.757382
C58   C     C_3   0.321441 0.194291 0.881464 -0.694061
C59   C     C_R   0.127859 0.578383 0.436167 -0.027373
C60   C     C_R   0.352924 0.492841 0.500082 -0.080937
C61   C     C_R   0.646430 0.497913 0.500953 -0.038090
H1    H     H_    0.348656 0.459455 0.283665 0.189807
H2    H     H_    0.260668 0.446530 0.277540 0.150080
H3    H     H_    0.438718 0.789187 0.723396 0.193091
H4    H     H_    0.516499 0.888150 0.290963 0.161684
H5    H     H_    0.434023 0.330553 0.250985 0.211947
H6    H     H_    0.380615 0.194084 0.132282 0.167411
H7    H     H_    0.435294 0.331841 0.755504 0.204080
H8    H     H_    0.552493 0.643948 0.869148 0.151895
H9    H     H_    0.116236 0.186007 0.632106 0.189599
H10   H     H_    0.653375 0.579874 0.699623 0.155793
H11   H     H_    0.741816 0.574688 0.702071 0.140440
H12   H     H_    0.253917 0.508660 0.704911 0.136508
H13   H     H_    0.873200 0.175554 0.562299 0.191074
H14   H     H_    0.959004 0.169922 0.566113 0.142103
H15   H     H_    0.030184 0.185976 0.637321 0.139289
H16   H     H_    0.959402 0.905217 0.450262 0.222182
H17   H     H_    0.017254 0.944999 0.622404 0.230499
H18   H     H_    0.019935 0.780404 0.659576 0.260334
H19   H     H_    0.965621 0.863231 0.698095 0.240770
H20   H     H_    0.536245 0.071383 0.194815 0.318306
H21   H     H_    0.444204 0.917810 0.051446 0.329276
H22   H     H_    0.551491 0.756325 0.119075 0.208818
H23   H     H_    0.123547 0.758240 0.333852 0.193245
H24   H     H_    0.631883 0.702818 0.195594 0.252849
H25   H     H_    0.622962 0.675400 0.017438 0.213190
H26   H     H_    0.619481 0.546357 0.138298 0.247688
H27   H     H_    0.381564 0.161200 0.763424 0.222622
H28   H     H_    0.300098 0.123022 0.824948 0.252922
H29   H     H_    0.312385 0.288378 0.841828 0.243599
H30   H     H_    0.311133 0.185517 0.990011 0.235752
H31   H     H_    0.324889 0.536656 0.814599 0.333067
H32   H     H_    0.652109 0.411946 0.304757 0.162698
H33   H     H_    0.883710 0.800915 0.474958 0.190048
H34   H     H_    0.740659 0.409719 0.307795 0.142732
H35   H     H_    0.037362 0.763458 0.342397 0.178738
H36   H     H_    0.527546 0.190350 0.780585 0.194200
H37   H     H_    0.491728 0.083735 0.974555 0.152943
N1    N     N_R   0.200868 0.473491 0.486160 -0.347372
N2    N     N_R   0.798143 0.490441 0.506700 -0.358461
N3    N     N_R   0.499540 0.498800 0.142780 -0.126523
N4    N     N_R   0.499520 0.498720 0.857170 -0.127335
N5    N     N_2   0.977275 0.830376 0.491128 -0.323825
N6    N     N_2   0.560157 0.664940 0.138899 -0.260252
N7    N     N_2   0.372416 0.173934 0.863481 -0.295336
O1    O     O_R   0.500000 0.316780 0.614690 -0.676535
O2    O     O_R   0.571250 0.499990 0.614680 -0.627599
O3    O     O_R   0.571240 0.499970 0.385350 -0.588906
O4    O     O_2   0.199472 0.272313 0.585723 -0.562930
O5    O     O_3   0.532918 0.129739 0.270799 -0.753096
O6    O     O_3   0.438972 0.868014 0.968760 -0.760083
O7    O     O_3   0.349220 0.530163 0.741454 -0.749936
O8    O     O_2   0.793088 0.273021 0.543877 -0.550486
O9    O     O_2   0.204528 0.673295 0.383069 -0.549955
O10   O     O_2   0.800914 0.708180 0.471614 -0.553287
O11   O     O_R   0.500000 0.316750 0.385360 -0.575321
O12   O     O_R   0.428760 0.500030 0.614650 -0.576182
O13   O     O_R   0.428750 0.500010 0.385320 -0.656331
O14   O     O_R   0.500000 0.683250 0.614640 -0.628308
O15   O     O_R   0.500000 0.683220 0.385310 -0.601772
Zn1   Zn    Zn3+2 0.500000 0.500020 0.653130 0.952255
Zn2   Zn    Zn3+2 0.500000 0.499980 0.346870 0.986905

loop_
_geom_bond_atom_site_label_1
_geom_bond_atom_site_label_2
_ccdc_geom_bond_type
C10   C27   A    
C23   N1    S    
C8    C13   A    
C55   H19   S    
C32   O6    S    
C35   C36   A    
C49   N6    S    
C6    H14   S    
C39   C41   A    
C54   C60   A    
C44   N7    S    
C46   H7    S    
C12   C23   A    
C26   C27   A    
O11   Zn2   S    
C36   C37   A    
C22   C29   A    
C50   H8    S    
C16   O15   A    
C49   N3    A    
C30   C31   A    
C31   C32   A    
C28   O2    A    
C55   N5    S    
C57   H25   S    
C18   C19   A    
O13   Zn2   S    
C31   H37   S    
O12   Zn1   S    
C17   C61   A    
C20   C24   A    
C45   C56   A    
C44   C46   A    
C8    C9    A    
C25   H23   S    
C1    O11   A    
C38   O5    S    
N4    Zn1   S    
C11   O10   S    
C9    C10   A    
C1    C37   S    
C1    O1    A    
C28   C61   S    
C47   N4    A    
C21   C22   A    
C51   N1    A    
C18   H34   S    
C39   H4    S    
C4    O13   A    
C2    C6    A    
C40   N1    A    
C53   C60   A    
O15   Zn2   S    
C7    H13   S    
O14   Zn1   S    
C25   C29   A    
C40   C45   A    
C51   O9    S    
H22   N6    S    
C2    C20   A    
C7    C8    A    
C52   H12   S    
C16   O14   A    
C12   H2    S    
C24   H15   S    
C21   C34   A    
C54   H1    S    
C57   H26   S    
C11   N2    A    
C43   C44   A    
C5    C9    A    
C37   C38   A    
C26   N5    S    
C55   H18   S    
C47   C48   A    
C30   H36   S    
C4    C60   S    
C17   C18   A    
C15   C61   A    
C34   C45   A    
C42   C48   A    
H20   O5    S    
C58   H29   S    
C40   O4    S    
C53   O7    S    
C50   N4    A    
C56   H9    S    
C34   C59   A    
C4    O12   A    
H16   N5    S    
C2    C5    A    
C51   C59   A    
C42   C43   A    
O2    Zn1   S    
C52   C53   A    
C58   H30   S    
C55   H17   S    
C57   N6    S    
C46   C47   A    
C14   H11   S    
C14   C19   A    
C3    C26   A    
H31   O7    S    
O3    Zn2   S    
C3    C5    A    
C29   H35   S    
C19   N2    S    
C6    C7    A    
C24   C56   A    
C15   H10   S    
N3    Zn2   S    
C30   C36   A    
C58   N7    S    
C32   C33   A    
C13   N2    A    
C27   H33   S    
H21   O6    S    
H27   N7    S    
C23   C52   A    
C38   C39   A    
C28   O3    A    
C33   H3    S    
C48   N3    A    
O1    Zn1   S    
C33   C35   A    
C57   H24   S    
C35   C41   A    
C58   H28   S    
C13   O8    S    
C10   C11   A    
C17   H32   S    
C20   C21   A    
C43   H6    S    
C49   C50   A    
C42   H5    S    
C14   C15   A    
C3    C22   A    
C25   C59   A    
C16   C41   S    
C12   C54   A    
