data_mof_unit_17446.cif
_audit_creation_date              2012-10-26T21:27:09-0400
_audit_creation_method            fapswitch 2.2
_symmetry_space_group_name_H-M    P1
_symmetry_Int_Tables_number       1
_space_group_crystal_system       triclinic
_cell_length_a                    12.202527
_cell_length_b                    12.204793
_cell_length_c                    23.289006
_cell_angle_alpha                 89.9971
_cell_angle_beta                  90.025122
_cell_angle_gamma                 90.009456
_cell_volume                      3468.41535144

loop_
_atom_site_label
_atom_site_type_symbol
_atom_type_description
_atom_site_fract_x
_atom_site_fract_y
_atom_site_fract_z
_atom_type_partial_charge
C1    C     C_3   0.999842 0.000024 0.249978 0.013704
C2    C     C_R   0.899447 0.003637 0.290411 -0.082886
C3    C     C_R   0.000161 0.651501 0.921957 0.596534
C4    C     C_R   0.000187 0.348533 0.078049 0.596581
C5    C     C_R   0.348515 0.999811 0.421944 0.599600
C6    C     C_R   0.651510 0.999816 0.578045 0.599288
C7    C     C_R   0.999790 0.348546 0.921937 0.596446
C8    C     C_R   0.999851 0.651506 0.078043 0.597369
C9    C     C_R   0.651459 0.000189 0.421949 0.599961
C10   C     C_R   0.348550 0.000178 0.578055 0.599727
C11   C     C_R   0.082627 0.101590 0.165731 -0.104165
C12   C     C_3   0.000236 0.000040 0.750024 0.012339
C13   C     C_R   0.923550 0.817032 0.790471 -0.102250
C14   C     C_R   0.817135 0.076656 0.709483 -0.093748
C15   C     C_R   0.101683 0.917122 0.334117 -0.099177
C16   C     C_R   0.916850 0.898025 0.165913 -0.093266
C17   C     C_R   0.076829 0.183052 0.790574 -0.090046
C18   C     C_R   0.183328 0.923475 0.709587 -0.091472
C19   C     C_R   0.898061 0.082975 0.334081 -0.093877
C20   C     C_R   0.083125 0.898167 0.834172 -0.093648
C21   C     C_R   0.923679 0.183400 0.209626 -0.089944
C22   C     C_R   0.816665 0.923537 0.290417 -0.092409
C23   C     C_R   0.003488 0.100376 0.209504 -0.072937
C24   C     C_R   0.102121 0.083068 0.665992 -0.093625
C25   C     C_R   0.917065 0.101917 0.834017 -0.094076
C26   C     C_R   0.076566 0.817064 0.209519 -0.106731
C27   C     C_R   0.183136 0.076435 0.290380 -0.097863
C28   C     C_R   0.898322 0.917106 0.665894 -0.099366
C29   C     C_R   0.080476 0.178536 0.121711 0.207323
C30   C     C_R   0.923862 0.733377 0.831278 0.200581
C31   C     C_R   0.733293 0.075990 0.668757 0.220075
C32   C     C_R   0.178744 0.919183 0.378094 0.217661
C33   C     C_R   0.919049 0.821079 0.121908 0.225347
C34   C     C_R   0.003772 0.899669 0.790480 -0.071663
C35   C     C_R   0.076105 0.266847 0.831291 0.225221
C36   C     C_R   0.267028 0.924045 0.668814 0.226392
C37   C     C_R   0.821118 0.080858 0.378081 0.222750
C38   C     C_R   0.080883 0.821214 0.878179 0.222942
C39   C     C_R   0.924372 0.267183 0.168896 0.225809
C40   C     C_R   0.732956 0.924108 0.331184 0.226425
C41   C     C_R   0.179006 0.080917 0.621969 0.222783
C42   C     C_R   0.918935 0.179007 0.877957 0.225274
C43   C     C_R   0.076309 0.733469 0.168681 0.198569
C44   C     C_R   0.266921 0.075831 0.331145 0.219522
C45   C     C_R   0.899850 0.996514 0.709528 -0.080981
C46   C     C_R   0.821250 0.919147 0.621916 0.217859
C47   C     C_R   0.001385 0.263942 0.123155 0.024337
C48   C     C_R   0.001299 0.736200 0.876887 0.023512
C49   C     C_R   0.736167 0.998623 0.623162 0.016958
C50   C     C_R   0.263901 0.998596 0.376809 0.017247
C51   C     C_R   0.998743 0.736186 0.123126 0.023800
C52   C     C_R   0.998562 0.263990 0.876805 0.019976
C53   C     C_R   0.264028 0.001380 0.623194 0.019552
C54   C     C_R   0.736000 0.001400 0.376817 0.019703
C55   C     C_R   0.100247 0.996459 0.290443 -0.081331
C56   C     C_R   0.996257 0.899594 0.209564 -0.070519
C57   C     C_R   0.996641 0.100377 0.790480 -0.081801
C58   C     C_R   0.100631 0.003629 0.709611 -0.081867
Cu1   Cu    Cu3+1 0.889520 0.500000 0.000000 1.348667
Cu2   Cu    Cu3+1 0.110480 0.500000 0.000000 1.349263
Cu3   Cu    Cu3+1 0.500000 0.889520 0.500000 1.345871
Cu4   Cu    Cu3+1 0.500000 0.110480 0.500000 1.347330
H1    H     H_    0.143917 0.037544 0.164874 0.165916
H2    H     H_    0.858507 0.183648 0.240747 0.192023
H3    H     H_    0.816589 0.858202 0.259381 0.194134
H4    H     H_    0.038428 0.144780 0.665281 0.196088
H5    H     H_    0.855334 0.038222 0.834671 0.192948
H6    H     H_    0.141819 0.817220 0.240589 0.160445
H7    H     H_    0.183257 0.141648 0.259265 0.195533
H8    H     H_    0.962053 0.855437 0.665171 0.196208
H9    H     H_    0.293041 0.036542 0.091374 0.358882
H10   H     H_    0.709354 0.678230 0.757236 0.359889
H11   H     H_    0.568679 0.278452 0.746423 0.399029
H12   H     H_    0.858359 0.817108 0.759366 0.161425
H13   H     H_    0.038284 0.697177 0.449684 0.381761
H14   H     H_    0.697108 0.961443 0.049948 0.381481
H15   H     H_    0.279139 0.431188 0.753823 0.394567
H16   H     H_    0.431813 0.721468 0.746406 0.388617
H17   H     H_    0.961756 0.302801 0.449667 0.381623
H18   H     H_    0.294962 0.965200 0.957265 0.405026
H19   H     H_    0.722307 0.432093 0.246671 0.394637
H20   H     H_    0.568031 0.721659 0.253550 0.388099
H21   H     H_    0.038449 0.302939 0.550417 0.381607
H22   H     H_    0.696095 0.039155 0.949444 0.382292
H23   H     H_    0.817186 0.142073 0.740471 0.196310
H24   H     H_    0.291247 0.678836 0.242495 0.358679
H25   H     H_    0.431835 0.278026 0.253417 0.398959
H26   H     H_    0.961488 0.696965 0.550379 0.381736
H27   H     H_    0.037881 0.855505 0.334874 0.196546
H28   H     H_    0.855100 0.961681 0.165180 0.192939
H29   H     H_    0.142310 0.182998 0.759625 0.193344
H30   H     H_    0.183345 0.858129 0.740623 0.194103
H31   H     H_    0.961849 0.144608 0.334836 0.196214
H32   H     H_    0.144843 0.961872 0.834949 0.194327
O1    O     O_R   0.907020 0.615090 0.941240 -0.453812
O2    O     O_R   0.092980 0.615090 0.941240 -0.458944
O3    O     O_R   0.384910 0.092980 0.558760 -0.458202
O4    O     O_R   0.615090 0.907020 0.441240 -0.452289
O5    O     O_R   0.092980 0.615090 0.058760 -0.454101
O6    O     O_R   0.907020 0.384910 0.941240 -0.457916
O7    O     O_R   0.615090 0.907020 0.558760 -0.458717
O8    O     O_R   0.384910 0.092980 0.441240 -0.453020
O9    O     O_2   0.117352 0.172810 0.007658 -0.198000
O10   O     O_2   0.265974 0.240142 0.068774 -0.227340
O11   O     O_3   0.227258 0.030915 0.066609 -0.472564
O12   O     O_R   0.092980 0.384910 0.058760 -0.458678
O13   O     O_2   0.879227 0.517081 0.831503 -0.214609
O14   O     O_2   0.734745 0.640828 0.864622 -0.230027
O15   O     O_3   0.773726 0.628927 0.755140 -0.461364
O16   O     O_2   0.641774 0.265475 0.636114 -0.206585
O17   O     O_2   0.516921 0.120168 0.668169 -0.256305
O18   O     O_3   0.629238 0.224461 0.745194 -0.483121
O19   O     O_2   0.241593 0.733066 0.429128 -0.232096
O20   O     O_2   0.173961 0.879458 0.492015 -0.212259
O21   O     O_3   0.032150 0.770671 0.431955 -0.474584
O22   O     O_2   0.879069 0.825816 0.007992 -0.213998
O23   O     O_R   0.384910 0.907020 0.441240 -0.458761
O24   O     O_2   0.732823 0.758064 0.070957 -0.232413
O25   O     O_3   0.770302 0.967490 0.068052 -0.476952
O26   O     O_2   0.120347 0.483173 0.831850 -0.254183
O27   O     O_2   0.265573 0.358364 0.864083 -0.213492
O28   O     O_3   0.224859 0.370868 0.754963 -0.491726
O29   O     O_2   0.358307 0.734516 0.636101 -0.214476
O30   O     O_2   0.483362 0.879685 0.668156 -0.263389
O31   O     O_3   0.371181 0.775382 0.745185 -0.495403
O32   O     O_2   0.758407 0.266953 0.429148 -0.230620
O33   O     O_2   0.826124 0.120499 0.492009 -0.213072
O34   O     O_R   0.615090 0.092980 0.558760 -0.453277
O35   O     O_3   0.967848 0.229295 0.431955 -0.473981
O36   O     O_2   0.120072 0.825976 0.992103 -0.216396
O37   O     O_2   0.267023 0.758598 0.929449 -0.227383
O38   O     O_3   0.229306 0.967762 0.932286 -0.461966
O39   O     O_2   0.880835 0.483638 0.168303 -0.253775
O40   O     O_2   0.734961 0.359190 0.136467 -0.217371
O41   O     O_3   0.776590 0.371792 0.245493 -0.491821
O42   O     O_2   0.641632 0.734541 0.363858 -0.213741
O43   O     O_2   0.516599 0.879733 0.331858 -0.265181
O44   O     O_3   0.628716 0.775532 0.254787 -0.498207
O45   O     O_R   0.092980 0.384910 0.941240 -0.453187
O46   O     O_2   0.241801 0.267051 0.570937 -0.230541
O47   O     O_2   0.173970 0.120681 0.508048 -0.212838
O48   O     O_3   0.032338 0.229446 0.568148 -0.474269
O49   O     O_2   0.877778 0.174596 0.991764 -0.214209
O50   O     O_2   0.732356 0.242466 0.928272 -0.225847
O51   O     O_3   0.769334 0.032982 0.931437 -0.478322
O52   O     O_2   0.121508 0.517287 0.168368 -0.213660
O53   O     O_2   0.265536 0.641498 0.135132 -0.234128
O54   O     O_3   0.226991 0.629367 0.244648 -0.461017
O55   O     O_2   0.358526 0.265341 0.363704 -0.204893
O56   O     O_R   0.907020 0.615090 0.058760 -0.457945
O57   O     O_2   0.483325 0.119917 0.331807 -0.257524
O58   O     O_3   0.371221 0.224077 0.254657 -0.492092
O59   O     O_2   0.758199 0.732977 0.570993 -0.232017
O60   O     O_2   0.825958 0.879210 0.508018 -0.212196
O61   O     O_3   0.967678 0.770436 0.568127 -0.474739
O62   O     O_R   0.615090 0.092980 0.441240 -0.458161
O63   O     O_R   0.384910 0.907020 0.558760 -0.452465
O64   O     O_R   0.907020 0.384910 0.058760 -0.453909
S1    S     S_3+6 0.174313 0.158222 0.064323 0.093353
S2    S     S_3+6 0.827469 0.374370 0.178357 0.072060
S3    S     S_3+6 0.626067 0.826755 0.321858 0.064277
S4    S     S_3+6 0.159421 0.176083 0.565131 0.092241
S5    S     S_3+6 0.823044 0.159914 0.934496 0.092778
S6    S     S_3+6 0.174262 0.627018 0.177823 0.081810
S7    S     S_3+6 0.373914 0.173016 0.321765 0.073762
S8    S     S_3+6 0.840624 0.823882 0.565121 0.090040
S9    S     S_3+6 0.826212 0.626661 0.822018 0.084377
S10   S     S_3+6 0.626390 0.173249 0.678122 0.077199
S11   S     S_3+6 0.159256 0.824036 0.434942 0.090024
S12   S     S_3+6 0.823754 0.840462 0.065084 0.090068
S13   S     S_3+6 0.173446 0.373728 0.821984 0.073790
S14   S     S_3+6 0.373877 0.826682 0.678128 0.066126
S15   S     S_3+6 0.840733 0.175959 0.434942 0.092235
S16   S     S_3+6 0.175872 0.840735 0.935142 0.097902

loop_
_geom_bond_atom_site_label_1
_geom_bond_atom_site_label_2
_ccdc_geom_bond_type
O33   S15   D    
O20   S11   D    
O40   S2    D    
C32   S11   S    
C16   H28   S    
C9    O4    A    
H18   O38   S    
O59   S8    D    
C35   S13   S    
Cu3   O7    S    
Cu3   O4    S    
C17   H29   S    
C14   C31   A    
O21   S11   S    
Cu2   O5    S    
C43   C51   A    
C17   C57   A    
O58   S7    S    
C15   C32   A    
C29   S1    S    
H22   O51   S    
O36   S16   D    
C46   C49   A    
C28   C46   A    
Cu1   O1    S    
C29   C47   A    
C30   C48   A    
C1    C56   S    
C30   S9    S    
H24   O54   S    
O53   S6    D    
C39   S2    S    
Cu1   O64   S    
C27   C55   A    
C38   S16   S    
O24   S12   D    
O61   S8    S    
O46   S4    D    
H17   O35   S    
C3    C48   S    
C1    C2    S    
C6    O7    A    
C10   O63   A    
O31   S14   S    
C10   C53   S    
C21   H2    S    
C36   C53   A    
O15   S9    S    
C24   C41   A    
C5    O8    A    
O16   S10   D    
C27   C44   A    
C18   C58   A    
C4    O64   A    
C9    O62   A    
C25   H5    S    
C2    C22   A    
C3    O2    A    
H15   O28   S    
C19   C37   A    
C38   C48   A    
O29   S14   D    
C27   H7    S    
C24   H4    S    
C12   C58   S    
C43   S6    S    
Cu1   Cu2   S    
C41   S4    S    
Cu1   O6    S    
O35   S15   S    
C25   C57   A    
C31   C49   A    
C33   S12   S    
O49   S5    D    
C26   C43   A    
H19   O41   S    
C14   C45   A    
O42   S3    D    
O13   S9    D    
C28   C45   A    
C36   S14   S    
H14   O25   S    
C7    O6    A    
Cu3   O23   S    
O54   S6    S    
H26   O61   S    
C13   C30   A    
O55   S7    D    
C18   H30   S    
C42   S5    S    
O19   S11   D    
O51   S5    S    
O57   S7    D    
C4    O12   A    
C26   C56   A    
C15   C55   A    
C10   O3    A    
C8    O56   A    
C16   C56   A    
C22   H3    S    
Cu3   O63   S    
C16   C33   A    
C15   H27   S    
Cu4   O3    S    
C20   C38   A    
O30   S14   D    
C22   C40   A    
O22   S12   D    
O38   S16   S    
C13   H12   S    
C8    C51   S    
C41   C53   A    
O32   S15   D    
C37   C54   A    
Cu2   O2    S    
C7    O45   A    
O27   S13   D    
O14   S9    D    
C1    C23   S    
C40   C54   A    
H25   O58   S    
H9    O11   S    
O50   S5    D    
C5    C50   S    
Cu4   O34   S    
H13   O21   S    
C12   C57   S    
O10   S1    D    
C12   C34   S    
Cu2   O12   S    
H11   O18   S    
C39   C47   A    
Cu1   O56   S    
C44   C50   A    
C20   H32   S    
H10   O15   S    
O41   S2    S    
C46   S8    S    
C2    C19   A    
C21   C39   A    
C8    O5    A    
C28   H8    S    
C14   H23   S    
C12   C45   S    
C19   H31   S    
C25   C42   A    
O48   S4    S    
H21   O48   S    
O26   S13   D    
C9    C54   S    
C33   C51   A    
O37   S16   D    
C11   H1    S    
C7    C52   S    
O39   S2    D    
C26   H6    S    
C21   C23   A    
Cu2   O45   S    
C1    C55   S    
C6    O34   A    
C13   C34   A    
H20   O44   S    
O43   S3    D    
O9    S1    D    
O11   S1    S    
O52   S6    D    
C11   C23   A    
O47   S4    D    
Cu4   O62   S    
C32   C50   A    
O44   S3    S    
C44   S7    S    
C6    C49   S    
Cu3   Cu4   S    
O25   S12   S    
C37   S15   S    
C20   C34   A    
C40   S3    S    
C31   S10   S    
C11   C29   A    
C24   C58   A    
O28   S13   S    
C5    O23   A    
C35   C52   A    
O60   S8    D    
C3    O1    A    
O17   S10   D    
C17   C35   A    
H16   O31   S    
C18   C36   A    
C42   C52   A    
Cu4   O8    S    
C4    C47   S    
O18   S10   S    
