data_mof_unit_14857.cif
_audit_creation_date              2012-12-10T18:53:02-0500
_audit_creation_method            fapswitch 2.2
_symmetry_space_group_name_H-M    P1
_symmetry_Int_Tables_number       1
_space_group_crystal_system       triclinic
_cell_length_a                    9.81184
_cell_length_b                    10.729148
_cell_length_c                    16.835638
_cell_angle_alpha                 90.270652
_cell_angle_beta                  86.054505
_cell_angle_gamma                 89.307001
_cell_volume                      1767.975535

loop_
_atom_site_label
_atom_site_type_symbol
_atom_type_description
_atom_site_fract_x
_atom_site_fract_y
_atom_site_fract_z
_atom_type_partial_charge
C1    C     C_R   0.499307 0.740045 0.497962 0.859576
C2    C     C_R   0.065217 0.579216 0.548695 -0.047968
C3    C     C_R   0.078895 0.421198 0.451078 -0.070968
C4    C     C_R   0.921105 0.579138 0.548715 -0.053458
C5    C     C_R   0.482563 0.502232 0.652598 0.871705
C6    C     C_R   0.517485 0.503541 0.346330 0.872837
C7    C     C_R   0.480642 0.518949 0.737548 -0.073553
C8    C     C_R   0.529359 0.522812 0.259431 -0.117392
C9    C     C_R   0.547116 0.624181 0.766324 0.047195
C10   C     C_R   0.421425 0.574261 0.215894 0.032333
C11   C     C_R   0.615156 0.612486 0.836533 0.003906
C12   C     C_R   0.500769 0.260024 0.501645 0.884078
C13   C     C_R   0.455061 0.610320 0.135771 0.034307
C14   C     C_R   0.593081 0.506264 0.884872 0.049525
C15   C     C_R   0.586971 0.584132 0.099744 0.040301
C16   C     C_R   0.513984 0.407024 0.858537 0.034109
C17   C     C_R   0.688199 0.528416 0.142815 0.023069
C18   C     C_R   0.461672 0.412793 0.784045 -0.268754
C19   C     C_R   0.659047 0.499244 0.221699 -0.270280
C20   C     C_2   0.636873 0.504017 0.966559 -0.184082
C21   C     C_2   0.611653 0.603100 0.013983 -0.185764
C22   C     C_3   0.546754 0.747659 0.721850 -0.424856
C23   C     C_R   0.605493 0.932181 0.531774 -0.244252
C24   C     C_3   0.460526 0.845961 0.770103 -0.326352
C25   C     C_3   0.456424 0.970013 0.726412 -0.849481
C26   C     C_3   0.277027 0.586183 0.257916 -0.399230
C27   C     C_3   0.154364 0.630094 0.213036 -0.356766
C28   C     C_3   0.021019 0.618602 0.265004 -0.841931
C29   C     C_1   0.488133 0.296546 0.905772 0.156561
C30   C     C_1   0.824134 0.502175 0.107392 0.168041
C31   C     C_1   0.358567 0.674154 0.088092 0.127119
C32   C     C_1   0.714890 0.704970 0.855562 0.147726
C33   C     C_1   0.717090 0.117609 0.575381 0.173304
C34   C     C_R   0.395366 0.068139 0.467483 -0.240442
C35   C     C_1   0.277430 0.883891 0.429318 0.179427
C36   C     C_R   0.608318 0.059951 0.535012 -0.004974
C37   C     C_R   0.391236 0.940507 0.465423 0.001602
C38   C     C_R   0.502573 0.127637 0.501941 -0.086837
C39   C     C_R   0.497769 0.872567 0.497631 -0.086079
C40   C     C_R   0.934802 0.421127 0.451085 -0.063309
H1    H     H_    0.739754 0.458001 0.254293 0.168015
H2    H     H_    0.860802 0.642257 0.587641 0.122871
H3    H     H_    0.561481 0.005928 0.714594 0.266455
H4    H     H_    0.407402 0.958579 0.669350 0.267151
H5    H     H_    0.395935 0.039313 0.763736 0.255067
H6    H     H_    0.354291 0.811957 0.781009 0.232040
H7    H     H_    0.502863 0.862174 0.828723 0.235671
H8    H     H_    0.653155 0.780347 0.709546 0.202959
H9    H     H_    0.502121 0.737541 0.663520 0.195206
H10   H     H_    0.999621 0.519144 0.278240 0.246559
H11   H     H_    0.026735 0.670482 0.321855 0.278523
H12   H     H_    0.412782 0.331837 0.760224 0.148634
H13   H     H_    0.935184 0.658033 0.233125 0.259565
H14   H     H_    0.166116 0.729876 0.197014 0.246673
H15   H     H_    0.145641 0.571528 0.159146 0.254760
H16   H     H_    0.249505 0.491692 0.280100 0.226571
H17   H     H_    0.283048 0.651013 0.309051 0.239592
H18   H     H_    0.574226 0.689718 0.989910 0.168384
H19   H     H_    0.659287 0.414331 0.992807 0.169672
H20   H     H_    0.685590 0.879023 0.558107 0.160529
H21   H     H_    0.314989 0.121395 0.441449 0.161230
H22   H     H_    0.885461 0.358237 0.411997 0.126853
H23   H     H_    0.114599 0.642454 0.587549 0.132192
H24   H     H_    0.139168 0.358364 0.411971 0.122955
N1    N     N_R   0.142790 0.500030 0.500020 -0.080400
N2    N     N_R   0.857210 0.499970 0.499980 -0.078884
N3    N     N_1   0.467391 0.208050 0.943517 -0.195431
N4    N     N_1   0.932585 0.480901 0.078767 -0.197015
N5    N     N_1   0.283445 0.725273 0.048843 -0.201500
N6    N     N_1   0.794503 0.778659 0.870616 -0.188613
N7    N     N_1   0.804064 0.163582 0.607728 -0.189265
N8    N     N_1   0.185462 0.839603 0.400795 -0.226147
O1    O     O_R   0.385380 0.683250 0.500010 -0.619441
O2    O     O_R   0.614620 0.316750 0.499990 -0.612054
O3    O     O_R   0.614710 0.683220 0.500000 -0.624969
O4    O     O_R   0.385290 0.316780 0.500000 -0.621356
O5    O     O_R   0.371780 0.500040 0.615800 -0.613656
O6    O     O_R   0.628220 0.499960 0.384200 -0.613213
O7    O     O_R   0.601110 0.500010 0.615800 -0.608381
O8    O     O_R   0.398890 0.499990 0.384200 -0.638920
Zn1   Zn    Zn3+2 0.346870 0.500020 0.500000 0.950278
Zn2   Zn    Zn3+2 0.653130 0.499980 0.500000 0.960847

loop_
_geom_bond_atom_site_label_1
_geom_bond_atom_site_label_2
_ccdc_geom_bond_type
C22   H8    S    
C12   O2    A    
C34   C37   A    
C2    N1    A    
C25   H3    S    
C27   H14   S    
C18   H12   S    
C3    H24   S    
C26   C27   S    
C35   C37   S    
C28   H11   S    
C27   H15   S    
C9    C22   S    
C6    O6    A    
C35   N8    T    
C33   C36   S    
C40   H22   S    
C15   C17   A    
C29   N3    T    
C6    O8    A    
C5    O7    A    
C10   C26   S    
C40   N2    A    
C17   C30   S    
C3    N1    A    
C28   H10   S    
O2    Zn2   S    
C25   H4    S    
O1    Zn1   S    
C23   H20   S    
C8    C19   A    
C1    O3    A    
C14   C20   S    
C24   C25   S    
C11   C14   A    
C5    C7    S    
C1    C39   S    
C32   N6    T    
C16   C29   S    
C34   H21   S    
C2    C4    A    
N2    Zn2   S    
O6    Zn2   S    
C31   N5    T    
N1    Zn1   S    
O5    Zn1   S    
C7    C18   A    
C20   H19   S    
C9    C11   A    
C22   H9    S    
C16   C18   A    
C3    C40   A    
C12   O4    A    
C22   C24   S    
C5    O5    A    
C25   H5    S    
C2    H23   S    
C7    C9    A    
C34   C38   A    
C24   H7    S    
C13   C31   S    
O8    Zn1   S    
C10   C13   A    
C26   H16   S    
O4    Zn1   S    
C11   C32   S    
O7    Zn2   S    
C6    C8    S    
C28   H13   S    
O3    Zn2   S    
C1    O1    A    
C13   C15   A    
C24   H6    S    
C21   H18   S    
C37   C39   A    
C4    N2    A    
C4    H2    S    
C23   C39   A    
C36   C38   A    
C17   C19   A    
C14   C16   A    
C12   C38   S    
C26   H17   S    
C33   N7    T    
C15   C21   S    
C20   C21   D    
C8    C10   A    
C23   C36   A    
C27   C28   S    
C30   N4    T    
C19   H1    S    
