data_mof_unit_14233.cif
_audit_creation_date              2012-10-26T20:40:18-0400
_audit_creation_method            fapswitch 2.2
_symmetry_space_group_name_H-M    P1
_symmetry_Int_Tables_number       1
_space_group_crystal_system       triclinic
_cell_length_a                    15.091817
_cell_length_b                    10.777674
_cell_length_c                    9.597679
_cell_angle_alpha                 90.029252
_cell_angle_beta                  89.780434
_cell_angle_gamma                 92.578165
_cell_volume                      1559.51572472

loop_
_atom_site_label
_atom_site_type_symbol
_atom_type_description
_atom_site_fract_x
_atom_site_fract_y
_atom_site_fract_z
_atom_type_partial_charge
C1    C     C_R   0.496875 0.262570 0.500028 0.537785
C2    C     C_R   0.184585 0.508104 0.629056 0.341009
C3    C     C_R   0.231526 0.502479 0.502024 -0.009343
C4    C     C_R   0.328625 0.500361 0.500522 0.553842
C5    C     C_R   0.185310 0.499349 0.375329 -0.191198
C6    C     C_R   0.355677 0.120315 0.647312 -0.108790
C7    C     C_R   0.289898 0.051205 0.719065 -0.124911
C8    C     C_R   0.290010 0.922162 0.719179 -0.113672
C9    C     C_R   0.355931 0.861413 0.647615 -0.092452
C10   C     C_R   0.424263 0.929558 0.576002 0.024698
C11   C     C_R   0.424125 0.060818 0.575870 0.023112
C12   C     C_R   0.907339 0.501867 0.372594 0.017214
C13   C     C_R   0.490814 0.128380 0.499914 0.003758
C14   C     C_R   0.553313 0.067397 0.420905 -0.145900
C15   C     C_R   0.553458 0.939413 0.421013 -0.151120
C16   C     C_R   0.497272 0.737098 0.500060 0.520158
C17   C     C_R   0.491089 0.870486 0.500115 0.007704
C18   C     C_R   0.618575 0.664158 0.143482 -0.089272
C19   C     C_R   0.676795 0.744095 0.071056 -0.175718
C20   C     C_R   0.676689 0.744370 0.927486 -0.171144
C21   C     C_R   0.618367 0.664700 0.855472 -0.087339
C22   C     C_R   0.558218 0.580867 0.924924 0.155714
C23   C     C_R   0.952297 0.514638 0.754108 -0.156588
C24   C     C_R   0.558268 0.580708 0.074507 0.158378
C25   C     C_R   0.444480 0.423288 0.074176 0.006212
C26   C     C_R   0.444510 0.423302 0.926272 0.030777
C27   C     C_R   0.671245 0.501109 0.499754 0.535602
C28   C     C_R   0.814928 0.500921 0.372988 -0.143289
C29   C     C_R   0.768113 0.503627 0.499522 -0.016071
C30   C     C_R   0.814074 0.508916 0.626293 -0.137834
C31   C     C_R   0.906336 0.510097 0.627622 0.013045
C32   C     C_R   0.953289 0.506064 0.500440 0.065841
C33   C     C_R   0.044560 0.514398 0.754925 -0.107589
C34   C     C_R   0.092104 0.509542 0.629103 0.030678
C35   C     C_R   0.046233 0.505687 0.501161 0.007361
C36   C     C_R   0.093069 0.500961 0.373948 -0.004003
C37   C     C_R   0.046893 0.497511 0.247372 -0.117611
C38   C     C_R   0.954518 0.498040 0.246692 -0.130785
Cu1   Cu    Cu3+1 0.499990 0.499990 0.640660 0.952522
Cu2   Cu    Cu3+1 0.500010 0.500010 0.359340 0.925406
F1    F     F_    0.228226 0.512222 0.752838 -0.655900
H1    H     H_    0.779623 0.497411 0.274768 0.129695
H2    H     H_    0.722024 0.807059 0.871143 0.123147
H3    H     H_    0.623532 0.673245 0.745645 0.182312
H4    H     H_    0.778203 0.511776 0.724280 0.130606
H5    H     H_    0.399006 0.360412 0.871274 0.135967
H6    H     H_    0.916878 0.517982 0.852409 0.105526
H7    H     H_    0.078433 0.517596 0.854265 0.168127
H8    H     H_    0.221016 0.495290 0.277291 0.148099
H9    H     H_    0.082204 0.494081 0.148997 0.117672
H10   H     H_    0.919987 0.495004 0.147856 0.102443
H11   H     H_    0.603591 0.119407 0.361344 0.130133
H12   H     H_    0.351002 0.220088 0.646331 0.137530
H13   H     H_    0.237919 0.097983 0.773227 0.124420
H14   H     H_    0.238108 0.868773 0.773403 0.136668
H15   H     H_    0.351453 0.761094 0.647034 0.166153
H16   H     H_    0.603854 0.893886 0.361534 0.111087
H17   H     H_    0.398952 0.360386 0.129590 0.119902
H18   H     H_    0.623867 0.672204 0.253251 0.178392
H19   H     H_    0.722185 0.806592 0.127086 0.117933
N1    N     N_R   0.500860 0.501210 0.147910 -0.245995
N2    N     N_R   0.500890 0.501290 0.852040 -0.243871
O1    O     O_R   0.499990 0.319640 0.618810 -0.507349
O2    O     O_R   0.500000 0.319660 0.381240 -0.499887
O3    O     O_R   0.370250 0.499960 0.618800 -0.438758
O4    O     O_R   0.370260 0.499980 0.381230 -0.516515
O5    O     O_R   0.500000 0.680340 0.618760 -0.528181
O6    O     O_R   0.500010 0.680360 0.381190 -0.514298
O7    O     O_R   0.629740 0.500020 0.618770 -0.525156
O8    O     O_R   0.629750 0.500040 0.381200 -0.526090

loop_
_geom_bond_atom_site_label_1
_geom_bond_atom_site_label_2
_ccdc_geom_bond_type
C1    C13   S    
C5    C36   A    
C6    C7    A    
C16   O6    A    
C19   H19   S    
C22   N2    A    
C21   H3    S    
C15   H16   S    
C9    C10   A    
C30   H4    S    
C31   C32   A    
C27   O7    A    
C30   C31   A    
C2    C34   A    
C23   H6    S    
C33   C34   A    
C26   N2    A    
C7    C8    A    
C9    H15   S    
Cu2   O4    S    
C21   C22   A    
C12   C32   A    
C4    O4    A    
C37   H9    S    
Cu1   O3    S    
C5    H8    S    
C29   C30   A    
C27   O8    A    
Cu2   O8    S    
C12   C28   A    
C24   N1    A    
C18   C24   A    
C1    O1    A    
C8    H14   S    
C28   H1    S    
C36   C37   A    
C37   C38   A    
C2    C3    A    
C32   C35   A    
Cu1   O7    S    
C4    O3    A    
Cu1   N2    S    
C22   C24   A    
C6    H12   S    
C12   C38   A    
C27   C29   S    
C25   H17   S    
C26   H5    S    
C2    F1    S    
Cu2   O6    S    
C3    C4    S    
Cu1   Cu2   S    
C1    O2    A    
C18   H18   S    
C11   C13   A    
C20   H2    S    
Cu1   O1    S    
C20   C21   A    
C34   C35   A    
C10   C11   A    
C18   C19   A    
C6    C11   A    
C15   C17   A    
C33   H7    S    
C14   C15   A    
C28   C29   A    
C25   N1    A    
C38   H10   S    
C10   C17   A    
C7    H13   S    
C3    C5    A    
C25   C26   A    
C13   C14   A    
C16   O5    A    
Cu1   O5    S    
C14   H11   S    
Cu2   N1    S    
C19   C20   A    
C16   C17   S    
C23   C31   A    
C8    C9    A    
C23   C33   A    
C35   C36   A    
Cu2   O2    S    
