data_mof_unit_14592.cif
_audit_creation_date              2012-10-26T21:21:02-0400
_audit_creation_method            fapswitch 2.2
_symmetry_space_group_name_H-M    P1
_symmetry_Int_Tables_number       1
_space_group_crystal_system       triclinic
_cell_length_a                    10.829549
_cell_length_b                    10.957462
_cell_length_c                    9.702024
_cell_angle_alpha                 89.179928
_cell_angle_beta                  88.893409
_cell_angle_gamma                 90.167712
_cell_volume                      1150.94605196

loop_
_atom_site_label
_atom_site_type_symbol
_atom_type_description
_atom_site_fract_x
_atom_site_fract_y
_atom_site_fract_z
_atom_type_partial_charge
C1    C     C_R   0.494910 0.265560 0.501235 0.550812
C2    C     C_2   0.474764 0.134373 0.505966 0.066032
C3    C     C_2   0.435353 0.423765 0.927080 0.214864
C4    C     C_R   0.261573 0.504855 0.502303 0.545445
C5    C     C_2   0.420419 0.439124 0.081045 -0.035501
C6    C     C_R   0.501497 0.734525 0.498728 0.570554
C7    C     C_R   0.736969 0.488420 0.499160 0.534836
C8    C     C_R   0.102418 0.495513 0.766450 -0.089815
C9    C     C_R   0.038041 0.448868 0.882509 0.075191
C10   C     C_R   0.930152 0.382164 0.864342 -0.037137
C11   C     C_R   0.878223 0.373895 0.734178 0.108117
C12   C     C_R   0.056417 0.480175 0.632047 -0.012224
C13   C     C_R   0.933455 0.439438 0.620526 0.035917
C14   C     C_R   0.125871 0.505647 0.508281 -0.011609
C15   C     C_R   0.064428 0.517428 0.383193 -0.150448
C16   C     C_R   0.937597 0.505946 0.379397 -0.151195
C17   C     C_R   0.870616 0.470768 0.498138 -0.011468
C18   C     C_2   0.478551 0.936077 0.388158 0.086138
C19   C     C_2   0.513103 0.866137 0.495804 -0.031908
C20   C     C_2   0.495698 0.068718 0.392016 -0.109813
Cu1   Cu    Cu3+1 0.500020 0.500020 0.638630 0.991613
Cu2   Cu    Cu3+1 0.499980 0.499980 0.361370 0.941523
H1    H     H_    0.114136 0.540116 0.288355 0.161667
H2    H     H_    0.283405 0.323678 0.889546 0.206326
H3    H     H_    0.412672 0.241836 0.915430 0.197086
H4    H     H_    0.607864 0.628708 0.923226 0.217277
H5    H     H_    0.449779 0.647489 0.961958 0.228060
H6    H     H_    0.343499 0.393808 0.133789 0.134825
H7    H     H_    0.162523 0.519524 0.016620 0.222897
H8    H     H_    0.107891 0.379912 0.058187 0.217150
H9    H     H_    0.701570 0.316930 0.769457 0.267641
H10   H     H_    0.762088 0.271658 0.614494 0.233655
H11   H     H_    0.485825 0.908059 0.182709 0.222154
H12   H     H_    0.582134 0.519622 0.106806 0.216586
H13   H     H_    0.341960 0.923088 0.250408 0.230071
H14   H     H_    0.183927 0.549052 0.784689 0.157662
H15   H     H_    0.886067 0.336433 0.952088 0.131824
H16   H     H_    0.891874 0.526887 0.283610 0.157302
H17   H     H_    0.555673 0.906241 0.584843 0.110928
H18   H     H_    0.523903 0.113650 0.295849 0.116964
H19   H     H_    0.482092 0.095812 0.710421 0.239626
H20   H     H_    0.338690 0.123747 0.651799 0.250834
N1    N     N_2   0.498640 0.498660 0.846910 -0.124268
N2    N     N_2   0.498610 0.498630 0.153040 -0.362731
N3    N     N_3   0.422122 0.079800 0.629417 -0.643320
N4    N     N_3   0.377985 0.320032 0.867060 -0.574890
N5    N     N_3   0.517028 0.618283 0.890958 -0.498203
N6    N     N_3   0.082741 0.465552 0.019223 -0.657119
N7    N     N_3   0.780943 0.285985 0.718158 -0.632770
N8    N     N_3   0.428359 0.883630 0.266498 -0.593036
O1    O     O_R   0.500020 0.321960 0.617040 -0.478817
O2    O     O_R   0.499980 0.321920 0.382900 -0.514122
O3    O     O_R   0.319670 0.500020 0.617100 -0.490266
O4    O     O_R   0.319630 0.499980 0.382950 -0.502580
O5    O     O_R   0.500020 0.678080 0.617100 -0.472510
O6    O     O_R   0.499980 0.678040 0.382960 -0.450286
O7    O     O_R   0.680370 0.500020 0.617050 -0.491737
O8    O     O_R   0.680330 0.499980 0.382900 -0.513801

loop_
_geom_bond_atom_site_label_1
_geom_bond_atom_site_label_2
_ccdc_geom_bond_type
Cu2   O8    S    
Cu1   O7    S    
C11   N7    S    
C4    O3    A    
C5    H6    S    
C11   C13   A    
C9    C10   A    
C7    O8    A    
C13   C17   A    
C6    O5    A    
C8    C12   A    
H2    N4    S    
H13   N8    S    
C15   H1    S    
Cu2   O4    S    
Cu1   Cu2   S    
Cu1   O3    S    
C6    C19   S    
C1    O1    A    
C3    N1    D    
C19   H17   S    
H4    N5    S    
H9    N7    S    
C10   H15   S    
H8    N6    S    
C5    N2    D    
C12   C14   A    
C1    C2    S    
C18   C20   S    
C6    O6    A    
C2    N3    S    
C4    C14   S    
C20   H18   S    
C1    O2    A    
H10   N7    S    
C10   C11   A    
H7    N6    S    
C2    C20   D    
C15   C16   A    
Cu1   O1    S    
H12   N2    S    
C12   C13   A    
C18   N8    S    
C9    N6    S    
Cu2   O2    S    
C18   C19   D    
C8    H14   S    
H5    N5    S    
Cu1   O5    S    
H19   N3    S    
C14   C15   A    
C8    C9    A    
Cu2   O6    S    
C3    N4    S    
C4    O4    A    
H11   N8    S    
Cu1   N1    S    
N1    N5    S    
H3    N4    S    
C7    O7    A    
Cu2   N2    S    
C16   H16   S    
C16   C17   A    
C3    C5    S    
H20   N3    S    
C7    C17   S    
