data_mof_unit_44810.cif
_audit_creation_date              2013-03-05T16:03:01-0500
_audit_creation_method            fapswitch 2.2
_symmetry_space_group_name_H-M    P1
_symmetry_Int_Tables_number       1
_space_group_crystal_system       triclinic
_cell_length_a                    14.975824
_cell_length_b                    14.022326
_cell_length_c                    10.500905
_cell_angle_alpha                 90.304621
_cell_angle_beta                  89.803686
_cell_angle_gamma                 90.086859
_cell_volume                      2205.10026875

loop_
_atom_site_label
_atom_site_type_symbol
_atom_site_description
_atom_site_fract_x
_atom_site_fract_y
_atom_site_fract_z
_atom_type_partial_charge
O1    O     O_R   0.367850 0.580280 0.500030 -0.637812
O2    O     O_R   0.632150 0.419720 0.499970 -0.637788
O3    O     O_R   0.632150 0.580280 0.499970 -0.580915
O4    O     O_R   0.367850 0.419720 0.500030 -0.580852
C1    C     C_R   0.326837 0.499881 0.497187 0.939954
C2    C     C_R   0.673163 0.500119 0.502796 0.939751
O5    O     O_R   0.499970 0.580260 0.313950 -0.641117
O6    O     O_R   0.500030 0.419740 0.686050 -0.641093
O7    O     O_R   0.500030 0.580260 0.686050 -0.607832
O8    O     O_R   0.499970 0.419740 0.313950 -0.607729
C3    C     C_R   0.500082 0.499679 0.257118 0.897628
C4    C     C_R   0.499922 0.500320 0.742882 0.897474
Zn1   Zn    Zn3+2 0.500000 0.607200 0.500000 0.985978
Zn2   Zn    Zn3+2 0.500000 0.392800 0.500000 0.986016
C5    C     C_3   0.426376 0.544602 0.043143 -0.155893
C6    C     C_3   0.573630 0.455398 0.956857 -0.155918
C7    C     C_3   0.499716 0.591084 0.960520 -0.131188
C8    C     C_3   0.500290 0.408916 0.039480 -0.131145
C9    C     C_3   0.426603 0.454657 0.957708 -0.155280
C10   C     C_3   0.573402 0.545344 0.042292 -0.155294
H1    H     H_    0.366943 0.417929 0.918388 0.150832
H2    H     H_    0.633063 0.582071 0.081613 0.150884
H3    H     H_    0.366526 0.580662 0.083243 0.158188
H4    H     H_    0.633480 0.419339 0.916757 0.158230
H5    H     H_    0.499493 0.665309 0.924202 0.161347
H6    H     H_    0.500513 0.334691 0.075798 0.161356
C11   C     C_3   0.499944 0.501017 0.877799 0.008800
C12   C     C_3   0.500062 0.498983 0.122201 0.008797
C13   C     C_R   0.813483 0.433655 0.431941 -0.311190
C14   C     C_R   0.186510 0.566376 0.567929 -0.311241
C15   C     C_R   0.768692 0.500249 0.507214 -0.180774
C16   C     C_R   0.231308 0.499764 0.492694 -0.180753
C17   C     C_R   0.814702 0.567415 0.582286 0.259953
C18   C     C_R   0.185304 0.432619 0.417571 0.259841
C19   C     C_R   0.908081 0.567674 0.579713 -0.009335
C20   C     C_R   0.091919 0.432387 0.420100 -0.009353
C21   C     C_R   0.953382 0.500419 0.501784 0.041433
C22   C     C_R   0.046617 0.499644 0.498026 0.041455
C23   C     C_R   0.905568 0.433580 0.427887 0.135261
C24   C     C_R   0.094427 0.566480 0.571932 0.135264
C25   C     C_R   0.957247 0.632327 0.654394 -0.150533
C26   C     C_R   0.042747 0.367762 0.345378 -0.150544
C27   C     C_R   0.049762 0.631998 0.649825 -0.212380
C28   C     C_R   0.950232 0.368085 0.349960 -0.212365
H7    H     H_    0.776207 0.383115 0.374105 0.162193
H8    H     H_    0.223781 0.616909 0.625785 0.162198
H9    H     H_    0.924937 0.683308 0.716922 0.197687
H10   H     H_    0.075047 0.316804 0.282811 0.197720
H11   H     H_    0.086456 0.682838 0.707640 0.148800
H12   H     H_    0.913536 0.317253 0.292133 0.148802
C29   C     C_R   0.556678 0.797952 0.420551 -0.004314
C30   C     C_R   0.443322 0.202048 0.579449 -0.004409
C31   C     C_R   0.443416 0.798396 0.579592 -0.042628
C32   C     C_R   0.556584 0.201604 0.420408 -0.042596
N1    N     N_R   0.500000 0.750030 0.500000 -0.102563
N2    N     N_R   0.500000 0.249970 0.500000 -0.102556
C33   C     C_R   0.442044 0.899047 0.581496 0.015613
C34   C     C_R   0.557956 0.100953 0.418504 0.015607
C35   C     C_R   0.558032 0.898590 0.418621 0.011976
C36   C     C_R   0.441968 0.101410 0.581380 0.011983
C37   C     C_R   0.500019 0.949397 0.500029 0.087489
C38   C     C_R   0.499981 0.050602 0.499971 0.087496
C39   C     C_R   0.384355 0.950327 0.662471 -0.195148
C40   C     C_R   0.615645 0.049672 0.337529 -0.195150
C41   C     C_R   0.615689 0.949412 0.337598 -0.180108
C42   C     C_R   0.384311 0.050588 0.662403 -0.180122
H13   H     H_    0.600765 0.757583 0.358708 0.132881
H14   H     H_    0.399236 0.242416 0.641293 0.132863
H15   H     H_    0.399379 0.758369 0.641508 0.123977
H16   H     H_    0.600620 0.241631 0.358492 0.123970
H17   H     H_    0.339261 0.912918 0.725839 0.142988
H18   H     H_    0.660739 0.087082 0.274160 0.142992
H19   H     H_    0.660809 0.911644 0.274266 0.149935
H20   H     H_    0.339192 0.088356 0.725734 0.149929
N3    N     N_R   0.766629 0.632829 0.662828 0.202643
O9    O     O_R   0.715632 0.600822 0.753682 -0.420269
O10   O     O_R   0.768215 0.723768 0.638896 -0.396182
N4    N     N_R   0.233383 0.367183 0.337057 0.202638
O11   O     O_R   0.231574 0.276226 0.360800 -0.396246
O12   O     O_R   0.284726 0.399165 0.246607 -0.420209

loop_
_geom_bond_atom_site_label_1
_geom_bond_atom_site_label_2
_geom_bond_distance
_ccdc_geom_bond_type
C34   C38   1.408402 A    
Zn2   N2    2.002810 S    
C20   C26   1.404813 A    
C8    H6    1.110393 S    
O3    C2    1.282247 A    
C31   H15   1.082814 S    
O5    C3    1.275035 A    
O1    C1    1.283269 A    
C22   C24   1.409727 A    
N4    O12   1.301133 A    
C42   H20   1.083318 S    
C7    C10   1.543034 S    
C41   H19   1.083318 S    
C36   C38   1.408361 A    
C8    C9    1.543034 S    
O7    Zn1   1.991853 S    
C30   C36   1.411539 A    
C17   N3    1.436855 S    
C24   C27   1.396655 A    
C15   C17   1.406099 A    
C9    C11   1.526560 S    
C29   N1    1.366541 A    
C30   H14   1.082753 S    
O6    C4    1.275037 A    
C1    C16   1.431563 S    
C6    C11   1.526492 S    
C5    H3    1.110343 S    
C2    C15   1.431538 S    
C39   C42   1.405893 A    
C36   C42   1.406009 A    
C6    H4    1.110343 S    
C25   C27   1.386159 A    
O2    C2    1.283276 A    
C26   C28   1.386169 A    
C19   C25   1.404789 A    
C33   C39   1.405997 A    
C31   N1    1.366539 A    
C34   C40   1.405999 A    
C32   N2    1.366539 A    
C35   C37   1.408360 A    
C4    C11   1.416736 S    
C7    C11   1.529029 S    
C8    C12   1.529029 S    
O8    Zn2   1.991853 S    
C31   C33   1.411580 A    
N4    O11   1.301092 A    
C27   H11   1.084104 S    
C29   H13   1.082754 S    
C10   C12   1.526560 S    
C13   H7    1.085944 S    
C16   C18   1.406166 A    
C5    C9    1.543883 S    
N3    O9    1.301324 A    
C21   C22   1.396749 A    
C32   H16   1.082813 S    
C6    C10   1.543885 S    
C13   C23   1.379553 A    
C25   H9    1.081739 S    
C14   C24   1.379516 A    
C26   H10   1.081714 S    
N3    O10   1.301178 A    
C6    C8    1.543123 S    
C39   H17   1.083329 S    
O1    Zn1   2.014172 S    
C19   C21   1.417460 A    
C32   C34   1.411582 A    
C28   H12   1.084103 S    
C5    C7    1.543121 S    
O6    Zn2   1.987908 S    
C9    H1    1.110352 S    
C14   H8    1.085946 S    
C10   H2    1.110352 S    
O4    C1    1.282262 A    
O3    Zn1   2.015294 S    
C33   C37   1.408404 A    
C23   C28   1.396637 A    
C7    H5    1.110393 S    
C40   C41   1.405893 A    
C20   C22   1.417477 A    
C13   C15   1.391812 A    
C18   N4    1.436932 S    
C14   C16   1.391813 A    
C5    C12   1.526492 S    
C3    C12   1.416737 S    
C17   C19   1.398603 A    
C18   C20   1.398676 A    
C40   H18   1.083329 S    
O4    Zn2   2.015295 S    
C37   C38   1.419132 A    
O2    Zn2   2.014170 S    
O7    C4    1.272696 A    
O8    C3    1.272697 A    
O5    Zn1   1.987910 S    
C29   C35   1.411539 A    
C21   C23   1.409732 A    
C35   C41   1.406010 A    
C30   N2    1.366541 A    
Zn1   N1    2.002809 S    
