data_mof_unit_30991.cif
_audit_creation_date              2012-12-10T18:45:02-0500
_audit_creation_method            fapswitch 2.2
_symmetry_space_group_name_H-M    P1
_symmetry_Int_Tables_number       1
_space_group_crystal_system       triclinic
_cell_length_a                    19.332338
_cell_length_b                    18.125448
_cell_length_c                    10.789608
_cell_angle_alpha                 89.88778
_cell_angle_beta                  90.102102
_cell_angle_gamma                 90.322352
_cell_volume                      3780.68425168

loop_
_atom_site_label
_atom_site_type_symbol
_atom_type_description
_atom_site_fract_x
_atom_site_fract_y
_atom_site_fract_z
_atom_type_partial_charge
C1    C     C_R   0.367748 0.499719 0.504711 0.804541
C2    C     C_R   0.632278 0.500220 0.499076 0.847962
C3    C     C_R   0.851789 0.491172 0.502719 0.077704
C4    C     C_R   0.147828 0.493540 0.509850 0.085617
C5    C     C_R   0.814815 0.500687 0.612619 -0.142246
C6    C     C_R   0.183666 0.512053 0.401867 -0.161892
C7    C     C_R   0.742993 0.504819 0.609387 -0.209669
C8    C     C_R   0.255597 0.514841 0.402761 -0.214754
C9    C     C_R   0.707646 0.500501 0.496176 -0.089945
C10   C     C_R   0.292363 0.498451 0.511092 -0.083263
C11   C     C_R   0.963876 0.553743 0.512956 -0.201646
C12   C     C_R   0.035423 0.554396 0.513265 -0.210401
C13   C     C_R   0.072106 0.488426 0.508004 0.042014
C14   C     C_R   0.927499 0.487173 0.505701 0.040051
C15   C     C_R   0.036813 0.419567 0.501611 0.082846
C16   C     C_R   0.963070 0.419003 0.499006 0.083044
C17   C     C_R   0.449113 0.720890 0.439700 0.029683
C18   C     C_R   0.550149 0.720939 0.562853 0.039107
C19   C     C_R   0.447132 0.798778 0.438976 -0.103476
C20   C     C_R   0.551529 0.798864 0.566862 -0.119061
C21   C     C_R   0.499356 0.839062 0.503133 -0.087266
C22   C     C_R   0.495736 0.500060 0.262400 0.851411
C23   C     C_R   0.497772 0.499982 0.737726 0.824610
C24   C     C_R   0.452919 0.961428 0.577148 -0.088705
C25   C     C_R   0.546344 0.961593 0.428335 -0.077373
C26   C     C_R   0.453159 0.039006 0.576737 -0.184073
C27   C     C_R   0.546304 0.039170 0.427464 -0.190359
C28   C     C_R   0.499763 0.078696 0.501735 0.092140
C29   C     C_R   0.499531 0.921874 0.502963 0.227731
C30   C     C_R   0.450750 0.200956 0.428969 -0.012357
C31   C     C_R   0.549095 0.201624 0.572516 -0.012642
C32   C     C_R   0.452795 0.279059 0.430380 0.068987
C33   C     C_R   0.547125 0.279683 0.570136 0.066887
C34   C     C_R   0.499872 0.161613 0.501058 0.006429
C35   C     C_R   0.393166 0.588798 0.125822 -0.258935
C36   C     C_R   0.396057 0.589874 0.868569 -0.201979
C37   C     C_R   0.346524 0.633955 0.060674 0.116643
C38   C     C_R   0.349624 0.636234 0.929625 0.147797
C39   C     C_R   0.443994 0.545851 0.933477 0.076420
C40   C     C_R   0.443057 0.545808 0.063980 0.049789
C41   C     C_R   0.490290 0.499952 0.128551 -0.072617
C42   C     C_R   0.491662 0.499863 0.871225 -0.045106
C43   C     C_R   0.533965 0.452261 0.064563 -0.153101
C44   C     C_R   0.534658 0.452225 0.936955 -0.225091
C45   C     C_R   0.744792 0.492820 0.383830 -0.012016
C46   C     C_R   0.256342 0.480446 0.621761 -0.021985
C47   C     C_R   0.817048 0.487927 0.389008 -0.214018
C48   C     C_R   0.183878 0.479853 0.619853 -0.218343
Cu1   Cu    Cu3+1 0.500000 0.573360 0.500000 0.958377
Cu2   Cu    Cu3+1 0.500000 0.426640 0.500000 0.964354
H1    H     H_    0.569241 0.416246 0.113768 0.167670
H2    H     H_    0.570410 0.416269 0.889180 0.137911
H3    H     H_    0.410075 0.689659 0.390248 0.144780
H4    H     H_    0.588917 0.689565 0.612187 0.165678
H5    H     H_    0.416625 0.932188 0.635878 0.114247
H6    H     H_    0.582727 0.932400 0.370397 0.126297
H7    H     H_    0.416931 0.068222 0.634958 0.133064
H8    H     H_    0.582658 0.068513 0.368866 0.132494
H9    H     H_    0.416848 0.311179 0.376333 0.125371
H10   H     H_    0.583016 0.312271 0.624018 0.123145
H11   H     H_    0.388650 0.586111 0.225484 0.136753
H12   H     H_    0.392543 0.587740 0.768844 0.163608
H13   H     H_    0.846806 0.482214 0.304528 0.173450
H14   H     H_    0.155057 0.466029 0.702909 0.170367
H15   H     H_    0.841602 0.504011 0.700726 0.137690
H16   H     H_    0.155771 0.522993 0.316769 0.139734
H17   H     H_    0.714761 0.510609 0.695494 0.131429
H18   H     H_    0.282978 0.528061 0.318171 0.126181
H19   H     H_    0.936473 0.605675 0.517354 0.161218
H20   H     H_    0.062578 0.606796 0.518223 0.155388
N1    N     N_R   0.500000 0.683620 0.500000 -0.195075
N2    N     N_R   0.500000 0.316380 0.500000 -0.198479
O1    O     O_R   0.400190 0.561980 0.499980 -0.613201
O2    O     O_R   0.599810 0.561980 0.500020 -0.556009
O3    O     O_R   0.400190 0.438070 0.500040 -0.554922
O4    O     O_R   0.599810 0.438070 0.499960 -0.597468
O5    O     O_R   0.500000 0.561970 0.319650 -0.556860
O6    O     O_R   0.500000 0.561970 0.680350 -0.609623
O7    O     O_R   0.500010 0.438060 0.319710 -0.595729
O8    O     O_R   0.499990 0.438060 0.680290 -0.555521
C49   C     C_2   0.390343 0.835723 0.369572 0.806439
O9    O     O_2   0.334607 0.804365 0.356809 -0.637513
O10   O     O_R   0.400356 0.905498 0.316832 -0.762704
H21   H     H_    0.357682 0.924268 0.272338 0.331335
C50   C     C_2   0.607325 0.835713 0.640042 0.828070
O11   O     O_2   0.661359 0.803096 0.660898 -0.598801
O12   O     O_R   0.598151 0.906652 0.687814 -0.766841
H22   H     H_    0.639942 0.925070 0.735758 0.334765
C51   C     C_3   0.397782 0.158225 0.352135 -0.394799
C52   C     C_3   0.347696 0.205125 0.274591 -0.381836
C53   C     C_3   0.297205 0.156485 0.202257 -0.821781
H23   H     H_    0.325739 0.119270 0.138890 0.257025
H24   H     H_    0.265282 0.122871 0.266903 0.254703
H25   H     H_    0.262301 0.191735 0.146077 0.241464
H26   H     H_    0.317330 0.241675 0.336411 0.219078
H27   H     H_    0.377345 0.239485 0.207493 0.223107
H28   H     H_    0.426217 0.121094 0.288296 0.220545
H29   H     H_    0.366612 0.123252 0.416014 0.213172
C54   C     C_3   0.602060 0.159651 0.649840 -0.391394
C55   C     C_3   0.652722 0.207290 0.725645 -0.386460
C56   C     C_3   0.703327 0.159360 0.798231 -0.821957
H30   H     H_    0.674929 0.122527 0.863210 0.258058
H31   H     H_    0.734565 0.125365 0.733852 0.255681
H32   H     H_    0.738877 0.195147 0.852661 0.240936
H33   H     H_    0.682969 0.243727 0.662590 0.218584
H34   H     H_    0.623559 0.241791 0.792492 0.219633
H35   H     H_    0.573627 0.122741 0.714834 0.221285
H36   H     H_    0.632835 0.124481 0.586463 0.212870
C57   C     C_3   0.293466 0.676654 0.134220 -0.393896
C58   C     C_3   0.221391 0.640947 0.124381 -0.361296
C59   C     C_3   0.169888 0.679065 0.209666 -0.813856
H37   H     H_    0.187111 0.674912 0.307715 0.265563
H38   H     H_    0.164921 0.738145 0.183790 0.262410
H39   H     H_    0.118398 0.652093 0.200965 0.235655
H40   H     H_    0.201484 0.643618 0.028063 0.225949
H41   H     H_    0.224435 0.581751 0.149969 0.219845
H42   H     H_    0.308524 0.677774 0.233691 0.225288
H43   H     H_    0.292409 0.735184 0.103666 0.212053
C60   C     C_3   0.303987 0.685142 0.849766 -0.428934
C61   C     C_3   0.347120 0.741924 0.776818 -0.363155
C62   C     C_3   0.301411 0.788080 0.691619 -0.797159
H44   H     H_    0.274616 0.752095 0.623263 0.268827
H45   H     H_    0.262379 0.818591 0.746519 0.247116
H46   H     H_    0.333799 0.828555 0.640381 0.240962
H47   H     H_    0.374508 0.779106 0.842687 0.227816
H48   H     H_    0.386491 0.713957 0.718857 0.232431
H49   H     H_    0.274595 0.649512 0.784129 0.212129
H50   H     H_    0.265460 0.715864 0.904517 0.202032
C63   C     C_2   0.710550 0.490690 0.260385 0.806380
O13   O     O_2   0.654597 0.520246 0.244401 -0.607706
O14   O     O_R   0.743494 0.456460 0.160702 -0.778745
H51   H     H_    0.715358 0.458934 0.081390 0.327985
C64   C     C_2   0.291499 0.461685 0.740183 0.775407
O15   O     O_2   0.348148 0.432212 0.740222 -0.596215
O16   O     O_R   0.258497 0.476019 0.852829 -0.783045
H52   H     H_    0.287405 0.461113 0.927193 0.333810
C65   C     C_3   0.078119 0.348311 0.494936 -0.422023
C66   C     C_3   0.096312 0.329468 0.360395 -0.337285
C67   C     C_3   0.138846 0.258947 0.353256 -0.839122
H53   H     H_    0.188107 0.265658 0.405301 0.256998
H54   H     H_    0.109215 0.211711 0.392435 0.252963
H55   H     H_    0.151148 0.246754 0.254968 0.243277
H56   H     H_    0.048253 0.322096 0.305074 0.213401
H57   H     H_    0.126678 0.375268 0.318380 0.227412
H58   H     H_    0.126339 0.352860 0.550202 0.207141
H59   H     H_    0.049911 0.301686 0.538597 0.197674
C68   C     C_3   0.921971 0.347155 0.491077 -0.419265
C69   C     C_3   0.903928 0.318160 0.620774 -0.341446
C70   C     C_3   0.861329 0.247161 0.613594 -0.839080
H60   H     H_    0.811864 0.257209 0.563950 0.256320
H61   H     H_    0.890755 0.203639 0.564542 0.253762
H62   H     H_    0.849391 0.227416 0.708686 0.244589
H63   H     H_    0.952049 0.307253 0.674015 0.213424
H64   H     H_    0.873661 0.360121 0.671933 0.226185
H65   H     H_    0.873661 0.355146 0.437232 0.211204
H66   H     H_    0.950256 0.304588 0.438165 0.198146

loop_
_geom_bond_atom_site_label_1
_geom_bond_atom_site_label_2
_ccdc_geom_bond_type
O12   H22   S    
C9    C45   A    
C56   H30   S    
C58   H41   S    
C68   C69   S    
C25   H6    S    
Cu2   O7    S    
C49   O9    D    
C57   H42   S    
O16   H52   S    
C32   N2    A    
C50   O11   D    
C24   H5    S    
C45   C63   S    
C54   H36   S    
C55   H33   S    
C23   C42   S    
C69   H64   S    
C33   H10   S    
C16   C68   S    
C65   H58   S    
C35   C37   A    
C24   C26   A    
C22   O7    A    
C66   H56   S    
C70   H61   S    
C47   H13   S    
C53   H25   S    
C67   H55   S    
C61   H48   S    
C48   H14   S    
C22   C41   S    
C15   C16   A    
Cu1   O6    S    
C18   C20   A    
C4    C13   S    
Cu2   N2    S    
C24   C29   A    
C62   H46   S    
C33   N2    A    
C17   C19   A    
C58   C59   S    
C70   H60   S    
C54   C55   S    
C10   C46   A    
C31   C33   A    
C31   C54   S    
C23   O8    A    
C68   H65   S    
C37   C57   S    
C2    O2    A    
C60   H50   S    
C44   H2    S    
C45   C47   A    
C28   C34   S    
C56   H31   S    
C41   C43   A    
C42   C44   A    
C30   C51   S    
C36   H12   S    
C49   O10   S    
C57   H43   S    
C39   C42   A    
C50   O12   S    
C25   C29   A    
C46   C48   A    
C30   C34   A    
C1    O3    A    
C65   H59   S    
C52   H26   S    
C69   C70   S    
C35   H11   S    
C70   H62   S    
C53   H23   S    
C5    C7    A    
C61   H47   S    
C6    C8    A    
C21   C29   S    
C51   H28   S    
C43   C44   A    
C37   C38   A    
Cu2   O4    S    
C53   H24   S    
O10   H21   S    
C60   C61   S    
C20   C50   S    
C5    H15   S    
C31   C34   A    
C59   H38   S    
C12   C13   A    
C52   H27   S    
C68   H66   S    
C62   H44   S    
C3    C14   S    
C38   C60   S    
C4    C6    A    
C40   C41   A    
C17   N1    A    
C56   H32   S    
C13   C15   A    
C64   O15   D    
C14   C16   A    
C69   H63   S    
O14   H51   S    
C17   H3    S    
C39   C40   A    
C2    O4    A    
C61   C62   S    
C63   O13   D    
C4    C48   A    
C18   N1    A    
C7    C9    A    
C12   H20   S    
C59   H37   S    
C19   C21   A    
C26   C28   A    
C36   C39   A    
C1    C10   S    
C22   O5    A    
C3    C5    A    
C27   H8    S    
Cu2   O8    S    
C67   H53   S    
C11   H19   S    
C8    H18   S    
C25   C27   A    
C54   H35   S    
C65   C66   S    
C55   H34   S    
C51   H29   S    
C1    O1    A    
C36   C38   A    
C35   C40   A    
C66   H57   S    
Cu2   O3    S    
C46   C64   S    
C30   C32   A    
C67   H54   S    
C43   H1    S    
C52   C53   S    
C3    C47   A    
C55   C56   S    
C11   C14   A    
Cu1   O5    S    
C59   H39   S    
Cu1   O1    S    
C23   O6    A    
C26   H7    S    
C62   H45   S    
C66   C67   S    
C18   H4    S    
C7    H17   S    
C6    H16   S    
C20   C21   A    
C8    C10   A    
Cu1   Cu2   S    
Cu1   N1    S    
C57   C58   S    
C27   C28   A    
C64   O16   S    
Cu1   O2    S    
C32   H9    S    
C15   C65   S    
C51   C52   S    
C19   C49   S    
C2    C9    S    
C58   H40   S    
C11   C12   A    
C63   O14   S    
C60   H49   S    
