data_mof_unit_30267.cif
_audit_creation_date              2012-12-11T15:47:10-0500
_audit_creation_method            fapswitch 2.2
_symmetry_space_group_name_H-M    P1
_symmetry_Int_Tables_number       1
_space_group_crystal_system       triclinic
_cell_length_a                    20.163292
_cell_length_b                    7.254627
_cell_length_c                    13.593542
_cell_angle_alpha                 90.357913
_cell_angle_beta                  102.969141
_cell_angle_gamma                 89.874147
_cell_volume                      1937.66373445

loop_
_atom_site_label
_atom_site_type_symbol
_atom_type_description
_atom_site_fract_x
_atom_site_fract_y
_atom_site_fract_z
_atom_type_partial_charge
O1    O     O_R   0.449560 0.506810 0.599700 -0.513235
O2    O     O_R   0.550440 0.006810 0.400300 -0.508891
O3    O     O_R   0.587960 0.180060 0.595760 -0.540807
O4    O     O_R   0.412040 0.680060 0.404240 -0.541133
C1    C     C_R   0.614838 0.344643 0.617089 0.732804
C2    C     C_R   0.385189 0.844254 0.382487 0.729166
O5    O     O_R   0.452380 0.177430 0.611700 -0.544953
O6    O     O_R   0.547620 0.677430 0.388300 -0.546176
O7    O     O_R   0.413900 0.001890 0.416350 -0.542131
O8    O     O_R   0.586100 0.501890 0.583650 -0.545476
C3    C     C_R   0.435887 0.345794 0.637195 0.758149
C4    C     C_R   0.564453 0.844645 0.363099 0.747492
O9    O     O_3   0.487530 0.337490 0.435890 -0.376899
O10   O     O_3   0.512470 0.837490 0.564110 -0.380429
V1    V     V_3+5 0.502310 0.064660 0.511890 1.532026
V2    V     V_3+5 0.497690 0.564660 0.488110 1.529997
C5    C     C_R   0.614489 0.719937 0.122949 0.312559
C6    C     C_R   0.389943 0.282062 0.887229 0.314125
H1    H     H_    0.523003 0.711186 0.177551 0.170407
H2    H     H_    0.480467 0.254563 0.830363 0.176179
H3    H     H_    0.702603 0.661848 0.003504 0.187318
H4    H     H_    0.305440 0.293260 0.016161 0.168776
C7    C     C_R   0.603986 0.843428 0.284681 -0.116076
C8    C     C_R   0.396232 0.350504 0.715338 -0.125970
C9    C     C_R   0.930766 0.907107 0.315922 -0.153246
C10   C     C_R   0.069323 0.350933 0.684135 -0.179778
C11   C     C_R   0.895494 0.905379 0.392836 -0.117046
C12   C     C_R   0.105324 0.329795 0.608799 -0.104343
C13   C     C_R   0.825461 0.874635 0.370553 -0.092074
C14   C     C_R   0.176215 0.325489 0.633412 -0.078716
C15   C     C_R   0.788558 0.851086 0.269879 0.115934
C16   C     C_R   0.213060 0.350102 0.734106 0.107728
C17   C     C_R   0.826554 0.824942 0.194505 0.055161
C18   C     C_R   0.175949 0.352040 0.811514 0.065780
C19   C     C_R   0.715897 0.837270 0.242916 -0.009051
C20   C     C_R   0.285691 0.354261 0.760826 -0.009531
C21   C     C_R   0.684803 0.758828 0.147006 0.021213
C22   C     C_R   0.319191 0.316104 0.862622 0.030150
C23   C     C_R   0.724509 0.719750 0.077085 -0.091435
C24   C     C_R   0.281337 0.313313 0.937477 -0.127788
C25   C     C_R   0.793605 0.756919 0.099453 -0.158539
C26   C     C_R   0.211338 0.339458 0.912863 -0.203132
C27   C     C_R   0.672567 0.899312 0.306279 0.182976
C28   C     C_R   0.326559 0.394792 0.690902 0.180123
C29   C     C_R   0.575851 0.753978 0.193758 -0.172537
C30   C     C_R   0.426889 0.290290 0.812248 -0.181894
C31   C     C_R   0.897250 0.863105 0.216987 -0.083360
C32   C     C_R   0.103925 0.358628 0.785405 -0.068989
H5    H     H_    0.984848 0.936309 0.334070 0.125348
H6    H     H_    0.014195 0.354036 0.663793 0.113035
H7    H     H_    0.801598 0.860309 0.433540 0.159157
H8    H     H_    0.201327 0.292298 0.573364 0.173885
H9    H     H_    0.922552 0.927624 0.470275 0.129999
H10   H     H_    0.078152 0.313310 0.530971 0.145178
H11   H     H_    0.821571 0.723477 0.042661 0.167460
H12   H     H_    0.184823 0.339532 0.973870 0.126061
C33   C     C_R   0.226131 0.011250 0.197190 -0.147163
C34   C     C_R   0.789535 0.510925 0.757553 -0.164597
H13   H     H_    0.209714 0.134992 0.154375 0.159915
H14   H     H_    0.819892 0.634426 0.760449 0.178381
C35   C     C_R   0.291366 0.008994 0.260550 -0.121880
C36   C     C_R   0.724234 0.509820 0.694411 -0.111233
H15   H     H_    0.322875 0.130976 0.265574 0.144403
H16   H     H_    0.706175 0.632310 0.651430 0.144719
C37   C     C_R   0.316063 0.849925 0.314989 -0.090614
C38   C     C_R   0.683456 0.351356 0.685528 -0.078452
C39   C     C_R   0.273611 0.694670 0.305838 -0.123152
C40   C     C_R   0.709276 0.195291 0.741465 -0.135963
H17   H     H_    0.291180 0.571073 0.348051 0.181833
H18   H     H_    0.678690 0.071522 0.736373 0.159528
C41   C     C_R   0.207509 0.697182 0.245393 0.258146
C42   C     C_R   0.773968 0.195380 0.805543 0.272671
C43   C     C_R   0.182984 0.856182 0.188119 -0.102215
C44   C     C_R   0.815715 0.354969 0.814928 -0.106489
O11   O     O_R   0.913920 0.203370 0.916260 -0.508388
O12   O     O_R   0.086080 0.703370 0.083740 -0.514488
O13   O     O_R   0.047620 0.535540 0.888290 -0.541664
O14   O     O_R   0.952380 0.035540 0.111710 -0.527665
C45   C     C_R   0.063828 0.367905 0.862585 0.668069
C46   C     C_R   0.936178 0.868769 0.137783 0.717613
O15   O     O_R   0.912040 0.532780 0.904220 -0.543646
O16   O     O_R   0.087960 0.032780 0.095780 -0.539201
O17   O     O_R   0.949550 0.708160 0.099720 -0.537126
O18   O     O_R   0.050450 0.208160 0.900280 -0.542830
C47   C     C_R   0.885154 0.364003 0.883339 0.705993
C48   C     C_R   0.114131 0.864234 0.118470 0.709669
O19   O     O_3   0.012480 0.375300 0.064060 -0.356223
O20   O     O_3   0.987520 0.875300 0.935940 -0.371873
V3    V     V_3+5 0.997690 0.648180 0.988110 1.509463
V4    V     V_3+5 0.002310 0.148180 0.011890 1.533547
Br1   Br    Br    0.153356 0.481792 0.252498 -0.555943
Br2   Br    Br    0.798519 0.970915 0.877933 -0.609746
Br3   Br    Br    0.568361 0.609822 0.997011 -0.500259
Br4   Br    Br    0.438576 0.211583 0.020181 -0.507380
Br5   Br    Br    0.699188 0.089582 0.408279 -0.577230
Br6   Br    Br    0.293857 0.547041 0.573338 -0.573077

loop_
_geom_bond_atom_site_label_1
_geom_bond_atom_site_label_2
_ccdc_geom_bond_type
C34   C36   A    
C38   C40   A    
C7    C29   A    
C11   C13   A    
C18   C26   A    
O2    C4    A    
C2    O7    A    
C23   C25   A    
O14   V4    S    
O5    C3    A    
C4    C7    S    
O13   V3    S    
C16   C20   A    
C32   C45   S    
C19   C21   A    
C5    C29   A    
C10   H6    S    
C45   O18   A    
C42   Br2   S    
O14   C46   A    
C33   H13   S    
C34   H14   S    
C3    C8    S    
C7    C27   A    
C33   C43   A    
C35   H15   S    
C25   H11   S    
C36   H16   S    
O11   V4    S    
C26   H12   S    
O11   C47   A    
C2    C37   S    
C37   C39   A    
O1    C3    A    
C27   Br5   S    
C15   C17   A    
C6    Br4   S    
C19   C27   A    
C9    C31   A    
C10   C32   A    
O12   V3    S    
O15   V3    S    
C24   C26   A    
O6    V2    S    
C22   C24   A    
C13   C15   A    
O18   V4    S    
C31   C46   S    
C46   O17   A    
C6    C30   A    
O15   C47   A    
O13   C45   A    
O17   V3    S    
C36   C38   A    
C42   C44   A    
C41   C43   A    
C12   H10   S    
O16   C48   A    
C40   C42   A    
C39   H17   S    
C16   C18   A    
O4    V2    S    
C28   Br6   S    
H3    C23   S    
O6    C4    A    
H4    C24   S    
H1    C29   S    
C41   Br1   S    
O1    V2    S    
C5    C21   A    
O2    V1    S    
O4    C2    A    
C17   C31   A    
C15   C19   A    
C20   C28   A    
C5    Br3   S    
C20   C22   A    
O12   C48   A    
O3    V1    S    
C34   C44   A    
C13   H7    S    
C14   H8    S    
C1    C38   S    
O3    C1    A    
C11   H9    S    
O9    V2    S    
C33   C35   A    
C9    C11   A    
C10   C12   A    
O16   V4    S    
C8    C30   A    
C12   C14   A    
C6    C22   A    
C17   C25   A    
C1    O8    A    
C21   C23   A    
O8    V2    S    
C14   C16   A    
C8    C28   A    
O5    V1    S    
C39   C41   A    
C44   C47   S    
O7    V1    S    
C9    H5    S    
C43   C48   S    
C35   C37   A    
C18   C32   A    
O20   V3    S    
C40   H18   S    
O19   V4    S    
O10   V1    S    
H2    C30   S    
