data_mof_unit_68500.cif
_audit_creation_date              2012-12-10T16:45:21-0500
_audit_creation_method            fapswitch 2.2
_symmetry_space_group_name_H-M    P1
_symmetry_Int_Tables_number       1
_space_group_crystal_system       triclinic
_cell_length_a                    7.436504
_cell_length_b                    8.861558
_cell_length_c                    15.999142
_cell_angle_alpha                 92.193715
_cell_angle_beta                  75.099319
_cell_angle_gamma                 103.198224
_cell_volume                      991.727275479

loop_
_atom_site_label
_atom_site_type_symbol
_atom_type_description
_atom_site_fract_x
_atom_site_fract_y
_atom_site_fract_z
_atom_type_partial_charge
C1    C     C_R   0.547378 0.799805 0.498343 0.745572
C2    C     C_R   0.455311 0.200250 0.497740 0.755563
C3    C     C_R   0.267227 0.421794 0.079420 -0.215361
C4    C     C_R   0.723362 0.593399 0.921011 -0.214813
C5    C     C_R   0.143855 0.377034 0.027529 -0.167872
C6    C     C_R   0.849215 0.633302 0.972629 -0.134514
C7    C     C_2   0.575876 0.966659 0.492344 0.269801
C8    C     C_2   0.427381 0.033379 0.500848 0.275071
C9    C     C_R   0.383917 0.487947 0.666031 0.814726
C10   C     C_R   0.615617 0.510418 0.333893 0.803682
C11   C     C_R   0.314408 0.471890 0.761048 -0.174882
C12   C     C_R   0.683523 0.525078 0.238589 -0.176579
C13   C     C_R   0.071244 0.358725 0.888875 0.441591
C14   C     C_R   0.927752 0.642633 0.111008 0.436492
C15   C     C_R   0.129864 0.390074 0.799287 -0.392425
C16   C     C_R   0.869368 0.603864 0.200210 -0.407192
C17   C     C_R   0.439790 0.533277 0.812890 0.382621
C18   C     C_R   0.552523 0.473853 0.187830 0.358453
C19   C     C_R   0.393099 0.491897 0.902117 -0.087974
C20   C     C_R   0.599848 0.518004 0.098753 -0.083575
C21   C     C_R   0.202926 0.409108 0.939310 0.032967
C22   C     C_R   0.792321 0.597754 0.060993 0.036765
C23   C     C_R   0.527303 0.526934 0.955392 0.107067
C24   C     C_R   0.464374 0.487524 0.045791 0.122164
Cu1   Cu    Cu3+1 0.322120 0.483240 0.490330 1.145185
Cu2   Cu    Cu3+1 0.677880 0.516760 0.509670 1.134943
H1    H     H_    0.997074 0.321360 0.058620 0.180074
H2    H     H_    0.996051 0.687912 0.941160 0.177667
H3    H     H_    0.964749 0.637728 0.241815 0.188577
H4    H     H_    0.032907 0.350900 0.758843 0.196414
H5    H     H_    0.193618 0.409812 0.146240 0.216408
H6    H     H_    0.790120 0.610671 0.853189 0.215358
N1    N     N_2   0.945180 0.542040 0.524240 0.247638
N2    N     N_2   0.054820 0.457960 0.475760 0.257647
O1    O     O_R   0.384450 0.714270 0.493720 -0.530482
O2    O     O_R   0.615550 0.285730 0.506280 -0.535673
O3    O     O_R   0.684880 0.742590 0.510050 -0.565117
O4    O     O_R   0.315120 0.257410 0.489950 -0.565831
O5    O     O_R   0.265540 0.477900 0.617090 -0.549214
O6    O     O_R   0.734460 0.522100 0.382910 -0.551484
O7    O     O_R   0.565970 0.506210 0.633420 -0.532641
O8    O     O_R   0.434030 0.493790 0.366580 -0.519482
O9    O     O_3   0.372130 0.392302 0.229257 -0.588428
C25   C     C_3   0.368059 0.232949 0.231848 0.059197
H7    H     H_    0.450320 0.210437 0.277405 0.143664
H8    H     H_    0.431622 0.193390 0.166316 0.132208
C26   C     C_3   0.158627 0.143103 0.261073 -0.348404
H9    H     H_    0.065172 0.221608 0.291858 0.309148
H10   H     H_    0.108434 0.097107 0.203510 0.164102
C27   C     C_3   0.129425 0.011534 0.325694 -0.709919
H11   H     H_    0.234800 0.938700 0.302956 0.208760
H12   H     H_    0.983480 0.937065 0.334867 0.257673
H13   H     H_    0.144687 0.060405 0.388950 0.332651
O10   O     O_3   0.597285 0.647805 0.776365 -0.579268
C28   C     C_3   0.549832 0.793662 0.791877 0.050517
H14   H     H_    0.636714 0.859252 0.833851 0.145148
H15   H     H_    0.396302 0.788318 0.825109 0.099799
C29   C     C_3   0.594138 0.880137 0.706027 -0.384500
H16   H     H_    0.520847 0.804659 0.662866 0.213402
H17   H     H_    0.531349 0.983336 0.714906 0.168450
C30   C     C_3   0.809301 0.925990 0.664689 -0.558343
H18   H     H_    0.888205 0.983324 0.711592 0.182806
H19   H     H_    0.839582 0.007927 0.609722 0.280399
H20   H     H_    0.863836 0.821943 0.640844 0.332972
O11   O     O_3   0.883784 0.287486 0.930932 -0.606314
C31   C     C_3   0.806057 0.159768 0.885809 0.056422
H21   H     H_    0.727234 0.065257 0.933816 0.169427
H22   H     H_    0.916580 0.108939 0.840447 0.090243
C32   C     C_3   0.671031 0.206372 0.838538 -0.332466
H23   H     H_    0.699361 0.333727 0.831686 0.250977
H24   H     H_    0.702361 0.166102 0.771613 0.184874
C33   C     C_3   0.460972 0.144638 0.884469 -0.875819
H25   H     H_    0.426437 0.017872 0.894609 0.226035
H26   H     H_    0.369595 0.172474 0.845026 0.242672
H27   H     H_    0.427695 0.197144 0.948895 0.273852
O12   O     O_3   0.113025 0.722928 0.068393 -0.622326
C34   C     C_3   0.230842 0.785573 0.123732 0.060812
H28   H     H_    0.264233 0.691816 0.156961 0.178155
H29   H     H_    0.159065 0.859061 0.172208 0.144040
C35   C     C_3   0.417869 0.886981 0.071222 -0.341274
H30   H     H_    0.474193 0.827490 0.011115 0.228127
H31   H     H_    0.389202 0.996903 0.052882 0.210725
C36   C     C_3   0.569219 0.923963 0.122697 -0.933981
H32   H     H_    0.615878 0.818557 0.133601 0.265254
H33   H     H_    0.512484 0.969157 0.187077 0.241652
H34   H     H_    0.695357 0.011106 0.086833 0.259888
F1    F     F_    0.758553 0.052666 0.475112 -0.668246
F2    F     F_    0.244594 0.947728 0.515873 -0.662049
F3    F     F_    0.986764 0.584492 0.599190 -0.546833
F4    F     F_    0.012706 0.414946 0.401095 -0.543215

loop_
_geom_bond_atom_site_label_1
_geom_bond_atom_site_label_2
_ccdc_geom_bond_type
C31   H22   S    
C28   H14   S    
C10   O8    A    
C7    C8    D    
C26   H10   S    
C13   O11   S    
C34   H28   S    
C19   C21   A    
C33   H27   S    
C31   C32   S    
C29   H17   S    
C6    C22   A    
C9    O5    A    
C10   O6    A    
C32   H24   S    
C20   C24   A    
C5    H1    S    
C11   C15   A    
C7    F1    S    
C26   H9    S    
C27   H12   S    
C23   C24   A    
C25   C26   S    
C1    O3    A    
Cu1   N2    S    
C29   C30   S    
C31   H21   S    
C3    C24   A    
C30   H18   S    
C35   C36   S    
C25   H8    S    
C27   H11   S    
C26   C27   S    
C34   H29   S    
C6    H2    S    
C27   H13   S    
C12   C16   A    
O12   C34   S    
C33   H26   S    
C4    C23   A    
C33   H25   S    
Cu1   Cu2   S    
Cu2   O2    S    
C8    F2    S    
C14   O12   S    
C30   H20   S    
C19   C23   A    
O9    C25   S    
N2    F4    S    
N1    F3    S    
Cu1   O4    S    
C2    O4    A    
Cu2   N1    S    
C36   H32   S    
C30   H19   S    
N1    N2    D    
C13   C21   A    
C3    H5    S    
C9    C11   S    
C4    H6    S    
C10   C12   S    
Cu1   O1    S    
C4    C6    A    
C36   H33   S    
C20   C22   A    
C13   C15   A    
C14   C16   A    
C32   C33   S    
C25   H7    S    
C1    O1    A    
C15   H4    S    
C34   C35   S    
C2    O2    A    
O10   C28   S    
C11   C17   A    
C1    C7    S    
C2    C8    S    
C35   H30   S    
C3    C5    A    
Cu1   O8    S    
Cu2   O3    S    
C9    O7    A    
C14   C22   A    
C28   H15   S    
C29   H16   S    
C18   O9    S    
Cu1   O5    S    
Cu2   O6    S    
C17   C19   A    
C35   H31   S    
C18   C20   A    
C32   H23   S    
C36   H34   S    
C5    C21   A    
C16   H3    S    
O11   C31   S    
C28   C29   S    
C12   C18   A    
C17   O10   S    
Cu2   O7    S    
