data_mof_unit_51324.cif
_audit_creation_date              2012-12-10T19:04:55-0500
_audit_creation_method            fapswitch 2.2
_symmetry_space_group_name_H-M    P1
_symmetry_Int_Tables_number       1
_space_group_crystal_system       triclinic
_cell_length_a                    13.054633
_cell_length_b                    13.627804
_cell_length_c                    15.78033
_cell_angle_alpha                 90.282695
_cell_angle_beta                  92.41866
_cell_angle_gamma                 85.693663
_cell_volume                      2796.9909284

loop_
_atom_site_label
_atom_site_type_symbol
_atom_type_description
_atom_site_fract_x
_atom_site_fract_y
_atom_site_fract_z
_atom_type_partial_charge
C1    C     C_R   0.481156 0.685031 0.499798 0.905791
C2    C     C_2   0.537921 0.022384 0.479689 -0.025164
C3    C     C_2   0.453210 0.979524 0.502248 -0.025203
C4    C     C_R   0.499119 0.500409 0.661649 0.902571
C5    C     C_1   0.456260 0.875189 0.502188 -0.028913
C6    C     C_1   0.540774 0.125548 0.487082 -0.057087
C7    C     C_1   0.465856 0.787920 0.501213 -0.167652
C8    C     C_2   0.035365 0.461479 0.486983 -0.097615
C9    C     C_2   0.965701 0.531423 0.517821 -0.101805
C10   C     C_1   0.854196 0.521497 0.515170 0.083432
C11   C     C_1   0.146292 0.475900 0.486692 0.088528
C12   C     C_3   0.410401 0.545815 0.050245 -0.092147
C13   C     C_R   0.518869 0.315013 0.500349 0.892520
C14   C     C_R   0.500967 0.499510 0.338291 0.910991
C15   C     C_3   0.410805 0.559240 0.948230 -0.087461
C16   C     C_3   0.616829 0.523614 0.950589 -0.061173
C17   C     C_3   0.616822 0.529162 0.054778 -0.070434
C18   C     C_1   0.504524 0.491497 0.250432 -0.183566
C19   C     C_3   0.506084 0.483326 0.916089 0.066900
C20   C     C_1   0.392887 0.639580 0.097471 0.166007
C21   C     C_1   0.308282 0.532965 0.912679 0.167229
C22   C     C_1   0.315879 0.503897 0.080139 0.182701
C23   C     C_3   0.513410 0.478811 0.083906 0.036556
C24   C     C_R   0.601954 0.296565 0.097101 0.110767
C25   C     C_R   0.594896 0.270169 0.185098 -0.158720
C26   C     C_R   0.670647 0.211058 0.229728 -0.146211
C27   C     C_R   0.757226 0.173349 0.189502 -0.091857
C28   C     C_R   0.767044 0.193540 0.104430 -0.139713
C29   C     C_R   0.691095 0.252315 0.059405 -0.157518
C30   C     C_R   0.358542 0.035146 0.531757 0.142306
C31   C     C_R   0.308099 0.111401 0.482541 -0.134338
C32   C     C_R   0.219946 0.163455 0.511346 -0.109248
C33   C     C_R   0.179898 0.138666 0.588408 -0.130824
C34   C     C_3   0.509370 0.364703 0.050676 -0.052832
C35   C     C_R   0.228422 0.061973 0.637129 -0.148407
C36   C     C_R   0.317202 0.010265 0.608927 -0.141716
C37   C     C_1   0.629316 0.967226 0.450995 0.188137
C38   C     C_1   0.999621 0.622220 0.552975 0.196461
C39   C     C_R   0.002686 0.366249 0.452911 0.134801
C40   C     C_R   0.034653 0.332461 0.373238 -0.191401
C41   C     C_R   0.005622 0.242205 0.341420 -0.165817
C42   C     C_R   0.945265 0.184584 0.389085 -0.105066
C43   C     C_R   0.914238 0.216825 0.468815 -0.130132
C44   C     C_R   0.943199 0.306908 0.500943 -0.159821
C45   C     C_3   0.489802 0.367007 0.944869 -0.055960
C46   C     C_R   0.409010 0.668032 0.908417 0.109293
C47   C     C_R   0.374563 0.684386 0.821648 -0.111847
C48   C     C_R   0.365756 0.777439 0.784226 -0.144694
C49   C     C_R   0.390174 0.859405 0.831087 -0.115059
C50   C     C_R   0.424997 0.847905 0.914891 -0.115389
C51   C     C_R   0.435213 0.754697 0.952308 -0.109349
C52   C     C_R   0.713283 0.470930 0.903905 0.087114
C53   C     C_R   0.732178 0.497452 0.818072 -0.140036
C54   C     C_R   0.814363 0.454844 0.773417 -0.133453
C55   C     C_R   0.883816 0.385493 0.812170 -0.118439
C56   C     C_1   0.509745 0.483203 0.175948 -0.055296
C57   C     C_R   0.872043 0.360376 0.896044 -0.127998
C58   C     C_R   0.789819 0.402946 0.940920 -0.155658
C59   C     C_1   0.625976 0.626651 0.920746 0.134139
C60   C     C_1   0.608043 0.632485 0.088655 0.171675
C61   C     C_R   0.725508 0.503673 0.098796 0.077664
C62   C     C_R   0.744918 0.448423 0.174181 -0.108507
C63   C     C_R   0.843669 0.432671 0.211567 -0.135534
C64   C     C_R   0.926133 0.475453 0.177567 -0.115682
C65   C     C_R   0.909338 0.536909 0.107604 -0.121258
C66   C     C_R   0.810687 0.552939 0.070195 -0.136187
C67   C     C_1   0.501280 0.489822 0.824644 -0.074780
C68   C     C_R   0.382136 0.335722 0.900296 0.099522
C69   C     C_R   0.288318 0.321425 0.940164 -0.130300
C70   C     C_R   0.202768 0.285792 0.897066 -0.118010
C71   C     C_R   0.204739 0.264843 0.811160 -0.122890
C72   C     C_R   0.292090 0.280365 0.767910 -0.128143
C73   C     C_R   0.378018 0.314510 0.810901 -0.094512
C74   C     C_R   0.558024 0.278796 0.907688 0.078133
C75   C     C_R   0.540451 0.182044 0.935212 -0.128224
C76   C     C_R   0.593953 0.098436 0.902922 -0.137174
C77   C     C_R   0.663375 0.107558 0.839527 -0.115688
C78   C     C_1   0.498668 0.495725 0.749651 -0.245237
C79   C     C_R   0.676987 0.199974 0.806702 -0.141929
C80   C     C_R   0.623485 0.283831 0.838751 -0.169464
C81   C     C_1   0.423095 0.317304 0.088177 0.112583
C82   C     C_1   0.533929 0.212474 0.493986 -0.192675
H1    H     H_    0.530278 0.296192 0.221713 0.144903
H2    H     H_    0.354353 0.951439 0.647498 0.120393
H3    H     H_    0.081737 0.376111 0.335675 0.138370
H4    H     H_    0.029902 0.216992 0.279769 0.142755
H5    H     H_    0.923050 0.114662 0.364502 0.131591
H6    H     H_    0.868237 0.171711 0.505998 0.137022
H7    H     H_    0.920234 0.329742 0.563623 0.119437
H8    H     H_    0.349608 0.625295 0.781927 0.149292
H9    H     H_    0.338420 0.785792 0.718743 0.133966
H10   H     H_    0.382975 0.931729 0.802482 0.126552
H11   H     H_    0.446429 0.911449 0.951039 0.127653
H12   H     H_    0.661890 0.194834 0.296033 0.141572
H13   H     H_    0.471827 0.753946 0.013231 0.159522
H14   H     H_    0.683225 0.552455 0.783894 0.164051
H15   H     H_    0.824244 0.476351 0.708492 0.141409
H16   H     H_    0.947693 0.352520 0.777747 0.121171
H17   H     H_    0.927708 0.308160 0.927239 0.122316
H18   H     H_    0.791965 0.381916 0.005435 0.154989
H19   H     H_    0.686061 0.419346 0.208254 0.157380
H20   H     H_    0.855382 0.388697 0.268484 0.160507
H21   H     H_    0.002449 0.463348 0.206827 0.139835
H22   H     H_    0.972648 0.572981 0.082533 0.151607
H23   H     H_    0.816131 0.127606 0.223882 0.124974
H24   H     H_    0.801045 0.603149 0.017166 0.150753
H25   H     H_    0.271635 0.346307 0.001602 0.168696
H26   H     H_    0.133034 0.277619 0.930334 0.125758
H27   H     H_    0.138025 0.238296 0.777902 0.113106
H28   H     H_    0.294188 0.265044 0.700622 0.150865
H29   H     H_    0.443231 0.320063 0.772397 0.134531
H30   H     H_    0.485616 0.171228 0.983126 0.147208
H31   H     H_    0.581098 0.026380 0.926943 0.136320
H32   H     H_    0.704513 0.042752 0.814214 0.137269
H33   H     H_    0.727357 0.206662 0.754590 0.138697
H34   H     H_    0.833876 0.162716 0.072423 0.130210
H35   H     H_    0.630307 0.349771 0.804745 0.165705
H36   H     H_    0.706655 0.258852 0.994625 0.162224
H37   H     H_    0.336937 0.130576 0.421921 0.138472
H38   H     H_    0.182841 0.223023 0.473842 0.156607
H39   H     H_    0.111538 0.179078 0.610482 0.128142
H40   H     H_    0.197564 0.042891 0.696960 0.135877
N1    N     N_1   0.234540 0.484780 0.486630 -0.089469
N2    N     N_1   0.360805 0.277170 0.121750 -0.218743
N3    N     N_1   0.765460 0.515220 0.513370 -0.092648
N4    N     N_1   0.376426 0.710720 0.136791 -0.194498
N5    N     N_1   0.227609 0.517783 0.884376 -0.190042
N6    N     N_1   0.241329 0.475915 0.105587 -0.220138
N7    N     N_1   0.702309 0.923242 0.428064 -0.198985
N8    N     N_1   0.026801 0.694890 0.581149 -0.197161
N9    N     N_1   0.638188 0.705004 0.896771 -0.203800
N10   N     N_1   0.607011 0.710899 0.117555 -0.198654
O1    O     O_R   0.402510 0.634760 0.495110 -0.605711
O2    O     O_R   0.572960 0.644530 0.503690 -0.595555
O3    O     O_R   0.414740 0.495110 0.618560 -0.609122
O4    O     O_R   0.585180 0.504880 0.627150 -0.621386
O5    O     O_R   0.427040 0.355470 0.496310 -0.609446
O6    O     O_R   0.597490 0.365240 0.504890 -0.613557
O7    O     O_R   0.414820 0.495120 0.372850 -0.601778
O8    O     O_R   0.585260 0.504890 0.381440 -0.609136
Zn1   Zn    Zn3+2 0.386190 0.493480 0.494270 0.979975
Zn2   Zn    Zn3+2 0.613810 0.506520 0.505730 0.973539

loop_
_geom_bond_atom_site_label_1
_geom_bond_atom_site_label_2
_ccdc_geom_bond_type
C26   H12   S    
C64   H21   S    
C6    C82   T    
C79   H33   S    
C41   C42   A    
C14   C18   S    
C35   C36   A    
C43   C44   A    
C60   N10   T    
C69   H25   S    
C23   C56   S    
C53   C54   A    
C20   N4    T    
C41   H4    S    
C12   C23   S    
C59   N9    T    
C26   C27   A    
C17   C23   S    
C43   H6    S    
C38   N8    T    
C28   C29   A    
O8    Zn2   S    
C8    C11   S    
C30   C31   A    
C27   H23   S    
C57   H17   S    
C12   C22   S    
C46   C47   A    
C24   C29   A    
O4    Zn2   S    
C28   H34   S    
C17   C61   S    
C54   C55   A    
C61   C66   A    
C47   C48   A    
C68   C69   A    
C48   H9    S    
C54   H15   S    
C19   C67   S    
C70   C71   A    
C8    C39   S    
C21   N5    T    
C10   N3    T    
C9    C10   S    
C61   C62   A    
C18   C56   T    
C4    O4    A    
C62   H19   S    
C74   C80   A    
C53   H14   S    
C33   H39   S    
N1    Zn1   S    
C2    C6    S    
C67   C78   T    
C66   H24   S    
C63   H20   S    
C1    O1    A    
C71   H27   S    
C73   H29   S    
C77   C79   A    
C72   H28   S    
C74   C75   A    
C81   N2    T    
C58   H18   S    
C76   C77   A    
O6    Zn2   S    
C39   C40   A    
C5    C7    T    
C8    C9    D    
C25   C26   A    
C13   C82   S    
C24   C34   S    
C63   C64   A    
C32   C33   A    
C45   C74   S    
C16   C59   S    
C13   O5    A    
C40   H3    S    
C3    C30   S    
C15   C19   S    
C75   C76   A    
C4    C78   S    
C62   C63   A    
O2    Zn2   S    
C22   N6    T    
C31   C32   A    
C12   C15   S    
O3    Zn1   S    
N3    Zn2   S    
C23   C34   S    
C12   C20   S    
C45   C68   S    
C50   C51   A    
C75   H30   S    
C34   C45   S    
C24   C25   A    
C31   H37   S    
C52   C58   A    
C4    O3    A    
C48   C49   A    
C34   C81   S    
C14   O8    A    
C49   C50   A    
C55   C57   A    
C47   H8    S    
C42   C43   A    
C49   H10   S    
C1    O2    A    
C52   C53   A    
O5    Zn1   S    
C80   H35   S    
C40   C41   A    
C1    C7    S    
C35   H40   S    
C11   N1    T    
C16   C52   S    
C72   C73   A    
C3    C5    S    
C19   C45   S    
C50   H11   S    
C39   C44   A    
C29   H36   S    
O1    Zn1   S    
C15   C46   S    
C30   C36   A    
C13   O6    A    
C76   H31   S    
C2    C3    D    
C68   C73   A    
C71   C72   A    
C70   H26   S    
C64   C65   A    
O7    Zn1   S    
C2    C37   S    
C57   C58   A    
C16   C17   S    
C36   H2    S    
C16   C19   S    
C46   C51   A    
C55   H16   S    
C9    C38   S    
C33   C35   A    
C37   N7    T    
C69   C70   A    
C17   C60   S    
C79   C80   A    
C15   C21   S    
C14   O7    A    
C65   C66   A    
C27   C28   A    
C25   H1    S    
C42   H5    S    
C65   H22   S    
C32   H38   S    
C44   H7    S    
C77   H32   S    
C51   H13   S    
