data_mof_unit_49810.cif
_audit_creation_date              2013-03-05T15:57:37-0500
_audit_creation_method            fapswitch 2.2
_symmetry_space_group_name_H-M    P1
_symmetry_Int_Tables_number       1
_space_group_crystal_system       triclinic
_cell_length_a                    15.142176
_cell_length_b                    15.061137
_cell_length_c                    15.162932
_cell_angle_alpha                 108.865015
_cell_angle_beta                  110.164906
_cell_angle_gamma                 110.044683
_cell_volume                      2639.74948066

loop_
_atom_site_label
_atom_site_type_symbol
_atom_site_description
_atom_site_fract_x
_atom_site_fract_y
_atom_site_fract_z
_atom_type_partial_charge
C1    C     C_R   0.908894 0.917652 0.714063 -0.144847
H1    H     H_    0.825377 0.863415 0.688803 0.094480
N1    N     N_R   0.941940 0.944580 0.650780 -0.041041
C2    C     C_R   0.093334 0.299487 0.498194 -0.139815
H2    H     H_    0.177630 0.353620 0.525300 0.122645
N2    N     N_R   0.056800 0.208900 0.502740 -0.051753
C3    C     C_R   0.246829 0.222096 0.811329 -0.039160
H3    H     H_    0.257555 0.203589 0.875987 0.102030
N3    N     N_R   0.204460 0.150250 0.707090 -0.043005
C4    C     C_R   0.735168 0.049197 0.457754 0.329706
N4    N     N_R   0.794270 0.003240 0.446420 -0.085095
C5    C     C_R   0.247914 0.312598 0.719347 -0.117738
H4    H     H_    0.258021 0.375185 0.697428 0.091483
N5    N     N_R   0.204920 0.207570 0.650770 -0.044779
C6    C     C_R   0.747947 0.968830 0.560102 -0.160959
H5    H     H_    0.735475 0.935703 0.610918 0.130853
N6    N     N_R   0.793810 0.945920 0.502740 -0.061783
C7    C     C_R   0.911349 0.211250 0.408580 -0.104438
H6    H     H_    0.828433 0.185709 0.353522 0.171647
N7    N     N_R   0.943620 0.152590 0.446420 -0.055072
C8    C     C_R   0.091472 0.006300 0.802206 -0.159501
H7    H     H_    0.174528 0.029191 0.854222 0.110062
N8    N     N_R   0.055110 0.000900 0.707100 -0.046514
C9    C     C_R   0.002184 0.960000 0.810963 0.115560
C10   C     C_R   0.004091 0.302527 0.440109 0.072459
C11   C     C_R   0.272532 0.323593 0.820131 0.136820
C12   C     C_R   0.707514 0.030501 0.531094 -0.111357
C13   C     C_R   0.704004 0.693868 0.284028 -0.117276
H8    H     H_    0.673640 0.636436 0.309303 0.092660
N9    N     N_R   0.795080 0.792430 0.349230 -0.045735
C14   C     C_R   0.300581 0.088291 0.498895 -0.175802
H9    H     H_    0.329336 0.142668 0.470142 0.130306
N10   N     N_R   0.206190 0.054080 0.497260 -0.047837
C15   C     C_R   0.091164 0.779053 0.528522 -0.127869
H10   H     H_    0.175619 0.800253 0.562079 0.132058
N11   N     N_R   0.056380 0.847410 0.553580 -0.052870
C16   C     C_R   0.909159 0.943786 0.187668 -0.118621
H11   H     H_    0.825553 0.903070 0.122933 0.116892
N12   N     N_R   0.944890 0.999100 0.292900 -0.048554
C17   C     C_R   0.091989 0.024659 0.281956 -0.004439
H12   H     H_    0.176287 0.054007 0.303647 0.141888
N13   N     N_R   0.058060 0.055420 0.349220 -0.053582
C18   C     C_R   0.907500 0.684887 0.443274 -0.108211
H13   H     H_    0.823510 0.619362 0.399928 0.115610
N14   N     N_R   0.943200 0.791100 0.497260 -0.054514
C19   C     C_R   0.705058 0.787184 0.195296 -0.071991
H14   H     H_    0.677863 0.815403 0.139931 0.110042
N15   N     N_R   0.795540 0.849750 0.292910 -0.048727
C20   C     C_R   0.298822 0.997872 0.590426 -0.084144
H15   H     H_    0.326476 0.971029 0.647145 0.118212
N16   N     N_R   0.205730 0.996760 0.553580 -0.047863
Ni1   Ni    Ni4+2 0.869690 0.869690 0.500000 0.206351
Ni2   Ni    Ni4+2 0.130310 0.130310 0.500000 0.231042
Ni3   Ni    Ni4+2 0.129250 0.998840 0.629170 0.233158
Ni4   Ni    Ni4+2 0.870750 0.001160 0.370830 0.260675
C21   C     C_R   0.646841 0.688959 0.187483 0.118827
C22   C     C_R   0.358010 0.052637 0.555767 0.071558
C23   C     C_R   0.999707 0.676428 0.462900 0.172094
C24   C     C_R   0.000892 0.959269 0.179324 0.068071
H16   H     H_    0.465345 0.539377 0.360863 0.119960
C25   C     C_R   0.482246 0.674100 0.332685 -0.126723
H17   H     H_    0.469716 0.632443 0.252721 0.124405
C26   C     C_R   0.500769 0.780357 0.374943 -0.097486
H18   H     H_    0.502829 0.820334 0.327160 0.135834
C27   C     C_R   0.515905 0.834309 0.478382 0.083130
C28   C     C_R   0.511114 0.780173 0.538209 -0.115112
H19   H     H_    0.521805 0.820341 0.617761 0.157995
C29   C     C_R   0.493552 0.674357 0.496001 -0.054160
H20   H     H_    0.490696 0.633295 0.542711 0.126103
C30   C     C_R   0.479236 0.621398 0.393368 -0.128500
C31   C     C_R   0.451834 0.957180 0.536440 -0.228811
H21   H     H_    0.379945 0.884813 0.514068 0.157349
C32   C     C_R   0.456428 0.056974 0.566599 0.088674
C33   C     C_R   0.547520 0.151740 0.594587 0.093643
C34   C     C_R   0.632569 0.142041 0.586545 -0.120164
H22   H     H_    0.704426 0.213278 0.607521 0.143122
C35   C     C_R   0.623080 0.039423 0.547131 0.099789
C36   C     C_R   0.532905 0.946018 0.523307 0.012828
C37   C     C_R   0.559433 0.303789 0.558516 -0.189556
H23   H     H_    0.575318 0.269400 0.495161 0.183566
C38   C     C_R   0.541257 0.390507 0.569295 -0.086100
H24   H     H_    0.546481 0.424375 0.517015 0.119173
C39   C     C_R   0.512058 0.430644 0.644346 -0.139138
H25   H     H_    0.495074 0.495936 0.650596 0.135161
C40   C     C_R   0.505189 0.387112 0.711817 -0.229134
H26   H     H_    0.482129 0.419352 0.769251 0.152811
C41   C     C_R   0.529080 0.303817 0.706436 0.377659
C42   C     C_R   0.550785 0.257556 0.624451 -0.063256
H27   H     H_    0.706524 0.020000 0.956155 0.127195
C43   C     C_R   0.866941 0.139552 0.096742 -0.125859
H28   H     H_    0.906142 0.098254 0.069070 0.130774
C44   C     C_R   0.928873 0.236825 0.196247 -0.119231
H29   H     H_    0.016020 0.269889 0.244705 0.153354
C45   C     C_R   0.878475 0.290869 0.233036 0.153390
C46   C     C_R   0.765297 0.246130 0.168102 -0.044891
H30   H     H_    0.724486 0.285533 0.195304 0.134980
C47   C     C_R   0.703690 0.148808 0.068588 -0.056485
H31   H     H_    0.616443 0.114395 0.019255 0.128960
C48   C     C_R   0.754420 0.095489 0.033037 -0.093648
C49   C     C_R   0.941359 0.486441 0.350350 0.697530
C50   C     C_R   0.004191 0.580901 0.452742 -0.159949
C51   C     C_R   0.071828 0.584146 0.546577 0.049102
C52   C     C_R   0.075276 0.492176 0.536001 -0.146099
H32   H     H_    0.123499 0.492907 0.608745 0.128651
C53   C     C_R   0.010149 0.396923 0.435639 -0.021312
C54   C     C_R   0.943635 0.392137 0.340653 -0.182860
C55   C     C_R   0.248832 0.737868 0.722082 0.336222
C56   C     C_R   0.300722 0.821028 0.830107 -0.214769
H33   H     H_    0.389167 0.868443 0.879976 0.165803
C57   C     C_R   0.239399 0.844793 0.874579 -0.153611
H34   H     H_    0.280363 0.908983 0.957768 0.133311
C58   C     C_R   0.125460 0.785703 0.812208 -0.101216
H35   H     H_    0.078267 0.803266 0.847420 0.133539
C59   C     C_R   0.072203 0.703028 0.704913 -0.169062
H36   H     H_    0.983534 0.657176 0.658007 0.127853
C60   C     C_R   0.132559 0.678072 0.658685 -0.027456
C61   C     C_2   0.372669 0.521912 0.928095 -0.115988
C62   C     C_2   0.325282 0.424648 0.920465 -0.188832
H37   H     H_    0.352551 0.530803 0.856756 0.129203
H38   H     H_    0.341841 0.418948 0.992660 0.142090
C63   C     C_2   0.470124 0.615389 0.029688 -0.115304
C64   C     C_2   0.538754 0.600289 0.099234 -0.245800
H39   H     H_    0.492686 0.695964 0.039399 0.146055
H40   H     H_    0.519394 0.519933 0.088627 0.154822
H41   H     H_    0.430387 0.435840 0.174893 0.096305
C65   C     C_R   0.374886 0.266023 0.120280 -0.075649
H42   H     H_    0.456462 0.278052 0.150237 0.121717
C66   C     C_R   0.284693 0.162098 0.071003 -0.130127
H43   H     H_    0.297604 0.094668 0.066193 0.104569
C67   C     C_R   0.178650 0.146146 0.032847 0.185190
C68   C     C_R   0.164009 0.235485 0.044524 -0.068498
H44   H     H_    0.083331 0.225240 0.019442 0.109330
C69   C     C_R   0.254776 0.339802 0.095965 -0.124599
H45   H     H_    0.243749 0.409154 0.107322 0.126422
C70   C     C_R   0.360126 0.355055 0.134543 -0.138184
C71   C     C_R   0.085971 0.042396 0.097068 0.674423
C72   C     C_R   0.006792 0.949302 0.084539 -0.163201
C73   C     C_R   0.927850 0.856654 0.981594 -0.018586
C74   C     C_R   0.927495 0.860880 0.891349 -0.267068
H46   H     H_    0.865667 0.791247 0.810983 0.141721
C75   C     C_R   0.007614 0.954357 0.904903 -0.026212
C76   C     C_R   0.089799 0.044223 0.008904 -0.180435
C77   C     C_R   0.874227 0.702902 0.019525 -0.156557
H47   H     H_    0.959449 0.726557 0.063025 0.123468
C78   C     C_R   0.795579 0.618499 0.017717 -0.073502
H48   H     H_    0.819786 0.576424 0.058347 0.162858
C79   C     C_R   0.686026 0.589906 0.965362 -0.074428
H49   H     H_    0.625591 0.525587 0.965461 0.156157
C80   C     C_R   0.654549 0.644436 0.913191 -0.133624
H50   H     H_    0.569759 0.622905 0.873546 0.131296
C81   C     C_R   0.732577 0.727466 0.912978 -0.175279
H51   H     H_    0.707577 0.770682 0.874308 0.129448
C82   C     C_R   0.843296 0.758516 0.967867 0.160925
N17   N     N_R   0.530626 0.267171 0.783512 0.223856
O1    O     O_R   0.591586 0.226244 0.810670 -0.408233
O2    O     O_R   0.481592 0.286417 0.836621 -0.438723
F1    F     F_    0.880202 0.487447 0.261050 -0.711144
N18   N     N_R   0.314882 0.716597 0.678468 0.218728
O3    O     O_R   0.413611 0.742192 0.743103 -0.458031
O4    O     O_R   0.281473 0.681384 0.575977 -0.435098
N19   N     N_R   0.677394 0.070312 0.377589 0.216019
O5    O     O_R   0.652317 0.015708 0.277857 -0.449315
O6    O     O_R   0.646566 0.140870 0.401936 -0.456966
F2    F     F_    0.154924 0.137039 0.194548 -0.724792

loop_
_geom_bond_atom_site_label_1
_geom_bond_atom_site_label_2
_geom_bond_distance
_ccdc_geom_bond_type
C25   C30   1.398276 A    
C4    C12   1.390678 A    
N15   Ni4   1.855493 S    
C28   C29   1.397406 A    
C41   C42   1.420346 A    
C26   C27   1.404667 A    
C50   C51   1.411305 A    
C32   C33   1.405338 A    
N1    N8    1.382580 A    
C46   H30   1.083062 S    
N3    N5    1.396911 A    
C66   H43   1.083037 S    
C58   C59   1.394522 A    
C2    C10   1.360814 A    
C13   C21   1.382116 A    
C73   C74   1.388530 A    
C10   C53   1.418270 S    
C3    H3    1.078546 S    
C35   C36   1.410147 A    
C65   H42   1.082356 S    
C3    C11   1.389420 A    
H27   C48   1.082755 S    
N9    N15   1.396910 A    
C13   H8    1.081537 S    
C79   C80   1.398570 A    
C1    H1    1.081124 S    
C80   C81   1.397204 A    
N13   Ni2   1.859609 S    
C78   H48   1.082348 S    
N1    Ni1   1.859607 S    
C77   C82   1.405270 A    
C80   H50   1.082290 S    
C24   C72   1.433289 S    
C66   C67   1.405686 A    
C77   H47   1.083173 S    
C47   H31   1.082629 S    
C20   C22   1.363101 A    
C56   H33   1.082737 S    
C6    N6    1.320794 A    
C15   H10   1.078273 S    
C22   C32   1.417647 S    
C25   C26   1.398437 A    
C61   C63   1.462462 S    
C57   H34   1.082298 S    
C37   C42   1.406946 A    
C71   C76   1.366505 A    
C18   C23   1.383550 A    
C78   C79   1.395990 A    
C6    C12   1.378175 A    
C49   F1    1.359999 S    
N12   Ni4   1.890064 S    
C79   H49   1.081685 S    
C29   H20   1.082608 S    
C20   N16   1.316897 A    
C81   H51   1.083259 S    
C14   N10   1.330945 A    
N17   O2    1.301003 A    
H41   C70   1.081241 S    
C17   N13   1.318213 A    
C28   H19   1.083302 S    
C72   C73   1.405043 A    
C17   C24   1.375536 A    
C8    H7    1.079660 S    
N18   O4    1.301291 A    
C25   H17   1.080559 S    
C7    C10   1.370861 A    
N7    Ni4   1.856159 S    
N6    Ni1   1.883192 S    
C58   H35   1.080272 S    
N19   O6    1.299487 A    
N19   O5    1.301210 A    
N12   N13   1.382581 A    
C57   C58   1.393294 A    
C40   C41   1.405922 A    
N10   Ni2   1.883194 S    
C19   N15   1.330700 A    
C33   C34   1.385787 A    
N11   Ni3   1.856159 S    
C2    N2    1.319821 A    
C47   C48   1.397849 A    
C31   C32   1.391007 A    
C7    H6    1.076970 S    
N14   Ni1   1.882820 S    
C68   C69   1.397853 A    
C40   H26   1.080978 S    
C38   H24   1.082552 S    
C37   H23   1.082544 S    
C5    C11   1.379486 A    
C1    N1    1.333869 A    
C21   C64   1.445291 S    
C34   H22   1.084738 S    
C16   H11   1.078919 S    
C18   N14   1.332895 A    
C43   C44   1.398383 A    
C39   H25   1.082610 S    
H16   C30   1.081609 S    
C9    C75   1.430128 S    
C55   C56   1.407276 A    
C44   C45   1.407753 A    
C63   C64   1.343588 D    
C41   N17   1.441576 S    
N11   N14   1.382707 A    
C52   C53   1.389295 A    
C23   C50   1.424493 S    
C15   C23   1.372951 A    
C34   C35   1.399194 A    
N17   O1    1.301419 A    
C16   C24   1.384933 A    
C73   C82   1.478950 S    
C17   H12   1.078268 S    
C39   C40   1.395607 A    
C5    N5    1.330773 A    
C65   C70   1.395010 A    
C20   H15   1.082148 S    
C4    N19   1.432314 S    
C8    N8    1.317357 A    
C18   H13   1.080382 S    
N18   O3    1.301743 A    
N2    Ni2   1.882821 S    
C64   H40   1.083940 S    
C68   H44   1.083223 S    
C43   C48   1.397175 A    
C55   N18   1.441838 S    
N4    Ni4   1.890132 S    
N8    Ni3   1.890064 S    
C37   C38   1.395587 A    
C71   F2    1.363828 S    
C77   C78   1.397185 A    
N9    Ni1   1.858648 S    
C19   H14   1.080420 S    
C45   C54   1.487076 S    
C65   C66   1.395770 A    
C27   C36   1.483934 S    
C14   H9    1.080622 S    
C11   C62   1.449293 S    
C71   C72   1.399206 A    
C12   C35   1.422250 S    
N4    N6    1.396910 A    
C38   C39   1.393262 A    
C59   C60   1.405221 A    
C74   H46   1.084094 S    
C46   C47   1.399098 A    
C59   H36   1.083434 S    
N10   N16   1.396910 A    
N2    N7    1.382705 A    
C53   C54   1.406036 A    
C49   C54   1.393607 A    
N16   Ni3   1.890132 S    
C14   C22   1.375047 A    
C61   H37   1.084088 S    
C67   C68   1.403019 A    
C31   H21   1.086718 S    
C16   N12   1.330019 A    
C75   C76   1.406936 A    
C74   C75   1.402239 A    
C43   H28   1.082266 S    
C69   H45   1.082419 S    
C13   N9    1.338082 A    
C44   H29   1.083342 S    
C15   N11   1.318510 A    
C56   C57   1.395901 A    
C7    N7    1.333787 A    
C81   C82   1.403916 A    
C51   C52   1.363389 A    
C67   C76   1.478330 S    
C62   H38   1.074632 S    
C55   C60   1.421711 A    
C63   H39   1.084746 S    
C51   C60   1.487240 S    
C4    N4    1.327888 A    
C26   H18   1.083179 S    
C3    N3    1.341515 A    
C2    H2    1.082188 S    
N5    Ni2   1.858645 S    
C5    H4    1.077597 S    
C1    C9    1.380751 A    
C29   C30   1.396844 A    
C27   C28   1.405749 A    
C8    C9    1.367189 A    
C19   C21   1.378544 A    
C52   H32   1.086879 S    
C69   C70   1.399368 A    
C49   C50   1.401780 A    
N3    Ni3   1.855493 S    
C33   C42   1.487043 S    
C61   C62   1.336730 D    
C45   C46   1.405868 A    
C31   C36   1.365007 A    
C6    H5    1.078261 S    
