data_mof_unit_49794.cif
_audit_creation_date              2012-12-10T20:57:59-0500
_audit_creation_method            fapswitch 2.2
_symmetry_space_group_name_H-M    P1
_symmetry_Int_Tables_number       1
_space_group_crystal_system       triclinic
_cell_length_a                    18.204462
_cell_length_b                    18.245408
_cell_length_c                    18.380068
_cell_angle_alpha                 120.076469
_cell_angle_beta                  89.938654
_cell_angle_gamma                 119.928847
_cell_volume                      4318.76798006

loop_
_atom_site_label
_atom_site_type_symbol
_atom_type_description
_atom_site_fract_x
_atom_site_fract_y
_atom_site_fract_z
_atom_type_partial_charge
C1    C     C_R   0.358463 0.220077 0.361039 0.789663
C2    C     C_3   0.277612 0.579112 0.360185 -0.386779
C3    C     C_3   0.300096 0.500610 0.302214 0.209023
C4    C     C_3   0.197852 0.500217 0.200658 0.208898
C5    C     C_3   0.150437 0.391226 0.181302 -0.401688
C6    C     C_3   0.217989 0.579025 0.300979 -0.389664
C7    C     C_3   0.676205 0.941006 0.655444 -0.408227
C8    C     C_3   0.733310 0.060839 0.717600 -0.400224
C9    C     C_3   0.685104 0.938976 0.792984 -0.033328
C10   C     C_3   0.799626 0.941207 0.715648 -0.442892
C11   C     C_3   0.698456 0.897666 0.699702 0.191312
C12   C     C_R   0.640937 0.781038 0.640207 0.753148
C13   C     C_3   0.799727 0.102651 0.803366 0.191567
C14   C     C_3   0.744983 0.059737 0.853529 -0.445198
C15   C     C_3   0.858562 0.060616 0.775225 -0.392195
C16   C     C_3   0.638855 0.422341 0.201374 -0.387758
C17   C     C_3   0.698107 0.422520 0.141983 -0.391954
C18   C     C_3   0.760147 0.609346 0.322130 -0.402932
C19   C     C_3   0.756671 0.467211 0.317705 -0.402382
C20   C     C_3   0.697808 0.499771 0.301465 0.216057
C21   C     C_3   0.799080 0.499667 0.199883 0.216044
C22   C     C_3   0.819875 0.609312 0.262323 -0.399255
C23   C     C_R   0.359027 0.500328 0.640510 0.793727
C24   C     C_3   0.816232 0.466970 0.257730 -0.402826
C25   C     C_R   0.309387 0.172290 0.588952 0.283206
C26   C     C_R   0.312766 0.127103 0.501757 -0.179202
C27   C     C_R   0.249845 0.099476 0.432467 0.125161
C28   C     C_R   0.182179 0.115222 0.449987 -0.167245
C29   C     C_R   0.176838 0.157256 0.535823 -0.198650
C30   C     C_R   0.239339 0.184556 0.604679 -0.131128
C31   C     C_R   0.201528 0.943973 0.285229 -0.259148
C32   C     C_R   0.196548 0.892265 0.196009 -0.065655
C33   C     C_R   0.244714 0.948877 0.161155 -0.009104
C34   C     C_R   0.640606 0.500015 0.359306 0.736333
C35   C     C_R   0.296980 0.056027 0.216939 -0.253169
C36   C     C_R   0.301747 0.107723 0.306150 -0.054281
C37   C     C_R   0.252991 0.051055 0.340713 0.005411
C38   C     C_R   0.297268 0.864887 0.037018 0.268085
C39   C     C_R   0.292143 0.819708 0.947148 -0.140655
C40   C     C_R   0.234028 0.810126 0.888206 -0.178914
C41   C     C_R   0.180234 0.845297 0.918151 -0.137928
C42   C     C_R   0.184432 0.890320 0.007188 -0.153471
C43   C     C_R   0.242115 0.899891 0.067124 0.080426
C44   C     C_R   0.908515 0.700285 0.615677 -0.157894
C45   C     C_R   0.641952 0.499880 0.639760 0.793192
C46   C     C_R   0.860171 0.625190 0.632066 -0.095583
C47   C     C_R   0.844235 0.653081 0.713604 0.117330
C48   C     C_R   0.879621 0.757350 0.779538 -0.175434
C49   C     C_R   0.929224 0.833221 0.763833 0.156339
C50   C     C_R   0.942768 0.803868 0.681040 -0.147741
C51   C     C_R   0.841897 0.572248 0.787191 -0.264433
C52   C     C_R   0.799308 0.498393 0.805844 -0.051111
C53   C     C_R   0.705072 0.424035 0.768328 -0.014324
C54   C     C_R   0.656220 0.425565 0.712570 -0.274879
C55   C     C_R   0.698685 0.500024 0.694582 -0.047981
C56   C     C_R   0.358066 0.500299 0.359448 0.739314
C57   C     C_R   0.793099 0.573647 0.731255 -0.004633
C58   C     C_R   0.624504 0.240476 0.718982 -0.163836
C59   C     C_R   0.576264 0.163775 0.733707 -0.156714
C60   C     C_R   0.557546 0.188946 0.813415 -0.096355
C61   C     C_R   0.586462 0.290740 0.878300 -0.125684
C62   C     C_R   0.634472 0.367641 0.863741 -0.113087
C63   C     C_R   0.654468 0.343018 0.784234 0.162494
C64   C     C_R   0.352774 0.775585 0.689391 -0.125836
C65   C     C_R   0.345947 0.718538 0.722059 -0.104772
C66   C     C_R   0.272359 0.614684 0.677847 0.148546
C67   C     C_3   0.348730 0.531255 0.242736 -0.404468
C68   C     C_R   0.205266 0.569104 0.601624 -0.154985
C69   C     C_R   0.212149 0.626594 0.569503 -0.155666
C70   C     C_R   0.286067 0.729573 0.613049 -0.116903
C71   C     C_R   0.208662 0.552179 0.767741 -0.271388
C72   C     C_R   0.193897 0.496761 0.804185 -0.049654
C73   C     C_R   0.232870 0.441366 0.785512 -0.010705
C74   C     C_R   0.287622 0.445841 0.733150 -0.264865
C75   C     C_R   0.302558 0.501554 0.696837 -0.049924
C76   C     C_R   0.262388 0.555521 0.714447 -0.016538
C77   C     C_R   0.284658 0.415552 0.891189 -0.171129
C78   C     C_3   0.288579 0.530980 0.183009 -0.396891
C79   C     C_R   0.270886 0.354812 0.921830 -0.151965
C80   C     C_R   0.191002 0.255904 0.879890 -0.100125
C81   C     C_R   0.124963 0.217223 0.806816 -0.130766
C82   C     C_R   0.138556 0.277554 0.775776 -0.113365
C83   C     C_R   0.218293 0.377470 0.818327 0.148445
C84   C     C_R   0.856956 0.499958 0.142721 0.737093
C85   C     C_R   0.138356 0.499256 0.861381 0.793345
C86   C     C_R   0.856974 0.219055 0.861994 0.742732
C87   C     C_R   0.139279 0.779922 0.141159 0.782266
C88   C     C_R   0.855839 0.499706 0.862006 0.791466
C89   C     C_3   0.210504 0.391461 0.241048 -0.395972
C90   C     C_R   0.139778 0.499947 0.142924 0.742422
H1    H     H_    0.365432 0.476001 0.199868 0.173965
H2    H     H_    0.154097 0.558890 0.316076 0.169559
H3    H     H_    0.174153 0.367991 0.282329 0.149401
H4    H     H_    0.085135 0.367610 0.193769 0.147878
H5    H     H_    0.603641 0.909480 0.638924 0.175604
H6    H     H_    0.690248 0.915917 0.591335 0.149616
H7    H     H_    0.771036 0.092985 0.681631 0.150788
H8    H     H_    0.687966 0.086409 0.735451 0.182443
H9    H     H_    0.703503 0.090268 0.875914 0.171632
H10   H     H_    0.819004 0.912956 0.748120 0.202548
H11   H     H_    0.413091 0.609646 0.285249 0.148377
H12   H     H_    0.812504 0.913216 0.650961 0.179662
H13   H     H_    0.898231 0.089553 0.738277 0.170253
H14   H     H_    0.907146 0.089051 0.835270 0.184129
H15   H     H_    0.707256 0.911966 0.825048 0.127701
H16   H     H_    0.791688 0.088059 0.914815 0.140100
H17   H     H_    0.595737 0.443758 0.187512 0.170437
H18   H     H_    0.593593 0.342601 0.184251 0.174683
H19   H     H_    0.680823 0.342790 0.096211 0.173773
H20   H     H_    0.683720 0.444661 0.100168 0.167387
H21   H     H_    0.719119 0.634111 0.310676 0.147616
H22   H     H_    0.323975 0.609199 0.196668 0.151889
H23   H     H_    0.807787 0.634194 0.222062 0.148755
H24   H     H_    0.800160 0.521611 0.388838 0.170769
H25   H     H_    0.713131 0.388592 0.303155 0.149864
H26   H     H_    0.801315 0.388179 0.214099 0.148691
H27   H     H_    0.888151 0.521112 0.300279 0.174140
H28   H     H_    0.803662 0.666667 0.393385 0.176889
H29   H     H_    0.891827 0.666569 0.305111 0.178254
H30   H     H_    0.232518 0.214521 0.669957 0.143059
H31   H     H_    0.364990 0.114794 0.487920 0.110702
H32   H     H_    0.276523 0.475537 0.111783 0.180833
H33   H     H_    0.133096 0.093823 0.396957 0.124024
H34   H     H_    0.123802 0.168092 0.548978 0.137100
H35   H     H_    0.163425 0.900874 0.311780 0.170380
H36   H     H_    0.334642 0.099122 0.190246 0.168287
H37   H     H_    0.332924 0.791262 0.922701 0.135405
H38   H     H_    0.230506 0.775164 0.819120 0.148089
H39   H     H_    0.135172 0.837649 0.872300 0.134381
H40   H     H_    0.142278 0.917312 0.029506 0.128134
H41   H     H_    0.980270 0.861105 0.667322 0.116596
H42   H     H_    0.224217 0.333183 0.198153 0.177538
H43   H     H_    0.919658 0.678230 0.552286 0.122162
H44   H     H_    0.834193 0.545215 0.581019 0.109651
H45   H     H_    0.868564 0.779565 0.843052 0.127567
H46   H     H_    0.914189 0.629255 0.815599 0.175302
H47   H     H_    0.584085 0.367973 0.683491 0.178861
H48   H     H_    0.638796 0.220217 0.657069 0.117001
H49   H     H_    0.553429 0.084819 0.683352 0.115670
H50   H     H_    0.520399 0.129506 0.824764 0.110477
H51   H     H_    0.571438 0.309950 0.939731 0.112566
H52   H     H_    0.135691 0.332964 0.110003 0.177862
H53   H     H_    0.656449 0.446247 0.914315 0.105915
H54   H     H_    0.291333 0.773890 0.587974 0.118863
H55   H     H_    0.409248 0.855714 0.723636 0.111105
H56   H     H_    0.397439 0.755131 0.781799 0.112339
H57   H     H_    0.147493 0.489530 0.567689 0.116614
H58   H     H_    0.159997 0.591418 0.511020 0.118003
H59   H     H_    0.177580 0.592950 0.780158 0.176293
H60   H     H_    0.318478 0.404823 0.720513 0.175616
H61   H     H_    0.346720 0.492106 0.924181 0.124145
H62   H     H_    0.322152 0.384404 0.978087 0.120130
H63   H     H_    0.241883 0.558186 0.402847 0.179402
H64   H     H_    0.180385 0.209121 0.903841 0.113411
H65   H     H_    0.063371 0.140437 0.774142 0.109846
H66   H     H_    0.087105 0.246856 0.718986 0.102677
H67   H     H_    0.340503 0.658556 0.405024 0.173283
H68   H     H_    0.252645 0.658410 0.317253 0.175004
O1    O     O_3   0.500000 0.500000 0.500000 -0.473172
O2    O     O_R   0.383400 0.560740 0.616060 -0.631238
O3    O     O_R   0.555060 0.439270 0.322940 -0.653144
O4    O     O_R   0.383950 0.268380 0.445700 -0.635342
O5    O     O_R   0.677590 0.731610 0.615290 -0.648789
O6    O     O_3   0.997750 0.500010 0.002220 -0.472148
O7    O     O_R   0.942690 0.560750 0.179280 -0.650450
O8    O     O_R   0.114340 0.439270 0.886160 -0.634884
O9    O     O_R   0.820160 0.268410 0.886930 -0.638404
O10   O     O_R   0.113800 0.731630 0.056520 -0.635889
O11   O     O_R   0.819390 0.439310 0.886160 -0.636953
O12   O     O_R   0.383400 0.268380 0.323710 -0.651098
O13   O     O_R   0.115110 0.560720 0.179280 -0.651849
O14   O     O_R   0.941380 0.560750 0.885620 -0.650263
O15   O     O_R   0.115110 0.439270 0.057830 -0.638982
O16   O     O_R   0.942690 0.268390 0.886930 -0.649368
O17   O     O_R   0.114340 0.731630 0.178520 -0.649064
O18   O     O_R   0.820160 0.439310 0.057830 -0.649285
O19   O     O_R   0.113800 0.560730 0.885620 -0.641140
O20   O     O_R   0.555060 0.731630 0.615290 -0.621598
O21   O     O_R   0.383950 0.439280 0.616600 -0.643277
O22   O     O_R   0.677590 0.560710 0.444390 -0.646788
O23   O     O_R   0.556370 0.439260 0.616600 -0.656562
O24   O     O_R   0.382640 0.439290 0.322940 -0.649639
O25   O     O_R   0.678360 0.560700 0.616060 -0.635918
O26   O     O_R   0.382640 0.560750 0.444390 -0.644011
Zn1   Zn    Zn3+2 0.456040 0.586770 0.543190 0.972950
Zn2   Zn    Zn3+2 0.456820 0.413240 0.543960 0.961416
Zn3   Zn    Zn3+2 0.631110 0.586750 0.543190 0.958481
Zn4   Zn    Zn3+2 0.456040 0.413240 0.369660 0.941021
Zn5   Zn    Zn3+2 0.041710 0.413240 0.959030 0.963245
Zn6   Zn    Zn3+2 0.866640 0.413270 0.959030 0.958217
Zn7   Zn    Zn3+2 0.040930 0.586780 0.958260 0.968561
Zn8   Zn    Zn3+2 0.041710 0.586770 0.132560 0.943506
N1    N     N_3   0.590362 0.897370 0.784983 -0.447758
H69   H     H_    0.570681 0.932834 0.767416 0.189437
H70   H     H_    0.583938 0.916618 0.847517 0.164900
N2    N     N_2   0.374504 0.201653 0.659246 -0.313703
H71   H     H_    0.419521 0.183370 0.639554 0.219781
C91   C     C_3   0.417045 0.304869 0.740192 -0.808110
H72   H     H_    0.469573 0.320837 0.787641 0.244617
H73   H     H_    0.367706 0.311811 0.773331 0.245627
H74   H     H_    0.448897 0.363580 0.725204 0.252107
N3    N     N_2   0.356890 0.873119 0.095390 -0.319232
H75   H     H_    0.339950 0.876686 0.150026 0.221007
C92   C     C_3   0.451082 0.949590 0.118124 -0.839791
H76   H     H_    0.465611 0.028272 0.155288 0.240166
H77   H     H_    0.470266 0.932662 0.057133 0.242838
H78   H     H_    0.492399 0.947921 0.160907 0.240888
N4    N     N_3   0.964873 0.939301 0.832364 -0.492452
H79   H     H_    0.997545 0.985653 0.809675 0.166173
H80   H     H_    0.013812 0.964445 0.885135 0.172681

loop_
_geom_bond_atom_site_label_1
_geom_bond_atom_site_label_2
_ccdc_geom_bond_type
C66   C68   A    
C8    C13   S    
C88   O14   A    
C64   H55   S    
C41   C42   A    
C48   H45   S    
C34   O22   A    
C35   C36   A    
C72   C85   S    
C62   H53   S    
C8    H7    S    
C34   O3    A    
C17   H20   S    
C77   H61   S    
C3    C56   S    
C5    H4    S    
C28   H33   S    
C45   O23   A    
C7    C8    S    
O21   Zn2   S    
C71   H59   S    
C53   C54   A    
C7    C11   S    
C7    H6    S    
C90   O15   A    
C45   O25   A    
C24   H27   S    
C29   C30   A    
O10   Zn7   S    
N3    C92   S    
O19   Zn7   S    
C85   O8    A    
O2    Zn1   S    
O1    Zn2   S    
C36   C37   A    
O3    Zn4   S    
C10   C15   S    
C65   H56   S    
C71   C76   A    
C80   C81   A    
C9    N1    S    
N2    H71   S    
C54   H47   S    
C47   C57   S    
C77   C83   A    
C9    H15   S    
C40   H38   S    
C29   H34   S    
C1    O12   A    
C44   H43   S    
O7    Zn8   S    
O26   Zn1   S    
O5    Zn3   S    
C73   C74   A    
O1    Zn3   S    
C49   C50   A    
C8    H8    S    
C84   O7    A    
C16   H17   S    
C46   C47   A    
O20   Zn1   S    
C22   H23   S    
C47   C48   A    
C16   C17   S    
N1    H70   S    
C90   O13   A    
C92   H78   S    
C91   H72   S    
C51   C57   A    
C26   H31   S    
C64   C70   A    
C15   H14   S    
O6    Zn7   S    
C18   H28   S    
C23   O21   A    
C89   H42   S    
C82   H66   S    
C58   H48   S    
C59   C60   A    
C21   C22   S    
C49   N4    S    
C2    C6    S    
C67   C78   S    
O11   Zn6   S    
O6    Zn6   S    
C6    H68   S    
C44   C46   A    
C81   C82   A    
C4    C90   S    
C77   C79   A    
O14   Zn7   S    
C22   H29   S    
C39   H37   S    
C74   C75   A    
C51   C52   A    
C33   C43   S    
C52   C88   S    
C68   H57   S    
C18   H21   S    
C4    C6    S    
C59   H49   S    
N3    H75   S    
O6    Zn8   S    
O17   Zn8   S    
O4    Zn2   S    
C9    C14   S    
N4    H79   S    
C56   O26   A    
C19   H24   S    
C58   C59   A    
C32   C87   S    
C17   C21   S    
C31   C37   A    
C60   C61   A    
C86   O16   A    
O1    Zn4   S    
C13   C86   S    
C35   H36   S    
C75   C76   A    
C4    C78   S    
C62   C63   A    
O22   Zn3   S    
O25   Zn3   S    
C46   H44   S    
C51   H46   S    
O18   Zn6   S    
C31   C32   A    
C21   C84   S    
C19   H25   S    
C16   C20   S    
C66   C76   S    
C23   O2    A    
C91   H74   S    
C67   H1    S    
C26   C27   A    
C42   H40   S    
O24   Zn4   S    
C10   H10   S    
C4    C5    S    
C9    C11   S    
C25   N2    S    
C60   H50   S    
C61   H51   S    
C40   C41   A    
C92   H77   S    
C1    O4    A    
C82   C83   A    
C2    H63   S    
C10   C11   S    
C13   C15   S    
C87   O10   A    
C42   C43   A    
C31   H35   S    
O6    Zn5   S    
C39   C40   A    
C7    H5    S    
C52   C53   A    
C67   H11   S    
C44   C50   A    
C25   C30   A    
O9    Zn6   S    
C54   C55   A    
C28   C29   A    
C88   O11   A    
C18   C22   S    
C68   C69   A    
C3    C67   S    
C86   O9    A    
C58   C63   A    
C23   C75   S    
C72   C73   A    
C56   O24   A    
C17   H19   S    
C91   H73   S    
O23   Zn2   S    
C24   H26   S    
C87   O17   A    
C70   H54   S    
C81   H65   S    
C1    C36   S    
C3    C89   S    
O8    Zn5   S    
C32   C33   A    
O1    Zn1   S    
C19   C20   S    
C55   C57   A    
C19   C24   S    
C25   C26   A    
C20   C34   S    
C38   C43   A    
C84   O18   A    
C64   C65   A    
C12   O5    A    
C41   H39   S    
C53   C63   S    
C14   H9    S    
C5    H52   S    
C38   C39   A    
C30   H30   S    
C27   C37   S    
C2    H67   S    
C48   C49   A    
C80   H64   S    
C10   H12   S    
O15   Zn5   S    
C33   C35   A    
O13   Zn8   S    
C2    C3    S    
C18   C20   S    
C6    H2    S    
C65   C66   A    
C89   H3    S    
C61   C62   A    
C78   H32   S    
C85   O19   A    
C69   C70   A    
N2    C91   S    
C50   H41   S    
C16   H18   S    
O16   Zn5   S    
C79   C80   A    
C14   H16   S    
C71   C72   A    
C92   H76   S    
C45   C55   S    
N4    H80   S    
N1    H69   S    
C38   N3    S    
C21   C24   S    
O12   Zn4   S    
C27   C28   A    
C69   H58   S    
C74   H60   S    
C78   H22   S    
C15   H13   S    
C12   O20   A    
C13   C14   S    
C73   C83   S    
C5    C89   S    
C11   C12   S    
C79   H62   S    
