data_mof_unit_56988.cif
_audit_creation_date              2012-12-11T16:53:46-0500
_audit_creation_method            fapswitch 2.2
_symmetry_space_group_name_H-M    P1
_symmetry_Int_Tables_number       1
_space_group_crystal_system       triclinic
_cell_length_a                    14.967179
_cell_length_b                    14.793079
_cell_length_c                    16.9491
_cell_angle_alpha                 108.793962
_cell_angle_beta                  106.210255
_cell_angle_gamma                 108.154232
_cell_volume                      3060.59618649

loop_
_atom_site_label
_atom_site_type_symbol
_atom_type_description
_atom_site_fract_x
_atom_site_fract_y
_atom_site_fract_z
_atom_type_partial_charge
C1    C     C_R   0.082316 0.289176 0.085351 0.561908
C2    C     C_R   0.061871 0.545050 0.265350 -0.215791
C3    C     C_R   0.241371 0.799930 0.185397 -0.215342
C4    C     C_R   0.934519 0.516762 0.745659 -0.128529
C5    C     C_R   0.697493 0.408671 0.996597 0.557887
C6    C     C_R   0.277784 0.810022 0.273454 -0.039734
C7    C     C_R   0.641019 0.443570 0.942740 -0.077315
C8    C     C_R   0.970135 0.534073 0.274011 0.042414
C9    C     C_R   0.994801 0.817777 0.972214 0.010160
C10   C     C_R   0.411656 0.495519 0.890061 0.095422
C11   C     C_R   0.350794 0.426834 0.915406 0.116211
C12   C     C_R   0.024423 0.578300 0.743536 0.062755
C13   C     C_R   0.369766 0.338689 0.914592 -0.239260
C14   C     C_R   0.456607 0.331182 0.903350 -0.194787
C15   C     C_R   0.531923 0.418812 0.907241 0.080054
C16   C     C_R   0.718850 0.217724 0.825462 -0.100172
C17   C     C_R   0.502601 0.493438 0.889365 -0.053152
C18   C     C_3   0.558380 0.612367 0.927338 0.472017
C19   C     C_3   0.457490 0.614926 0.926972 -0.697760
C20   C     C_R   0.959308 0.577510 0.359917 0.141093
C21   C     C_R   0.030664 0.619082 0.675863 0.128859
C22   C     C_R   0.133109 0.694507 0.604783 -0.222797
C23   C     C_R   0.662885 0.223526 0.748696 0.019645
C24   C     C_R   0.127435 0.676824 0.679357 -0.175058
C25   C     C_R   0.939503 0.590906 0.601666 -0.286930
C26   C     C_R   0.944703 0.602882 0.524859 0.190673
C27   C     C_R   0.042416 0.650999 0.525079 0.184896
C28   C     C_R   0.255209 0.535356 0.945777 -0.243231
C29   C     C_R   0.048505 0.642621 0.442905 -0.277027
C30   C     C_R   0.861404 0.541621 0.361541 -0.190286
C31   C     C_R   0.854158 0.555952 0.444244 -0.227510
C32   C     C_R   0.554147 0.154370 0.684092 0.130269
C33   C     C_R   0.328017 0.908525 0.359253 -0.016458
C34   C     C_R   0.283629 0.458903 0.954716 -0.111102
C35   C     C_R   0.423306 0.100327 0.447027 -0.395075
C36   C     C_R   0.375545 0.009977 0.363155 0.539674
C37   C     C_R   0.328344 0.900591 0.439680 -0.303108
C38   C     C_R   0.389111 0.989030 0.524320 0.167004
C39   C     C_R   0.437378 0.089377 0.527653 0.130271
C40   C     C_R   0.727158 0.313490 0.748300 -0.131853
C41   C     C_R   0.512685 0.174005 0.610096 -0.228651
C42   C     C_R   0.498775 0.058602 0.684618 -0.180013
C43   C     C_R   0.413232 0.976842 0.605112 -0.194204
C44   C     C_R   0.067163 0.099355 0.136630 0.126765
C45   C     C_R   0.248617 0.706644 0.264528 0.473123
C46   C     C_R   0.991635 0.134385 0.113419 -0.094166
C47   C     C_R   0.920740 0.119698 0.155227 0.618090
C48   C     C_R   0.928063 0.068845 0.214132 -0.401207
C49   C     C_R   0.009013 0.039873 0.238336 0.027853
C50   C     C_R   0.075907 0.056766 0.196869 0.097664
C51   C     C_3   0.175667 0.055803 0.201051 -0.439770
C52   C     C_R   0.243356 0.428766 0.012385 0.610242
C53   C     C_3   0.165804 0.101554 0.131003 -0.406302
C54   C     C_R   0.106293 0.604027 0.822997 -0.137224
C55   C     C_R   0.913651 0.202218 0.001167 0.552376
C56   C     C_R   0.707808 0.505430 0.919845 -0.129502
C57   C     C_R   0.996091 0.196861 0.060026 -0.273220
C58   C     C_3   0.183734 0.388498 0.239851 0.266577
C59   C     C_3   0.260549 0.382583 0.316268 -0.941821
C60   C     C_3   0.613553 0.344649 0.076402 -0.286944
C61   C     C_3   0.627987 0.657045 0.088646 0.328208
C62   C     C_3   0.728105 0.678106 0.162367 -0.929224
C63   C     C_3   0.471508 0.027708 0.281568 0.245181
C64   C     C_3   0.471528 0.035360 0.194206 -0.892397
C65   C     C_3   0.862304 0.237351 0.218798 -0.171691
C66   C     C_3   0.139236 0.250584 0.922065 -0.299071
C67   C     C_R   0.890519 0.467236 0.187368 -0.120157
C68   C     C_3   0.782800 0.035411 0.913114 -0.199657
C69   C     C_3   0.390389 0.680015 0.317558 0.266174
C70   C     C_3   0.459557 0.675937 0.399938 -0.911391
C71   C     C_R   0.081576 0.803274 0.009951 -0.132899
C72   C     C_R   0.910381 0.720323 0.938210 -0.064855
H1    H     H_    0.687369 0.532385 0.868212 0.104803
H2    H     H_    0.577973 0.634859 0.875616 0.043698
H3    H     H_    0.458753 0.656401 0.994876 0.196673
H4    H     H_    0.421700 0.638617 0.875063 0.179868
H5    H     H_    0.124134 0.676488 0.443446 0.122724
H6    H     H_    0.790600 0.495297 0.299073 0.107920
H7    H     H_    0.208600 0.733140 0.606332 0.125278
H8    H     H_    0.778473 0.520861 0.443548 0.126146
H9    H     H_    0.199300 0.702627 0.736628 0.115437
H10   H     H_    0.864066 0.549808 0.598701 0.115466
H11   H     H_    0.549647 0.249643 0.610454 0.110665
H12   H     H_    0.810331 0.445860 0.168957 0.116753
H13   H     H_    0.687734 0.166580 0.853942 0.165733
H14   H     H_    0.526134 0.043044 0.742696 0.120270
H15   H     H_    0.460463 0.177607 0.449580 0.153559
H16   H     H_    0.375390 0.900537 0.603872 0.121500
H17   H     H_    0.288700 0.824449 0.437769 0.182618
H18   H     H_    0.872557 0.054802 0.243453 0.164906
H19   H     H_    0.240551 0.113012 0.269693 0.214528
H20   H     H_    0.168875 0.974147 0.174349 0.209142
H21   H     H_    0.228567 0.182721 0.159360 0.248032
H22   H     H_    0.266410 0.572564 0.901979 0.159082
H23   H     H_    0.160746 0.858701 0.031942 0.098234
H24   H     H_    0.152111 0.045516 0.061951 0.177594
H25   H     H_    0.707059 0.351635 0.706195 0.086871
H26   H     H_    0.184888 0.664179 0.850659 0.086066
H27   H     H_    0.108046 0.362691 0.244943 0.072685
H28   H     H_    0.212288 0.472155 0.251103 0.149306
H29   H     H_    0.336738 0.404786 0.312481 0.264504
H30   H     H_    0.270771 0.438030 0.384066 0.221622
H31   H     H_    0.231109 0.300632 0.309867 0.254779
H32   H     H_    0.653025 0.333115 0.135679 0.154226
H33   H     H_    0.618538 0.426453 0.102775 0.117638
H34   H     H_    0.830845 0.699302 0.896826 0.090118
H35   H     H_    0.531358 0.285988 0.046490 0.172586
H36   H     H_    0.568297 0.577080 0.069337 0.085772
H37   H     H_    0.603710 0.718387 0.119416 0.092038
H38   H     H_    0.788609 0.759457 0.186332 0.270143
H39   H     H_    0.714281 0.671386 0.221741 0.206802
H40   H     H_    0.756364 0.619397 0.134643 0.247998
H41   H     H_    0.480349 0.954937 0.279378 0.085355
H42   H     H_    0.539035 0.099365 0.341404 0.097124
H43   H     H_    0.463481 0.107605 0.194492 0.259544
H44   H     H_    0.545454 0.040262 0.189901 0.218021
H45   H     H_    0.137948 0.586435 0.320266 0.165334
H46   H     H_    0.405998 0.963939 0.133034 0.246174
H47   H     H_    0.941824 0.303062 0.249934 0.109735
H48   H     H_    0.848635 0.209185 0.269620 0.114021
H49   H     H_    0.806646 0.270303 0.201047 0.173117
H50   H     H_    0.164786 0.241297 0.865835 0.141388
H51   H     H_    0.071296 0.267598 0.902094 0.128335
H52   H     H_    0.112281 0.172815 0.924061 0.168497
H53   H     H_    0.820580 0.997373 0.949091 0.143368
H54   H     H_    0.801741 0.032049 0.853466 0.095127
H55   H     H_    0.697751 0.988128 0.885544 0.162520
H56   H     H_    0.251215 0.861167 0.163373 0.184910
H57   H     H_    0.436114 0.753742 0.314795 0.083158
H58   H     H_    0.369839 0.609291 0.253921 0.097416
H59   H     H_    0.417196 0.604376 0.406363 0.260684
H60   H     H_    0.529647 0.672876 0.391434 0.210222
H61   H     H_    0.483940 0.748027 0.463752 0.256381
H62   H     H_    0.326365 0.280988 0.931733 0.182654
H63   H     H_    0.470280 0.263647 0.903034 0.175273
H64   H     H_    0.855481 0.493997 0.701775 0.084702
N1    N     N_R   0.055640 0.348550 0.045600 -0.140327
N2    N     N_R   0.811290 0.303400 0.871650 -0.045650
N3    N     N_R   0.205180 0.552990 0.997660 -0.071706
N4    N     N_R   0.814810 0.361830 0.823710 -0.048119
N5    N     N_R   0.201660 0.494570 0.045600 -0.111521
N6    N     N_R   0.068420 0.560530 0.871650 -0.033683
N7    N     N_R   0.948050 0.295860 0.997660 -0.140884
N8    N     N_R   0.185190 0.638170 0.176290 -0.096992
N9    N     N_R   0.798340 0.505430 0.954400 -0.076675
N10   N     N_R   0.931580 0.439470 0.128350 -0.032270
N11   N     N_R   0.051950 0.704140 0.002340 -0.033903
N12   N     N_R   0.944360 0.651450 0.954400 -0.039614
N13   N     N_R   0.039170 0.492150 0.176290 -0.067296
N14   N     N_R   0.188710 0.696600 0.128350 -0.070413
N15   N     N_R   0.794820 0.447010 0.002340 -0.093119
N16   N     N_R   0.960830 0.507850 0.823710 -0.040837
Ni1   Ni    Ni4+2 0.119330 0.493420 0.109950 0.210115
Ni2   Ni    Ni4+2 0.880670 0.506580 0.890050 0.195473
Ni3   Ni    Ni4+2 0.872590 0.372590 0.000000 0.279694
Ni4   Ni    Ni4+2 0.127410 0.627410 0.000000 0.188109
O1    O     O_3   0.178533 0.325510 0.154642 -0.606858
O2    O     O_3   0.655958 0.321161 0.011482 -0.614163
O3    O     O_3   0.647263 0.666441 0.013685 -0.611072
O4    O     O_3   0.377477 0.022542 0.286334 -0.655794
O5    O     O_3   0.843835 0.153059 0.137680 -0.565838
O6    O     O_3   0.219545 0.329648 0.009909 -0.601430
O7    O     O_3   0.809779 0.140683 0.973532 -0.558732
O8    O     O_3   0.299624 0.679191 0.327553 -0.680160

loop_
_geom_bond_atom_site_label_1
_geom_bond_atom_site_label_2
_ccdc_geom_bond_type
N2    Ni3   S    
C71   N11   A    
C52   O6    S    
C64   H44   S    
C6    C45   A    
C27   C29   A    
C62   H40   S    
C11   C13   A    
C13   H62   S    
N11   N12   A    
C9    C72   A    
C3    C6    A    
C61   H37   S    
C31   H8    S    
C39   C41   A    
C20   C30   A    
C26   C27   A    
C8    C20   S    
C43   H16   S    
C7    C56   A    
C30   H6    S    
C19   H4    S    
C45   O8    S    
C60   O2    S    
C22   H7    S    
C61   O3    S    
C30   C31   A    
C71   H23   S    
C14   H63   S    
C10   C17   A    
C23   C40   A    
C41   H11   S    
C56   N9    A    
C33   C36   A    
C64   H46   S    
C66   O6    S    
C28   H22   S    
C18   C19   S    
N6    N16   A    
N8    Ni1   S    
C61   H36   S    
N13   Ni1   S    
N8    N14   A    
C18   O3    S    
C51   H19   S    
C63   H42   S    
C35   H15   S    
C44   C53   S    
N10   Ni3   S    
C35   C36   A    
C69   H58   S    
C70   H61   S    
C32   C41   A    
C66   H50   S    
C42   H14   S    
N15   Ni3   S    
C4    C12   A    
C4    H64   S    
C2    N13   A    
C7    C15   S    
N1    N7    A    
C28   C34   A    
C67   H12   S    
C18   H2    S    
C64   H43   S    
C48   H18   S    
C13   C14   A    
C53   H24   S    
C61   C62   S    
C28   N3    A    
N12   Ni2   S    
C63   O4    S    
C2    H45   S    
C44   C46   A    
C50   C51   S    
C20   C29   A    
C38   C39   A    
C4    N16   A    
C16   N2    A    
C55   N7    A    
C62   H39   S    
C53   H21   S    
C59   H29   S    
C58   H28   S    
C40   H25   S    
C5    C7    A    
C3    H56   S    
C25   C26   A    
C72   N12   A    
C12   C21   S    
C33   C37   A    
C51   C53   S    
C47   O5    S    
C35   C39   A    
C24   H9    S    
C37   C38   A    
C1    C57   A    
C51   H20   S    
C45   N8    A    
N10   N13   A    
N7    Ni3   S    
C47   C48   A    
C62   H38   S    
C10   C19   S    
C67   N10   A    
C70   H60   S    
C17   C18   S    
C65   H47   S    
N1    Ni1   S    
N11   Ni4   S    
C68   H55   S    
N9    N15   A    
C60   H35   S    
N2    N4    A    
N9    Ni2   S    
C48   C49   A    
C54   N6    A    
C72   H34   S    
C49   C50   A    
C16   C23   A    
C65   H49   S    
C22   C27   A    
C55   C57   A    
C46   C57   S    
C25   H10   S    
C66   H52   S    
C42   C43   A    
C68   H54   S    
C1    N1    A    
C68   O7    S    
C44   C50   A    
C15   C17   A    
C21   C25   A    
C46   C47   A    
C3    N14   A    
C56   H1    S    
C14   C15   A    
C59   H30   S    
C11   C34   S    
C2    C8    A    
C58   H27   S    
C9    C71   A    
N16   Ni2   S    
C58   O1    S    
C34   C52   A    
C52   N5    A    
C5    N15   A    
C6    C33   S    
C37   H17   S    
C59   H31   S    
C23   C32   S    
C19   H3    S    
C58   C59   S    
C55   O7    S    
C38   C43   A    
N3    N5    A    
N5    Ni1   S    
C16   H13   S    
N3    Ni4   S    
C40   N4    A    
C1    O1    S    
C70   H59   S    
C65   H48   S    
C22   C24   A    
C69   C70   S    
C10   C11   A    
C36   O4    S    
C63   C64   S    
C63   H41   S    
C26   C31   A    
C29   H5    S    
C8    C67   A    
C69   H57   S    
C5    O2    S    
C21   C24   A    
C65   O5    S    
C32   C42   A    
C66   H51   S    
C54   H26   S    
N14   Ni4   S    
N6    Ni4   S    
C60   H32   S    
C68   H53   S    
C12   C54   A    
C60   H33   S    
C69   O8    S    
N4    Ni2   S    
