data_mof_unit_53968.cif
_audit_creation_date              2012-12-11T17:25:09-0500
_audit_creation_method            fapswitch 2.2
_symmetry_space_group_name_H-M    P1
_symmetry_Int_Tables_number       1
_space_group_crystal_system       triclinic
_cell_length_a                    6.94988
_cell_length_b                    20.448756
_cell_length_c                    24.543454
_cell_angle_alpha                 90.386479
_cell_angle_beta                  90.888263
_cell_angle_gamma                 89.308249
_cell_volume                      3487.2789688

loop_
_atom_site_label
_atom_site_type_symbol
_atom_type_description
_atom_site_fract_x
_atom_site_fract_y
_atom_site_fract_z
_atom_type_partial_charge
O1    O     O_R   0.507280 0.423750 0.460310 -0.512618
O2    O     O_R   0.171030 0.555650 0.437630 -0.537605
O3    O     O_R   0.004080 0.576250 0.539690 -0.546468
C1    C     C_R   0.338533 0.575716 0.421813 0.751094
O4    O     O_R   0.177330 0.422980 0.453960 -0.534495
O5    O     O_R   0.010420 0.442640 0.556140 -0.540357
C2    C     C_R   0.345302 0.397829 0.444227 0.755809
O6    O     O_R   0.500930 0.557360 0.443860 -0.530408
O7    O     O_3   0.340310 0.506600 0.533500 -0.384256
V1    V     V_3+5 0.064140 0.498780 0.493780 1.457793
O8    O     O_R   0.680890 0.444350 0.562370 -0.545520
C3    C     C_R   0.851217 0.423835 0.577510 0.738791
O9    O     O_R   0.674590 0.577020 0.546040 -0.533903
C4    C     C_R   0.843779 0.599769 0.558701 0.672665
V2    V     V_3+5 0.564550 0.501220 0.506220 1.458078
O10   O     O_3   0.838250 0.493400 0.466500 -0.351048
C5    C     C_R   0.971434 0.836223 0.912539 -0.217544
C6    C     C_R   0.848144 0.662010 0.590750 -0.189521
C7    C     C_R   0.988391 0.716672 0.910217 0.350763
C8    C     C_R   0.992499 0.775898 0.940267 0.190029
C9    C     C_R   0.944443 0.836942 0.855448 0.265359
C10   C     C_R   0.913550 0.777146 0.826046 -0.079648
C11   C     C_R   0.948864 0.717457 0.853648 0.006084
C12   C     C_R   0.848380 0.774317 0.770109 -0.054938
C13   C     C_R   0.878838 0.716119 0.739088 0.034563
C14   C     C_R   0.904298 0.657869 0.768536 -0.185814
C15   C     C_R   0.937194 0.658404 0.824491 -0.105557
C16   C     C_R   0.725955 0.822890 0.746738 0.257690
C17   C     C_R   0.682942 0.821338 0.690363 0.307071
C18   C     C_R   0.766826 0.772665 0.656505 -0.084036
C19   C     C_R   0.857974 0.716876 0.680667 -0.029045
C20   C     C_R   0.750500 0.776446 0.598759 0.111307
C21   C     C_R   0.764203 0.718837 0.567568 0.295805
C22   C     C_R   0.924714 0.665092 0.644979 0.009922
H1    H     H_    0.953072 0.611745 0.844805 0.167706
H2    H     H_    0.879191 0.610995 0.750026 0.121963
C23   C     C_R   0.719964 0.294578 0.745292 0.034675
C24   C     C_R   0.870533 0.294978 0.705892 0.016716
C25   C     C_R   0.026678 0.249812 0.710980 0.325034
C26   C     C_R   0.034347 0.205969 0.754209 -0.196880
H3    H     H_    0.156738 0.172664 0.757209 0.162366
C27   C     C_R   0.891682 0.203775 0.793444 0.038558
C28   C     C_R   0.729822 0.247563 0.789257 0.062224
C29   C     C_1   0.868288 0.340222 0.660137 -0.052699
C30   C     C_1   0.924004 0.156680 0.837497 -0.031008
C31   C     C_1   0.951700 0.118544 0.874938 -0.193129
C32   C     C_1   0.864131 0.378136 0.622203 -0.207717
C33   C     C_R   0.590102 0.785746 0.245700 0.388933
C34   C     C_R   0.441420 0.795437 0.206960 -0.060804
C35   C     C_R   0.270019 0.760857 0.211785 -0.224559
H4    H     H_    0.155324 0.768345 0.181950 0.188581
C36   C     C_R   0.242192 0.716488 0.254319 0.357406
C37   C     C_R   0.390429 0.705959 0.294116 -0.106012
C38   C     C_R   0.565909 0.741219 0.289577 0.265550
C39   C     C_1   0.462959 0.841284 0.161808 0.110656
C40   C     C_1   0.364044 0.659447 0.338845 -0.025733
C41   C     C_1   0.347678 0.621095 0.376335 -0.169282
C42   C     C_1   0.477095 0.879315 0.124006 -0.151986
C43   C     C_R   0.473394 0.161688 0.091604 -0.265834
C44   C     C_R   0.341647 0.334204 0.414362 -0.205603
C45   C     C_R   0.472571 0.280882 0.095265 0.067769
C46   C     C_R   0.500553 0.222518 0.066066 0.276925
C47   C     C_R   0.432628 0.160712 0.148460 0.309348
C48   C     C_R   0.412980 0.220938 0.178364 0.006213
C49   C     C_R   0.467531 0.279470 0.152876 -0.078390
C50   C     C_R   0.348466 0.224482 0.233629 -0.140372
C51   C     C_R   0.393448 0.280285 0.266777 -0.051842
C52   C     C_R   0.453440 0.337728 0.240104 0.346684
C53   C     C_R   0.514727 0.334679 0.185415 -0.001411
C54   C     C_R   0.221300 0.177496 0.255042 0.448104
C55   C     C_R   0.180861 0.176646 0.310424 0.357353
C56   C     C_R   0.241563 0.228191 0.345012 -0.181586
C57   C     C_R   0.357885 0.278919 0.324587 -0.039748
C58   C     C_R   0.175236 0.232072 0.398816 -0.122871
C59   C     C_R   0.218933 0.284649 0.432757 0.307730
C60   C     C_R   0.429664 0.326686 0.363216 0.387801
H5    H     H_    0.078200 0.196138 0.414651 0.166048
O11   O     O_R   0.323320 0.942780 0.056240 -0.537225
O12   O     O_R   0.647300 0.077050 0.046060 -0.542469
O13   O     O_R   0.813840 0.057330 0.943840 -0.539668
C61   C     C_R   0.478881 0.100628 0.057902 0.685615
O14   O     O_R   0.653250 0.944380 0.062400 -0.533855
O15   O     O_R   0.819830 0.923720 0.960300 -0.536919
C62   C     C_R   0.485753 0.924428 0.078307 0.715011
O16   O     O_R   0.317330 0.076390 0.039790 -0.533777
O17   O     O_3   0.483830 0.993470 0.966560 -0.363070
V3    V     V_3+5 0.760140 0.001210 0.006210 1.466047
O18   O     O_R   0.149290 0.922840 0.953850 -0.536657
C63   C     C_R   0.980546 0.898978 0.942978 0.793236
O19   O     O_R   0.143340 0.055500 0.937510 -0.537696
C64   C     C_R   0.972012 0.074602 0.921161 0.745780
V4    V     V_3+5 0.259690 0.998600 0.993650 1.467835
O20   O     O_3   0.986130 0.006520 0.033440 -0.368905
C65   C     C_3   0.734007 0.841426 0.568545 -0.266354
C66   C     C_3   0.909488 0.852479 0.532343 -0.346420
C67   C     C_3   0.896298 0.918610 0.503942 -0.712156
H6    H     H_    0.764750 0.921307 0.477720 0.241556
H7    H     H_    0.892524 0.958942 0.534470 0.232486
H8    H     H_    0.024082 0.924952 0.477974 0.230141
H9    H     H_    0.043055 0.850802 0.557881 0.202823
H10   H     H_    0.921128 0.813873 0.500548 0.241369
H11   H     H_    0.599288 0.842401 0.543524 0.207184
H12   H     H_    0.730819 0.883862 0.596656 0.210769
C68   C     C_3   0.560978 0.247783 0.829139 -0.374944
C69   C     C_3   0.550628 0.197737 0.874919 -0.293099
C70   C     C_3   0.363573 0.207673 0.905778 -0.738941
H13   H     H_    0.362814 0.256116 0.926368 0.252572
H14   H     H_    0.239619 0.206723 0.877215 0.222768
H15   H     H_    0.346999 0.168458 0.936297 0.234872
H16   H     H_    0.552100 0.147327 0.857716 0.214963
H17   H     H_    0.671699 0.204954 0.904232 0.212473
H18   H     H_    0.553526 0.296746 0.848922 0.175442
H19   H     H_    0.427797 0.240258 0.804565 0.182796
C71   C     C_3   0.544585 0.342473 0.744330 -0.353009
C72   C     C_3   0.514359 0.393259 0.699129 -0.281282
C73   C     C_3   0.328087 0.432366 0.707319 -0.807380
H20   H     H_    0.202777 0.399285 0.707624 0.237951
H21   H     H_    0.334324 0.459870 0.746463 0.228145
H22   H     H_    0.307301 0.467592 0.673433 0.225224
H23   H     H_    0.634488 0.428605 0.699939 0.197506
H24   H     H_    0.501409 0.368105 0.659011 0.219861
H25   H     H_    0.412296 0.312839 0.742862 0.206253
H26   H     H_    0.547233 0.370566 0.783213 0.167306
O21   O     O_3   0.177448 0.246061 0.674807 -0.639845
H27   H     H_    0.165629 0.280423 0.646834 0.305270
O22   O     O_3   0.716648 0.733961 0.326744 -0.638205
H28   H     H_    0.684539 0.702299 0.355324 0.309065
O23   O     O_3   0.757503 0.820726 0.239474 -0.624408
H29   H     H_    0.850982 0.809749 0.268906 0.352076
O24   O     O_3   0.067558 0.684798 0.254799 -0.619620
H30   H     H_    0.061634 0.655299 0.286440 0.314997
C74   C     C_3   0.660776 0.384382 0.165683 -0.392097
C75   C     C_3   0.839323 0.387441 0.203360 -0.287398
C76   C     C_3   0.990318 0.432852 0.180423 -0.748216
H31   H     H_    0.044284 0.413489 0.141061 0.223853
H32   H     H_    0.928364 0.482617 0.174193 0.241212
H33   H     H_    0.113077 0.436454 0.209569 0.234890
H34   H     H_    0.799323 0.405797 0.244370 0.228086
H35   H     H_    0.903698 0.337662 0.207900 0.195557
H36   H     H_    0.714923 0.370676 0.124830 0.191946
H37   H     H_    0.592979 0.433629 0.161892 0.167180
C77   C     C_3   0.094327 0.619702 0.660092 -0.353417
C78   C     C_3   0.272218 0.657544 0.679798 -0.265136
C79   C     C_3   0.436430 0.610701 0.694854 -0.787492
H38   H     H_    0.391867 0.577319 0.727683 0.233094
H39   H     H_    0.482040 0.581746 0.658727 0.231242
H40   H     H_    0.559909 0.639153 0.710219 0.229942
H41   H     H_    0.320197 0.690522 0.646942 0.206581
H42   H     H_    0.240229 0.688016 0.716102 0.216184
H43   H     H_    0.055553 0.581022 0.688801 0.154229
H44   H     H_    0.143436 0.591388 0.624500 0.192162
O25   O     O_3   0.592519 0.362824 0.354440 -0.613450
H45   H     H_    0.674514 0.338076 0.328597 0.299722
O26   O     O_3   0.137989 0.285462 0.483864 -0.630404
H46   H     H_    0.210457 0.315636 0.508057 0.280051
O27   O     O_3   0.069290 0.126132 0.328655 -0.599675
H47   H     H_    0.124042 0.111330 0.364036 0.291787
C80   C     C_3   0.415674 0.342075 0.063453 -0.320169
C81   C     C_3   0.217200 0.333693 0.035914 -0.302810
C82   C     C_3   0.158960 0.394010 0.003044 -0.761951
H48   H     H_    0.151261 0.437786 0.030009 0.233921
H49   H     H_    0.264546 0.402543 0.970399 0.233844
H50   H     H_    0.015069 0.386424 0.983891 0.222938
H51   H     H_    0.217397 0.290567 0.008263 0.220283
H52   H     H_    0.107485 0.325471 0.067587 0.188500
H53   H     H_    0.402440 0.385591 0.090256 0.164198
H54   H     H_    0.526571 0.352463 0.032614 0.200923
O28   O     O_3   0.554744 0.227567 0.012454 -0.664469
H55   H     H_    0.618800 0.186551 0.000746 0.284564
O29   O     O_3   0.431730 0.102583 0.177102 -0.601056
H56   H     H_    0.459939 0.065037 0.152816 0.290429
O30   O     O_3   0.433236 0.397383 0.266479 -0.636217
H57   H     H_    0.445300 0.433664 0.240404 0.290517
O31   O     O_3   0.114489 0.135921 0.222277 -0.577113
H58   H     H_    0.087195 0.158169 0.187191 0.288637
O32   O     O_3   0.700111 0.721120 0.513848 -0.650976
H59   H     H_    0.756315 0.684508 0.492656 0.282929
O33   O     O_3   0.539579 0.861395 0.668546 -0.657231
H60   H     H_    0.503361 0.896243 0.694722 0.340222
O34   O     O_3   0.018241 0.656736 0.935187 -0.646622
H61   H     H_    0.051505 0.662847 0.974206 0.343301
O35   O     O_3   0.020127 0.772486 0.996238 -0.646290
H62   H     H_    0.012385 0.816363 0.013209 0.284596
O36   O     O_3   0.959008 0.896489 0.829655 -0.623078
H63   H     H_    0.004844 0.888545 0.792145 0.316122
O37   O     O_3   0.626030 0.867216 0.778696 -0.629899
H64   H     H_    0.599155 0.846520 0.814124 0.311117

loop_
_geom_bond_atom_site_label_1
_geom_bond_atom_site_label_2
_ccdc_geom_bond_type
C13   C19   A    
C9    O36   S    
C46   O28   S    
C69   H16   S    
C26   H3    S    
O22   H28   S    
C72   H24   S    
C4    C6    S    
C20   C65   S    
C66   C67   S    
C1    O6    A    
O23   H29   S    
C76   H33   S    
O12   V3    S    
O33   H60   S    
C50   C54   A    
C37   C38   A    
C36   C37   A    
C33   C38   A    
C38   O22   S    
C14   C15   A    
C17   C18   A    
C8    O35   S    
C16   C17   A    
O13   V3    S    
C16   O37   S    
C3    C32   S    
O5    C3    A    
C18   C19   A    
C49   C53   A    
C82   H48   S    
O29   H56   S    
C60   O25   S    
C78   C79   S    
C67   H8    S    
C5    C8    A    
O36   H63   S    
C21   O32   S    
O35   H62   S    
O31   H58   S    
O28   H55   S    
O8    V2    S    
C7    C8    A    
C52   C53   A    
C58   H5    S    
C67   H7    S    
C1    C41   S    
C66   H10   S    
C35   C36   A    
C80   C81   S    
C54   C55   A    
C51   C57   A    
C11   C15   A    
O7    V1    S    
C29   C32   T    
C26   C27   A    
C50   C51   A    
C69   H17   S    
C75   H34   S    
O1    C2    A    
O9    C4    A    
C65   C66   S    
C79   H40   S    
C68   C69   S    
O16   V4    S    
C80   H54   S    
C71   C72   S    
C78   H41   S    
O15   C63   A    
C58   C59   A    
C47   C48   A    
C51   C52   A    
C82   H50   S    
O18   V4    S    
C5    C63   S    
C12   C13   A    
C56   C58   A    
C25   C26   A    
O12   C61   A    
O17   V3    S    
C79   H38   S    
C47   O29   S    
C76   H32   S    
C31   C64   S    
C15   H1    S    
C13   C14   A    
C34   C39   S    
C44   C60   A    
V2    O10   S    
C5    C9    A    
C25   O21   S    
C81   H52   S    
C68   H18   S    
C27   C30   S    
C82   H49   S    
C77   H44   S    
C23   C28   A    
O2    C1    A    
C24   C29   S    
C23   C24   A    
C42   C62   S    
C33   O23   S    
C6    C22   A    
O19   V4    S    
C81   C82   S    
C81   H51   S    
C67   H6    S    
O14   V3    S    
C19   C22   A    
C35   H4    S    
O25   H45   S    
C54   O31   S    
O26   H46   S    
O3    C4    A    
O1    V2    S    
C71   H26   S    
C79   H39   S    
O32   H59   S    
C65   H12   S    
C75   H35   S    
O6    V2    S    
O14   C62   A    
C17   O33   S    
O9    V2    S    
C75   C76   S    
C57   C60   A    
C10   C12   A    
C30   C31   T    
C27   C28   A    
O2    V1    S    
C2    C44   S    
O30   H57   S    
C80   H53   S    
O4    C2    A    
C37   C40   S    
C14   H2    S    
C74   H37   S    
C40   C41   T    
C22   C77   S    
C43   C46   A    
O27   H47   S    
C66   H9    S    
C12   C16   A    
C56   C57   A    
O15   V3    S    
O5    V1    S    
O8    C3    A    
C72   H23   S    
C76   H31   S    
C23   C71   S    
C74   H36   S    
C69   C70   S    
C44   C59   A    
C43   C47   A    
C73   H22   S    
O11   V4    S    
C48   C49   A    
C77   H43   S    
O13   C64   A    
O24   H30   S    
O7    V2    S    
C36   O24   S    
O4    V1    S    
O3    V1    S    
O17   V4    S    
C45   C80   S    
C20   C21   A    
C18   C20   A    
C28   C68   S    
C52   O30   S    
C59   O26   S    
O19   C64   A    
C24   C25   A    
C70   H14   S    
C53   C74   S    
C33   C34   A    
C55   O27   S    
V3    O20   S    
V4    O20   S    
C73   H21   S    
C73   H20   S    
C74   C75   S    
C45   C49   A    
C45   C46   A    
C6    C21   A    
C68   H19   S    
C71   H25   S    
O11   C62   A    
C7    C11   A    
C78   H42   S    
C55   C56   A    
O18   C63   A    
C65   H11   S    
C34   C35   A    
C70   H13   S    
C39   C42   T    
C43   C61   S    
C77   C78   S    
C10   C11   A    
V1    O10   S    
O37   H64   S    
C9    C10   A    
C7    O34   S    
C61   O16   A    
O34   H61   S    
C72   C73   S    
C48   C50   A    
O21   H27   S    
C70   H15   S    
