data_mof_unit_40648.cif
_audit_creation_date              2013-03-05T15:52:19-0500
_audit_creation_method            fapswitch 2.2
_symmetry_space_group_name_H-M    P1
_symmetry_Int_Tables_number       1
_space_group_crystal_system       triclinic
_cell_length_a                    10.767421
_cell_length_b                    10.728538
_cell_length_c                    17.08353
_cell_angle_alpha                 80.414214
_cell_angle_beta                  99.405124
_cell_angle_gamma                 118.990776
_cell_volume                      1694.24137774

loop_
_atom_site_label
_atom_site_type_symbol
_atom_site_description
_atom_site_fract_x
_atom_site_fract_y
_atom_site_fract_z
_atom_type_partial_charge
O1    O     O_R   0.754020 0.497590 0.609930 -0.475430
O2    O     O_R   0.481420 0.271390 0.600630 -0.492810
C1    C     C_R   0.361558 0.230332 0.627565 0.561137
O3    O     O_R   0.263810 0.254550 0.589590 -0.502118
O4    O     O_R   0.300820 0.531200 0.560890 -0.441613
C2    C     C_R   0.412375 0.620605 0.601722 0.561601
O5    O     O_R   0.491480 0.744020 0.564270 -0.468882
O6    O     O_R   0.726290 0.693800 0.583010 -0.515740
C3    C     C_R   0.776605 0.618941 0.626865 0.589583
O7    O     O_R   0.747830 0.500190 0.434090 -0.468000
O8    O     O_R   0.475680 0.273800 0.437630 -0.505181
C4    C     C_R   0.354278 0.232952 0.397639 0.578824
O9    O     O_R   0.257620 0.257160 0.413750 -0.492055
O10   O     O_R   0.295080 0.533620 0.397890 -0.432884
C5    C     C_R   0.402632 0.625466 0.358829 0.533779
O11   O     O_R   0.485280 0.746620 0.388440 -0.470889
O12   O     O_R   0.720550 0.696220 0.420010 -0.494975
C6    C     C_R   0.767422 0.620759 0.398683 0.581811
Cr1   Cr    Cr6+3 0.608440 0.389080 0.519680 1.096851
Cr2   Cr    Cr6+3 0.288640 0.400090 0.490760 1.130717
Cr3   Cr    Cr6+3 0.602940 0.710800 0.489510 1.092602
O13   O     O_3   0.500010 0.499990 0.499980 -0.357166
C7    C     C_R   0.349913 0.651644 0.836417 0.068717
C8    C     C_R   0.240707 0.548742 0.790188 -0.054931
C9    C     C_R   0.262360 0.534130 0.715437 -0.000633
C10   C     C_R   0.511110 0.701739 0.736601 -0.148483
C11   C     C_R   0.490088 0.717508 0.812808 0.079732
C12   C     C_3   0.090653 0.521245 0.764802 -0.229008
C13   C     C_3   0.114330 0.506019 0.682283 0.105229
C14   C     C_R   0.394136 0.620387 0.684494 0.012686
H1    H     H_    0.616890 0.760744 0.716476 0.127895
H2    H     H_    0.075553 0.615493 0.768072 0.178966
H3    H     H_    0.011919 0.419033 0.794648 0.123634
H4    H     H_    0.047164 0.396387 0.663249 0.135021
C15   C     C_1   0.823017 0.656961 0.705921 -0.034831
C16   C     C_1   0.851355 0.684948 0.773580 -0.057238
C17   C     C_1   0.345221 0.188282 0.709846 -0.021101
C18   C     C_1   0.320434 0.159942 0.778155 -0.027211
C19   C     C_1   0.369561 0.636753 0.274762 -0.038227
C20   C     C_1   0.342934 0.654710 0.204241 -0.032094
C21   C     C_R   0.832262 0.661534 0.158768 0.025143
C22   C     C_R   0.858908 0.565337 0.216084 0.018917
C23   C     C_R   0.845886 0.560855 0.294312 0.020558
C24   C     C_R   0.756459 0.732396 0.260816 -0.119541
C25   C     C_R   0.773306 0.740260 0.180544 -0.164212
C26   C     C_3   0.986721 0.538881 0.236130 0.000250
C27   C     C_3   0.967387 0.528154 0.324738 0.314170
C28   C     C_R   0.803205 0.649495 0.318732 0.039057
H5    H     H_    0.711149 0.793743 0.277579 0.163296
H6    H     H_    0.747960 0.812354 0.136973 0.140435
H7    H     H_    0.084875 0.632868 0.215350 0.134109
C29   C     C_R   0.329247 0.182831 0.155184 0.005174
C30   C     C_R   0.226079 0.202079 0.185210 -0.066048
C31   C     C_R   0.233156 0.210604 0.265227 0.053126
C32   C     C_R   0.456822 0.203912 0.286839 -0.129733
C33   C     C_R   0.452425 0.196602 0.205474 0.189043
C34   C     C_3   0.065849 0.110996 0.180047 -0.183841
C35   C     C_3   0.076721 0.114044 0.269036 0.272316
C36   C     C_R   0.342801 0.202103 0.317395 -0.000296
H8    H     H_    0.547671 0.208706 0.326297 0.216407
H9    H     H_    0.026421 0.001956 0.162665 0.183288
H10   H     H_    0.010860 0.170001 0.144501 0.136940
O14   O     O_R   0.163320 0.092900 0.874450 -0.508356
O15   O     O_R   0.934650 0.822080 0.882840 -0.503015
C37   C     C_R   0.893121 0.702424 0.855604 0.538219
O16   O     O_R   0.915520 0.604140 0.893670 -0.508100
O17   O     O_R   0.191760 0.638110 0.923230 -0.518409
C38   C     C_R   0.315602 0.705889 0.898553 0.566948
O18   O     O_R   0.406180 0.826930 0.920660 -0.474569
O19   O     O_R   0.358620 0.062870 0.901950 -0.490088
C39   C     C_R   0.283935 0.113791 0.857682 0.550263
O20   O     O_R   0.163910 0.085460 0.050210 -0.540924
O21   O     O_R   0.935200 0.815170 0.045770 -0.513135
C40   C     C_R   0.887363 0.690190 0.083431 0.560753
O22   O     O_R   0.916120 0.596690 0.069430 -0.502722
O23   O     O_R   0.192310 0.631200 0.086170 -0.527880
C41   C     C_R   0.316000 0.697319 0.122733 0.541286
O24   O     O_R   0.406770 0.819480 0.096420 -0.475743
O25   O     O_R   0.359170 0.055960 0.064880 -0.434507
C42   C     C_R   0.286712 0.111153 0.083398 0.574180
Cr4   Cr    Cr6+3 0.052530 0.947560 0.964210 1.021078
Cr5   Cr    Cr6+3 0.059970 0.626800 0.992920 1.026679
Cr6   Cr    Cr6+3 0.373320 0.938440 0.995370 1.111103
O26   O     O_3   0.161940 0.837600 0.984160 -0.271633
N1    N     N_3   0.962848 0.405069 0.210213 -0.558138
H11   H     H_    0.854212 0.333897 0.203424 0.324130
H12   H     H_    0.998623 0.425720 0.154049 0.261454
N2    N     N_R   0.920383 0.385110 0.368673 0.133871
O27   O     O_R   0.800302 0.277046 0.346823 -0.353318
O28   O     O_R   0.992169 0.367753 0.434845 -0.272037
N3    N     N_3   0.088562 0.638246 0.369640 -0.497452
H13   H     H_    0.054294 0.688642 0.401817 0.302030
H14   H     H_    0.165604 0.714838 0.333203 0.254296
N4    N     N_R   0.566752 0.190558 0.176500 0.081347
O29   O     O_R   0.619878 0.267807 0.111346 -0.360110
O30   O     O_R   0.616210 0.105657 0.214377 -0.331278
N5    N     N_3   0.998997 0.180814 0.291026 -0.546135
H15   H     H_    0.017890 0.189230 0.352216 0.319344
H16   H     H_    0.889999 0.111741 0.279747 0.274227
N6    N     N_R   0.047403 0.976670 0.315498 0.064387
O31   O     O_R   0.004879 0.948558 0.386400 -0.323815
O32   O     O_R   0.095175 0.898357 0.294095 -0.428641
N7    N     N_3   0.609424 0.807679 0.863536 -0.592236
H17   H     H_    0.665362 0.907149 0.831355 0.241908
H18   H     H_    0.675964 0.760402 0.878861 0.240372
N8    N     N_R   0.111492 0.619383 0.622103 0.100175
O33   O     O_R   0.035417 0.585605 0.554220 -0.273982
O34   O     O_R   0.185054 0.753737 0.635067 -0.327670

loop_
_geom_bond_atom_site_label_1
_geom_bond_atom_site_label_2
_geom_bond_distance
_ccdc_geom_bond_type
C24   H5    1.083000 S    
C32   C33   1.397024 A    
O11   Cr3   2.066394 S    
C32   C36   1.401117 A    
C21   C22   1.401732 A    
N2    O28   1.301496 A    
C15   C16   1.196142 T    
N5    H15   1.042301 S    
C34   H10   1.112580 S    
O4    Cr2   1.939647 S    
C30   C31   1.372451 A    
C24   C25   1.395886 A    
C33   N4    1.432413 S    
O8    Cr1   1.935609 S    
C10   C11   1.407671 A    
O14   Cr4   2.050429 S    
C12   C13   1.521016 S    
C22   C26   1.511307 S    
O4    C2    1.296765 A    
O16   Cr5   2.064446 S    
N8    O33   1.299582 A    
C5    O11   1.299204 A    
O21   C40   1.276188 A    
C21   C40   1.429660 S    
C18   C39   1.416770 S    
C4    C36   1.435326 S    
O24   Cr6   2.060887 S    
C38   O18   1.263113 A    
C7    C8    1.397742 A    
O19   C39   1.267496 A    
C7    C11   1.417831 A    
C23   C28   1.381311 A    
O20   Cr4   2.052741 S    
C26   N1    1.462828 S    
N2    O27   1.299445 A    
C10   H1    1.082958 S    
C32   H8    1.077595 S    
C35   N5    1.458821 S    
O21   Cr4   1.931743 S    
N5    H16   1.046083 S    
O6    Cr3   1.947588 S    
C31   C36   1.389170 A    
N1    H12   1.041801 S    
C9    C13   1.499382 S    
O1    Cr1   2.056337 S    
C40   O22   1.250804 A    
O17   C38   1.275277 A    
O10   Cr2   1.938276 S    
C12   H2    1.110460 S    
Cr1   O13   1.994256 S    
C35   N6    1.463935 S    
C8    C9    1.381696 A    
O23   Cr5   1.946395 S    
N3    H13   1.043704 S    
C30   C34   1.511284 S    
C16   C37   1.414476 S    
O6    C3    1.260370 A    
C41   O24   1.257264 A    
C26   H7    1.109118 S    
O12   Cr3   1.945015 S    
C29   C42   1.447142 S    
C7    C38   1.464335 S    
C17   C18   1.196004 T    
O18   Cr6   2.061992 S    
N3    H14   1.043308 S    
Cr6   O26   1.981682 S    
O7    Cr1   2.052813 S    
N6    O32   1.298806 A    
O12   C6    1.263841 A    
O1    C3    1.278039 A    
N7    H18   1.042036 S    
O23   C41   1.275543 A    
N4    O30   1.301247 A    
O19   Cr6   1.940846 S    
C5    C19   1.421530 S    
N1    H11   1.041222 S    
C2    C14   1.458527 S    
O14   C39   1.279450 A    
C12   H3    1.111354 S    
C10   C14   1.402592 A    
Cr5   O26   1.968918 S    
C13   N8    1.465060 S    
C22   C23   1.356944 A    
C1    O3    1.257734 A    
C19   C20   1.197530 T    
Cr4   O26   1.994427 S    
C29   C30   1.408406 A    
C31   C35   1.495518 S    
C9    C14   1.399461 A    
C26   C27   1.539397 S    
O9    Cr2   2.055621 S    
O2    Cr1   1.933891 S    
C20   C41   1.420045 S    
C27   N3    1.471956 S    
C8    C12   1.495711 S    
Cr2   O13   1.981885 S    
C6    C28   1.423242 S    
O8    C4    1.272823 A    
O22   Cr5   2.061036 S    
C34   H9    1.109061 S    
C2    O5    1.300295 A    
C27   N2    1.470472 S    
O2    C1    1.283335 A    
O20   C42   1.264732 A    
O5    Cr3   2.065349 S    
O15   C37   1.280202 A    
O25   Cr6   1.940862 S    
C34   C35   1.510173 S    
N8    O34   1.302459 A    
C25   H6    1.083174 S    
O7    C6    1.264988 A    
C13   H4    1.112724 S    
C11   N7    1.431185 S    
N6    O31   1.301341 A    
N4    O29   1.301653 A    
O15   Cr4   1.935451 S    
O25   C42   1.284621 A    
O3    Cr2   2.055479 S    
C29   C33   1.413852 A    
C4    O9    1.267205 A    
C1    C17   1.415283 S    
O17   Cr5   1.944979 S    
C37   O16   1.248914 A    
N7    H17   1.045774 S    
C3    C15   1.416132 S    
C21   C25   1.398678 A    
O10   C5    1.297994 A    
Cr3   O13   1.968712 S    
C23   C27   1.505558 S    
C24   C28   1.414722 A    
