data_mof_unit_20674.cif
_audit_creation_date              2012-12-11T20:19:46-0500
_audit_creation_method            fapswitch 2.2
_symmetry_space_group_name_H-M    P1
_symmetry_Int_Tables_number       1
_space_group_crystal_system       triclinic
_cell_length_a                    8.371941
_cell_length_b                    17.456658
_cell_length_c                    22.959505
_cell_angle_alpha                 100.203221
_cell_angle_beta                  89.44469
_cell_angle_gamma                 98.925425
_cell_volume                      3261.84387295

loop_
_atom_site_label
_atom_site_type_symbol
_atom_type_description
_atom_site_fract_x
_atom_site_fract_y
_atom_site_fract_z
_atom_type_partial_charge
Ba1   Ba    Ba6+2 0.857050 0.537370 0.474190 1.903799
Ba2   Ba    Ba6+2 0.332790 0.462700 0.525820 1.839335
C1    C     C_3   0.554667 0.759744 0.267302 -0.344024
C2    C     C_R   0.010377 0.553092 0.952894 -0.044045
C3    C     C_R   0.967911 0.550304 0.892836 0.593675
C4    C     C_3   0.140359 0.728770 0.322299 0.362939
C5    C     C_R   0.035074 0.420336 0.867463 0.582039
C6    C     C_R   0.072238 0.419215 0.928075 -0.063226
C7    C     C_R   0.064165 0.487798 0.970766 -0.035447
C8    C     C_R   0.002087 0.620919 0.995044 -0.019250
C9    C     C_R   0.047108 0.626348 0.054469 -0.043465
C10   C     C_R   0.096868 0.560251 0.073966 -0.047562
C11   C     C_R   0.109484 0.491506 0.031358 -0.070696
C12   C     C_3   0.631668 0.739876 0.322316 0.225557
C13   C     C_R   0.119956 0.352581 0.947190 -0.135657
C14   C     C_R   0.171738 0.357207 0.006401 0.348609
C15   C     C_R   0.167475 0.426765 0.049229 -0.073375
C16   C     C_3   0.125642 0.771142 0.270637 -0.263506
C17   C     C_R   0.217629 0.433706 0.109597 0.720858
C18   C     C_R   0.130746 0.559545 0.134612 0.632900
C19   C     C_2   0.792875 0.439362 0.766275 -0.055948
C20   C     C_3   0.765098 0.423329 0.699190 -0.083892
C21   C     C_1   0.011116 0.519693 0.690963 0.040201
C22   C     C_2   0.055026 0.517702 0.747666 -0.119460
C23   C     C_3   0.480329 0.287450 0.338090 0.647450
C24   C     C_2   0.935275 0.481735 0.788833 0.151103
C25   C     C_R   0.407256 0.539297 0.232367 0.312699
C26   C     C_R   0.449700 0.550768 0.293265 -0.031080
C27   C     C_R   0.182902 0.484124 0.313556 -0.025655
C28   C     C_3   0.280058 0.712045 0.685086 0.197556
C29   C     C_R   0.138224 0.475279 0.253458 -0.125236
C30   C     C_R   0.248021 0.504688 0.212612 0.195413
C31   C     C_2   0.864610 0.485960 0.670077 -0.164650
C32   C     C_2   0.430012 0.725017 0.493522 -0.231105
C33   C     C_3   0.367842 0.770489 0.450033 -0.096440
C34   C     C_3   0.498155 0.236515 0.276851 0.470011
C35   C     C_2   0.415064 0.857293 0.470943 -0.052625
C36   C     C_2   0.553863 0.884211 0.502491 0.076578
C37   C     C_2   0.642923 0.825739 0.523676 -0.055267
C38   C     C_1   0.573997 0.750881 0.519384 0.002038
C39   C     C_R   0.787506 0.139222 0.539778 -0.152174
C40   C     C_3   0.213117 0.733517 0.747580 -0.162426
C41   C     C_R   0.837274 0.220501 0.553815 -0.010903
C42   C     C_R   0.597903 0.243036 0.504527 0.008979
C43   C     C_R   0.548369 0.161472 0.490540 -0.082017
C44   C     C_R   0.641489 0.109093 0.508648 -0.017182
C45   C     C_3   0.037897 0.278168 0.684992 0.364328
C46   C     C_2   0.608840 0.970092 0.520938 -0.096368
C47   C     C_2   0.600467 0.023713 0.485555 0.367613
C48   C     C_R   0.733610 0.272190 0.541823 -0.225927
C49   C     C_3   0.039016 0.285490 0.378260 0.233986
C50   C     C_3   0.041459 0.201694 0.344741 -0.321034
C51   C     C_3   0.781034 0.745286 0.669975 0.785008
C52   C     C_3   0.715663 0.809487 0.715937 0.203991
C53   C     C_2   0.725951 0.812799 0.358351 0.556947
C54   C     C_2   0.923998 0.283924 0.427275 0.550062
C55   C     C_2   0.681766 0.878764 0.689761 0.652534
C56   C     C_3   0.910576 0.217378 0.706568 0.253365
C57   C     C_2   0.403093 0.262192 0.230097 0.631409
C58   C     C_2   0.677541 0.783416 0.222994 0.666767
C59   C     C_2   0.109518 0.275151 0.907121 0.742249
C60   C     C_2   0.053201 0.704689 0.093144 0.632580
C61   C     C_2   0.223569 0.537630 0.771739 0.557971
C62   C     C_2   0.679083 0.401647 0.806695 0.564506
C63   C     C_2   0.308841 0.678924 0.524486 0.492915
C64   C     C_2   0.345906 0.786297 0.662246 0.710647
C65   C     C_3   0.497094 0.254948 0.659399 0.401784
C66   C     C_3   0.447258 0.181468 0.686383 -0.216449
C67   C     C_R   0.334731 0.525434 0.333152 -0.296107
Cl1   Cl    Cl    0.955356 0.793549 0.636802 -0.633167
Cl2   Cl    Cl    0.556351 0.995641 0.408682 -0.673953
Cl3   Cl    Cl    0.839759 0.675683 0.709860 -0.654515
Cl4   Cl    Cl    0.853364 0.847731 0.777438 -0.442879
Cl5   Cl    Cl    0.549426 0.388587 0.335854 -0.703053
Cl6   Cl    Cl    0.419983 0.135988 0.279316 -0.565026
Cl7   Cl    Cl    0.707063 0.240973 0.257686 -0.476776
Cl8   Cl    Cl    0.002358 0.149194 0.739042 -0.512101
Cl9   Cl    Cl    0.230874 0.271225 0.025928 -0.484140
Cl10  Cl    Cl    0.552755 0.564447 0.180194 -0.577643
H1    H     H_    0.138212 0.682416 0.761604 0.157970
H2    H     H_    0.532244 0.718970 0.350844 -0.066385
H3    H     H_    0.467780 0.707929 0.246137 0.133254
H4    H     H_    0.352042 0.279981 0.347736 -0.206906
H5    H     H_    0.171477 0.835036 0.284025 0.137740
H6    H     H_    0.124419 0.305046 0.721900 0.142127
H7    H     H_    0.980506 0.327224 0.674173 -0.190634
H8    H     H_    0.835436 0.247896 0.740409 0.099739
H9    H     H_    0.830990 0.184184 0.669292 0.002791
H10   H     H_    0.631359 0.264927 0.658278 -0.140926
H11   H     H_    0.447042 0.243638 0.613547 0.039058
H12   H     H_    0.314502 0.756024 0.779987 0.111018
H13   H     H_    0.496936 0.131168 0.659845 0.063580
H14   H     H_    0.313952 0.166363 0.686500 0.188908
H15   H     H_    0.076595 0.667115 0.310900 0.072801
H16   H     H_    0.494992 0.190940 0.732446 0.183147
H17   H     H_    0.965142 0.671811 0.981082 0.175418
H18   H     H_    0.019611 0.444518 0.238180 0.152774
H19   H     H_    0.368516 0.532630 0.379414 0.113646
H20   H     H_    0.270520 0.727901 0.329653 -0.122511
H21   H     H_    0.810577 0.505207 0.633390 0.067976
H22   H     H_    0.763217 0.845332 0.543054 0.126447
H23   H     H_    0.134871 0.779508 0.749537 0.230152
H24   H     H_    0.869191 0.099781 0.548126 0.101190
H25   H     H_    0.653429 0.990085 0.566228 0.068216
H26   H     H_    0.339962 0.897318 0.458386 0.131190
H27   H     H_    0.444880 0.138762 0.461120 0.139941
H28   H     H_    0.772992 0.335108 0.552722 0.081687
H29   H     H_    0.198613 0.747255 0.233271 0.110676
H30   H     H_    0.997585 0.763240 0.255870 0.136428
H31   H     H_    0.382044 0.679084 0.686785 0.080450
H32   H     H_    0.747379 0.868032 0.341942 0.024190
H33   H     H_    0.848881 0.229279 0.432448 -0.083817
H34   H     H_    0.157351 0.310769 0.396532 0.062417
H35   H     H_    0.694518 0.879211 0.642940 -0.088011
H36   H     H_    0.274504 0.263100 0.235348 -0.035800
H37   H     H_    0.768790 0.835107 0.235103 -0.024533
H38   H     H_    0.214654 0.245421 0.900797 0.057079
H39   H     H_    0.144510 0.724915 0.127837 0.029197
H40   H     H_    0.261150 0.506505 0.804823 0.025471
H41   H     H_    0.665791 0.431983 0.851593 0.007541
H42   H     H_    0.227852 0.708548 0.553914 0.050437
H43   H     H_    0.423292 0.782869 0.624393 -0.335414
H44   H     H_    0.917046 0.171490 0.331450 0.191711
H45   H     H_    0.096641 0.167044 0.373095 0.104538
H46   H     H_    0.112717 0.202958 0.303978 0.155543
H47   H     H_    0.484863 0.808951 0.280983 0.052428
H48   H     H_    0.602490 0.782574 0.734699 0.019401
N1    N     N_R   0.980328 0.484436 0.850967 -0.457560
N2    N     N_R   0.197750 0.499004 0.151043 -0.420216
O1    O     O_2   0.889310 0.456460 0.358460 -0.360577
O2    O     O_2   0.158382 0.217140 0.523077 -0.494297
O3    O     O_3   0.124970 0.241928 0.637920 -0.593752
O4    O     O_3   0.129890 0.457280 0.429550 -0.436111
O5    O     O_3   0.576930 0.595420 0.534060 -0.429527
O6    O     O_2   0.340570 0.306450 0.462190 -0.495734
O7    O     O_3   0.565938 0.260918 0.380994 -0.589208
O8    O     O_2   0.460275 0.472443 0.705422 -0.434268
O9    O     O_3   0.436299 0.319586 0.692863 -0.548794
O10   O     O_2   0.920093 0.606683 0.877768 -0.527312
O11   O     O_2   0.055081 0.365113 0.828884 -0.595633
O12   O     O_3   0.652562 0.700299 0.632411 -0.688439
O13   O     O_2   0.279202 0.381872 0.125634 -0.449245
O14   O     O_2   0.097168 0.611822 0.173216 -0.615572
O15   O     O_3   0.674650 0.600620 0.400940 -0.460827
O16   O     O_2   0.778031 0.539020 0.295427 -0.390031
O17   O     O_3   0.994880 0.331745 0.339640 -0.573492
O18   O     O_3   0.736714 0.684206 0.305092 -0.574838
O19   O     O_2   0.849130 0.693580 0.537840 -0.404328
O20   O     O_3   0.093680 0.641380 0.431770 -0.477221
O21   O     O_2   0.049299 0.782911 0.487385 -0.415036
O22   O     O_2   0.781020 0.810387 0.406768 -0.541659
O23   O     O_3   0.070385 0.768929 0.372030 -0.550899
O24   O     O_2   0.913684 0.344757 0.461376 -0.589838
O25   O     O_2   0.636270 0.935085 0.721163 -0.442828
O26   O     O_2   0.468214 0.282641 0.186311 -0.404392
O27   O     O_2   0.674279 0.745530 0.172854 -0.457662
O28   O     O_2   0.980995 0.242408 0.883399 -0.451802
O29   O     O_2   0.958917 0.748873 0.085271 -0.499196
O30   O     O_2   0.321704 0.589751 0.757610 -0.575327
O31   O     O_2   0.606060 0.335157 0.791627 -0.564137
O32   O     O_2   0.282731 0.608050 0.509323 -0.513251
O33   O     O_2   0.312737 0.850667 0.684675 -0.489546
O34   O     O_2   0.300380 0.543560 0.641570 -0.437480
O35   O     O_3   0.059830 0.542790 0.570460 -0.418189
O36   O     O_3   0.515070 0.399440 0.599070 -0.499937
O37   O     O_3   0.157111 0.670762 0.644879 -0.587876
O38   O     O_3   0.612780 0.404640 0.465950 -0.391985
O39   O     O_3   0.096040 0.358680 0.568240 -0.450277
P1    P     P_3+3 0.055640 0.433080 0.366120 1.124835
P2    P     P_3+3 0.671420 0.681950 0.554390 1.081512
P3    P     P_3+3 0.143939 0.742968 0.435459 1.031912
P4    P     P_3+3 0.134070 0.566990 0.633890 1.116780
P5    P     P_3+3 0.052907 0.258466 0.570756 0.988706
P6    P     P_3+3 0.656847 0.592644 0.323479 1.127840
P7    P     P_3+3 0.527777 0.304022 0.454404 1.078272
P8    P     P_3+3 0.546624 0.405378 0.674551 1.020151

loop_
_geom_bond_atom_site_label_1
_geom_bond_atom_site_label_2
_ccdc_geom_bond_type
C17   N2    Am   
C19   C24   D    
O37   P4    S    
C33   P3    S    
C26   C67   A    
C16   H30   S    
C61   O30   D    
C18   N2    Am   
C34   C57   S    
C56   H8    S    
C38   P2    S    
C1    H47   S    
C5    C6    A    
C51   C52   S    
C42   C43   A    
O36   P8    S    
C40   H1    S    
C44   C47   S    
Ba2   O5    S    
C28   H31   S    
C32   C38   D    
C45   H6    S    
C33   C35   S    
C22   C24   S    
C23   Cl5   S    
C25   Cl10  S    
C36   C37   S    
C50   H44   S    
Ba1   O38   S    
O1    P1    D    
C13   C14   A    
C46   H25   S    
Ba1   P2    S    
C65   H10   S    
C64   O33   D    
C32   C33   S    
C65   O9    S    
C23   O7    S    
O4    P1    S    
C19   C62   S    
C7    C11   A    
C34   Cl7   S    
C56   Cl8   S    
C66   H13   S    
C21   P4    S    
O21   P3    D    
Ba1   O35   S    
C14   C15   A    
C21   C31   D    
C16   H5    S    
C21   C22   D    
C64   H43   S    
Ba1   O20   S    
C63   H42   S    
C5    N1    Am   
C51   O12   S    
C36   C46   S    
C50   H45   S    
C4    O23   S    
C67   H19   S    
C9    C60   S    
C12   C53   S    
O7    P7    S    
C19   C20   S    
C39   C41   A    
C18   O14   D    
C62   O31   D    
Ba1   O4    S    
C51   Cl1   S    
C40   H23   S    
C32   C63   S    
C30   N2    S    
C3    O10   D    
C27   C67   A    
O39   P5    S    
C4    C16   S    
O18   P6    S    
C66   H16   S    
C59   H38   S    
C65   C66   S    
Ba2   O4    S    
C45   H7    S    
C28   O37   S    
O8    P8    D    
Ba1   O1    S    
Ba2   O35   S    
C37   C38   D    
O23   P3    S    
C57   O26   D    
C6    C7    A    
C49   O17   S    
C4    H15   S    
C43   C44   A    
C12   O18   S    
O2    P5    D    
C65   H11   S    
C39   H24   S    
O6    P7    D    
C58   O27   D    
C35   H26   S    
C35   C36   D    
C34   Cl6   S    
C59   O28   D    
C52   Cl4   S    
C61   H40   S    
O19   P2    D    
C29   C30   A    
C8    H17   S    
C39   C44   A    
C42   P7    S    
C10   C18   A    
C1    H3    S    
C60   O29   D    
C13   C59   S    
C24   N1    S    
O16   P6    D    
O34   P4    D    
Ba2   O36   S    
O15   P6    S    
C28   C64   S    
C1    C12   S    
C54   O24   D    
C46   C47   D    
C6    C13   A    
O5    P2    S    
O9    P8    S    
C48   H28   S    
O35   P4    S    
C2    C8    A    
Ba1   O5    S    
Ba2   O39   S    
C43   H27   S    
O38   P7    S    
C55   O25   D    
C42   C48   A    
C20   C31   S    
C17   O13   D    
C53   H32   S    
C25   C30   A    
O20   P3    S    
C49   H34   S    
C49   C54   S    
C2    C3    A    
C56   H9    S    
Ba2   O34   S    
C20   P8    S    
C50   H46   S    
C41   C48   A    
C53   O22   D    
C55   H35   S    
C22   C61   S    
C52   H48   S    
Ba2   O6    S    
C62   H41   S    
C37   H22   S    
C11   C15   A    
C45   O3    S    
C31   H21   S    
C4    H20   S    
C49   C50   S    
C27   C29   A    
Ba1   O15   S    
C1    C58   S    
C45   C56   S    
C41   P5    S    
C26   P6    S    
C5    O11   D    
Ba1   Ba2   S    
C3    N1    Am   
Ba1   P1    S    
O12   P2    S    
C15   C17   A    
C14   Cl9   S    
O3    P5    S    
C29   H18   S    
C66   H14   S    
C16   H29   S    
C60   H39   S    
C58   H37   S    
C8    C9    A    
C23   C34   S    
C10   C11   A    
C57   H36   S    
C47   Cl2   S    
O17   P1    S    
C63   O32   D    
C25   C26   A    
C23   H4    S    
C28   C40   S    
Ba1   O19   S    
C12   H2    S    
C27   P1    S    
C2    C7    A    
C51   Cl3   S    
Ba2   O38   S    
C54   H33   S    
C40   H12   S    
C9    C10   A    
Ba2   P4    S    
C52   C55   S    
