data_mof_unit_43100.cif
_audit_creation_date              2012-12-10T17:10:13-0500
_audit_creation_method            fapswitch 2.2
_symmetry_space_group_name_H-M    P1
_symmetry_Int_Tables_number       1
_space_group_crystal_system       triclinic
_cell_length_a                    15.725114
_cell_length_b                    10.694123
_cell_length_c                    10.078968
_cell_angle_alpha                 90.149551
_cell_angle_beta                  89.789719
_cell_angle_gamma                 90.571071
_cell_volume                      1694.84157259

loop_
_atom_site_label
_atom_site_type_symbol
_atom_type_description
_atom_site_fract_x
_atom_site_fract_y
_atom_site_fract_z
_atom_type_partial_charge
C1    C     C_R   0.503114 0.262439 0.499932 0.820439
C2    C     C_2   0.477214 0.866795 0.501328 -0.255172
C3    C     C_2   0.472152 0.067236 0.399888 -0.250582
C4    C     C_R   0.338146 0.500099 0.500225 0.883078
C5    C     C_2   0.512120 0.129192 0.497768 0.329586
C6    C     C_2   0.540903 0.583268 0.924851 0.480516
C7    C     C_2   0.552948 0.564764 0.072384 -0.148304
C8    C     C_R   0.494883 0.736844 0.500149 0.909132
C9    C     C_R   0.661808 0.499923 0.499899 0.879151
C10   C     C_3   0.971955 0.399038 0.572745 -0.139563
C11   C     C_3   0.027406 0.391110 0.446914 -0.125117
C12   C     C_3   0.083198 0.498786 0.499773 -0.010656
C13   C     C_1   0.249334 0.500397 0.500894 -0.071758
C14   C     C_1   0.750520 0.498619 0.500100 -0.130816
C15   C     C_3   0.027468 0.507609 0.624329 0.463977
C16   C     C_2   0.057192 0.271911 0.384211 0.974437
C17   C     C_3   0.563993 0.085467 0.709495 0.070493
C18   C     C_3   0.637817 0.161018 0.768961 -0.311400
C19   C     C_3   0.626680 0.179658 0.918205 -0.916228
C20   C     C_3   0.650158 0.691513 0.820106 0.126326
C21   C     C_3   0.704090 0.799489 0.875867 -0.378875
C22   C     C_3   0.781202 0.827128 0.787624 -0.947619
C23   C     C_3   0.971141 0.605620 0.555926 -0.311438
C24   C     C_2   0.629284 0.620411 0.132812 0.987019
C25   C     C_2   0.416539 0.475935 0.103291 1.001809
C26   C     C_2   0.942706 0.289480 0.654140 0.937469
C27   C     C_2   0.056466 0.704891 0.350126 0.932938
C28   C     C_3   0.998445 0.533530 0.849246 0.105934
C29   C     C_3   0.001883 0.667243 0.903368 -0.379966
C30   C     C_3   0.937141 0.685475 0.014667 -0.841053
C31   C     C_3   0.916359 0.495916 0.502611 0.058460
C32   C     C_3   0.026895 0.594596 0.429880 -0.035846
C33   C     C_3   0.970452 0.487007 0.375238 -0.239824
C34   C     C_1   0.174099 0.500149 0.501003 0.145178
C35   C     C_1   0.825678 0.497194 0.501291 0.071790
C36   C     C_2   0.478254 0.933243 0.389887 -0.086924
H1    H     H_    0.489693 0.415273 0.894310 0.108971
H2    H     H_    0.698133 0.110604 0.750299 0.234199
H3    H     H_    0.642621 0.253889 0.720404 0.256265
H4    H     H_    0.566535 0.229238 0.939725 0.257887
H5    H     H_    0.680539 0.236501 0.957310 0.279396
H6    H     H_    0.625503 0.088169 0.969958 0.269079
H7    H     H_    0.646774 0.704677 0.711300 0.199117
H8    H     H_    0.683374 0.601484 0.839407 0.125861
H9    H     H_    0.665263 0.885108 0.883557 0.244528
H10   H     H_    0.726647 0.775922 0.976705 0.240768
H11   H     H_    0.818606 0.740923 0.770943 0.260730
H12   H     H_    0.944877 0.476926 0.273312 0.169346
H13   H     H_    0.822534 0.898541 0.835916 0.283294
H14   H     H_    0.760288 0.863952 0.690203 0.280008
H15   H     H_    0.680983 0.764441 0.234688 0.334996
H16   H     H_    0.310463 0.538600 0.014114 0.352448
H17   H     H_    0.844701 0.190618 0.730659 0.339939
H18   H     H_    0.154669 0.800070 0.268409 0.353890
H19   H     H_    0.011132 0.467722 0.931807 0.187274
H20   H     H_    0.932790 0.511791 0.813553 0.118003
H21   H     H_    0.066638 0.687864 0.942091 0.257030
H22   H     H_    0.988416 0.734295 0.822424 0.226317
H23   H     H_    0.945846 0.693300 0.599106 0.165487
H24   H     H_    0.872233 0.659389 0.980920 0.268010
H25   H     H_    0.937250 0.784991 0.046302 0.298281
H26   H     H_    0.953850 0.626569 0.100820 0.266619
H27   H     H_    0.484766 0.890712 0.292426 0.212117
H28   H     H_    0.462714 0.909352 0.596529 0.161617
H29   H     H_    0.432810 0.114800 0.327658 0.170934
H30   H     H_    0.155931 0.165542 0.326905 0.355395
H31   H     H_    0.564665 0.990532 0.753599 0.172647
H32   H     H_    0.501460 0.125622 0.738680 0.146197
N1    N     N_2   0.500900 0.501330 0.852150 -0.202760
N2    N     N_2   0.500930 0.501360 0.147810 -0.224926
O1    O     O_R   0.499990 0.319060 0.613040 -0.637901
O2    O     O_R   0.144102 0.249125 0.370557 -0.793741
O3    O     O_3   0.576205 0.072060 0.570771 -0.631622
O4    O     O_3   0.565978 0.697035 0.870562 -0.613765
O5    O     O_2   0.697053 0.565815 0.124908 -0.667362
O6    O     O_R   0.624345 0.736132 0.196728 -0.786033
O7    O     O_2   0.383409 0.374989 0.128939 -0.613994
O8    O     O_R   0.369918 0.568096 0.038193 -0.796213
O9    O     O_2   0.995310 0.220835 0.704044 -0.592760
O10   O     O_R   0.855935 0.266671 0.673178 -0.815111
O11   O     O_2   0.004449 0.779638 0.309527 -0.606141
O12   O     O_R   0.500010 0.319100 0.386900 -0.607388
O13   O     O_R   0.142953 0.722307 0.323086 -0.803910
O14   O     O_3   0.062905 0.517271 0.752514 -0.619475
O15   O     O_R   0.376760 0.499970 0.613050 -0.597989
O16   O     O_R   0.376790 0.500010 0.386910 -0.589503
O17   O     O_R   0.499990 0.680900 0.613100 -0.588212
O18   O     O_R   0.500010 0.680940 0.386960 -0.589821
O19   O     O_R   0.623210 0.499990 0.613090 -0.659356
O20   O     O_R   0.623240 0.500030 0.386950 -0.584020
O21   O     O_2   0.004910 0.195040 0.345228 -0.586397
Zn1   Zn    Zn3+2 0.499980 0.499970 0.650990 0.978567
Zn2   Zn    Zn3+2 0.500020 0.500030 0.349010 1.036591

loop_
_geom_bond_atom_site_label_1
_geom_bond_atom_site_label_2
_ccdc_geom_bond_type
C6    N1    D    
H1    N1    S    
C28   O14   S    
C16   O2    S    
C9    C14   S    
C7    N2    D    
C28   H20   S    
C23   H23   S    
C1    O1    A    
C25   O7    D    
C28   C29   S    
C10   C15   S    
C4    O16   A    
C7    C24   S    
C18   C19   S    
C4    C13   S    
C10   C31   S    
C28   H19   S    
H30   O2    S    
O1    Zn1   S    
C30   H24   S    
C31   C33   S    
N1    Zn1   S    
C19   H6    S    
C22   H14   S    
C10   C26   S    
C15   C23   S    
C22   H11   S    
O12   Zn2   S    
C21   C22   S    
C12   C32   S    
C17   O3    S    
C3    H29   S    
H16   O8    S    
H18   O13   S    
C20   H8    S    
O15   Zn1   S    
C2    H28   S    
C6    O4    S    
C21   H9    S    
C17   H31   S    
C25   O8    S    
C11   C33   S    
N2    Zn2   S    
H15   O6    S    
C19   H4    S    
C9    O19   A    
C14   C35   T    
C24   O6    S    
C4    O15   A    
C1    O12   A    
C26   O10   S    
C8    O18   A    
C23   C31   S    
C18   H3    S    
C29   C30   S    
O16   Zn2   S    
C11   C16   S    
C12   C15   S    
C27   O11   D    
H17   O10   S    
C17   C18   S    
C20   O4    S    
C29   H22   S    
O19   Zn1   S    
C15   O14   S    
C22   H13   S    
C29   H21   S    
C30   H26   S    
C31   C35   S    
C12   C34   S    
C36   H27   S    
C1    C5    S    
C20   H7    S    
O20   Zn2   S    
C21   H10   S    
C2    C36   D    
O18   Zn2   S    
C17   H32   S    
C27   C32   S    
C2    C8    S    
C3    C5    D    
C9    O20   A    
C11   C12   S    
C24   O5    D    
C6    C7    S    
C26   O9    D    
C8    O17   A    
C23   C32   S    
C27   O13   S    
C18   H2    S    
C13   C34   T    
C32   C33   S    
C3    C36   S    
C5    O3    S    
C10   C11   S    
C20   C21   S    
C16   O21   D    
C30   H25   S    
C33   H12   S    
C25   N2    S    
O17   Zn1   S    
C19   H5    S    
