data_mof_unit_17401.cif
_audit_creation_date              2012-12-10T19:43:24-0500
_audit_creation_method            fapswitch 2.2
_symmetry_space_group_name_H-M    P1
_symmetry_Int_Tables_number       1
_space_group_crystal_system       triclinic
_cell_length_a                    10.843611
_cell_length_b                    10.774753
_cell_length_c                    9.596442
_cell_angle_alpha                 90.432607
_cell_angle_beta                  90.154679
_cell_angle_gamma                 92.370835
_cell_volume                      1120.22493258

loop_
_atom_site_label
_atom_site_type_symbol
_atom_type_description
_atom_site_fract_x
_atom_site_fract_y
_atom_site_fract_z
_atom_type_partial_charge
C1    C     C_R   0.495313 0.262627 0.499609 0.787185
C2    C     C_R   0.264004 0.731665 0.052758 -0.117978
C3    C     C_R   0.935360 0.549966 0.388645 -0.258505
C4    C     C_R   0.871515 0.496026 0.501174 -0.073965
C5    C     C_R   0.936804 0.446597 0.614310 0.006649
C6    C     C_R   0.064909 0.453506 0.612525 -0.258165
C7    C     C_R   0.128676 0.506697 0.499679 -0.076587
C8    C     C_R   0.063528 0.557618 0.387370 0.008025
C9    C     C_R   0.882434 0.437088 0.867230 -0.158749
C10   C     C_R   0.819942 0.380393 0.978710 -0.149495
C11   C     C_R   0.749800 0.270051 0.957332 -0.101646
C12   C     C_R   0.262593 0.502998 0.499781 0.772720
C13   C     C_R   0.742533 0.215824 0.824564 -0.092949
C14   C     C_R   0.804933 0.272176 0.712813 -0.112695
C15   C     C_R   0.874682 0.383711 0.733366 0.126779
C16   C     C_R   0.309321 0.122997 0.662194 -0.184951
C17   C     C_R   0.227138 0.055605 0.746684 -0.144650
C18   C     C_R   0.230277 0.926954 0.750515 -0.162754
C19   C     C_R   0.313816 0.864724 0.668659 -0.202758
C20   C     C_R   0.401082 0.931189 0.585633 0.099015
C21   C     C_R   0.399530 0.062333 0.583413 0.100565
C22   C     C_R   0.485876 0.128563 0.498840 -0.109022
C23   C     C_R   0.496138 0.737182 0.500482 0.764586
C24   C     C_R   0.566739 0.066324 0.412761 -0.217651
C25   C     C_R   0.567342 0.938433 0.413766 -0.223411
C26   C     C_R   0.487555 0.870719 0.501326 -0.106326
C27   C     C_R   0.658158 0.670105 0.145436 -0.240495
C28   C     C_R   0.727482 0.760262 0.074618 -0.240699
C29   C     C_R   0.725303 0.762982 0.930392 0.274179
C30   C     C_R   0.655467 0.672117 0.857918 -0.220134
C31   C     C_R   0.577021 0.584171 0.926216 0.182724
C32   C     C_R   0.577512 0.583758 0.075585 0.220156
C33   C     C_R   0.426249 0.420113 0.073018 -0.046188
C34   C     C_R   0.737477 0.497698 0.500347 0.775343
C35   C     C_R   0.426375 0.420059 0.925107 -0.060756
C36   C     C_R   0.269937 0.784134 0.186322 -0.097591
C37   C     C_R   0.201006 0.730141 0.294603 -0.115014
C38   C     C_R   0.126573 0.622271 0.269997 0.127179
C39   C     C_R   0.118332 0.572150 0.134608 -0.150805
C40   C     C_R   0.186855 0.626925 0.026338 -0.157890
Cu1   Cu    Cu3+1 0.499990 0.499990 0.640660 0.924104
Cu2   Cu    Cu3+1 0.500010 0.500010 0.359340 0.935338
H1    H     H_    0.700849 0.226769 0.043567 0.128687
H2    H     H_    0.688002 0.130511 0.808031 0.141510
H3    H     H_    0.797796 0.229937 0.610155 0.103377
H4    H     H_    0.632035 0.117253 0.347042 0.150112
H5    H     H_    0.299504 0.222244 0.657934 0.138190
H6    H     H_    0.167089 0.874422 0.816102 0.141394
H7    H     H_    0.307117 0.764543 0.670530 0.158291
H8    H     H_    0.632846 0.892159 0.348419 0.145467
H9    H     H_    0.365467 0.354928 0.127476 0.134990
H10   H     H_    0.329368 0.865524 0.206475 0.138660
H11   H     H_    0.670975 0.673462 0.254937 0.207444
H12   H     H_    0.782610 0.828788 0.133121 0.153930
H13   H     H_    0.667377 0.673928 0.748474 0.200899
H14   H     H_    0.365678 0.354808 0.869261 0.126386
H15   H     H_    0.208042 0.770183 0.398268 0.105871
H16   H     H_    0.062104 0.488626 0.114129 0.121565
H17   H     H_    0.182118 0.586733 0.922621 0.133029
H18   H     H_    0.885393 0.590063 0.303168 0.148942
H19   H     H_    0.115016 0.413251 0.697931 0.145489
H20   H     H_    0.934713 0.523695 0.884425 0.127251
H21   H     H_    0.824921 0.422613 0.081406 0.139971
N1    N     N_R   0.501190 0.501210 0.147910 -0.187832
N2    N     N_R   0.501230 0.501290 0.852040 -0.186389
O1    O     O_R   0.499990 0.319640 0.618810 -0.577331
O2    O     O_R   0.500000 0.319660 0.381240 -0.580242
O3    O     O_R   0.319640 0.500000 0.618780 -0.603298
O4    O     O_R   0.319650 0.500020 0.381210 -0.560916
O5    O     O_R   0.500000 0.680340 0.618760 -0.608733
O6    O     O_R   0.500010 0.680360 0.381190 -0.584243
O7    O     O_R   0.680350 0.499980 0.618790 -0.579533
O8    O     O_R   0.680360 0.500000 0.381220 -0.605702
H22   H     H_    0.319899 0.771702 0.970070 0.138179
H23   H     H_    0.159818 0.103289 0.808033 0.130961
N3    N     N_2   0.789012 0.860427 0.857336 -0.428482
H24   H     H_    0.759848 0.871934 0.755938 0.242728
C41   C     C_3   0.921737 0.862729 0.869835 -0.710381
H25   H     H_    0.961052 0.944588 0.813239 0.227314
H26   H     H_    0.958106 0.776711 0.823527 0.222231
H27   H     H_    0.950937 0.871255 0.980614 0.237495

loop_
_geom_bond_atom_site_label_1
_geom_bond_atom_site_label_2
_ccdc_geom_bond_type
C12   O4    A    
C16   C21   A    
Cu2   N1    S    
Cu1   Cu2   S    
C19   C20   A    
C7    C8    A    
C29   N3    S    
C12   O3    A    
C37   C38   A    
C6    H19   S    
C28   C29   A    
N3    C41   S    
C5    C6    A    
C41   H26   S    
C35   N2    A    
C18   C19   A    
C23   C26   S    
C25   H8    S    
C1    O2    A    
C10   H21   S    
C16   C17   A    
C11   H1    S    
C14   H3    S    
C9    C10   A    
C36   H10   S    
C3    H18   S    
C27   C32   A    
C1    C22   S    
C40   H17   S    
C21   C22   A    
C23   O5    A    
C8    C38   S    
C16   H5    S    
C17   C18   A    
Cu1   O3    S    
C7    C12   S    
C4    C34   S    
C9    H20   S    
C23   O6    A    
C38   C39   A    
N3    H24   S    
C32   N1    A    
C3    C8    A    
C39   C40   A    
C28   H12   S    
C41   H25   S    
Cu1   N2    S    
C25   C26   A    
C39   H16   S    
Cu2   O4    S    
C29   C30   A    
C19   H7    S    
C31   C32   A    
C1    O1    A    
C24   C25   A    
C2    H22   S    
C6    C7    A    
Cu1   O7    S    
Cu2   O2    S    
C22   C24   A    
C3    C4    A    
C34   O7    A    
C2    C36   A    
C31   N2    A    
C36   C37   A    
Cu2   O8    S    
C35   H14   S    
C4    C5    A    
C18   H6    S    
C27   H11   S    
Cu1   O1    S    
C33   H9    S    
C30   H13   S    
C24   H4    S    
C9    C15   A    
C11   C13   A    
C41   H27   S    
C30   C31   A    
C20   C26   A    
C33   N1    A    
Cu2   O6    S    
C33   C35   A    
C5    C15   S    
C10   C11   A    
C34   O8    A    
C2    C40   A    
C20   C21   A    
C27   C28   A    
C17   H23   S    
C14   C15   A    
C13   C14   A    
C13   H2    S    
C37   H15   S    
Cu1   O5    S    
