data_mof_unit_59778.cif
_audit_creation_date              2013-03-05T16:35:52-0500
_audit_creation_method            fapswitch 2.2
_symmetry_space_group_name_H-M    P1
_symmetry_Int_Tables_number       1
_space_group_crystal_system       triclinic
_cell_length_a                    23.524117
_cell_length_b                    9.091212
_cell_length_c                    7.77936
_cell_angle_alpha                 90.019078
_cell_angle_beta                  90.000019
_cell_angle_gamma                 90.0
_cell_volume                      1663.71511205

loop_
_atom_site_label
_atom_site_type_symbol
_atom_site_description
_atom_site_fract_x
_atom_site_fract_y
_atom_site_fract_z
_atom_type_partial_charge
O1    O     O_R   0.500000 0.288390 0.642760 -0.573829
O2    O     O_R   0.500000 0.711610 0.357240 -0.573829
O3    O     O_R   0.500000 0.711610 0.642760 -0.577411
O4    O     O_R   0.500000 0.288390 0.357240 -0.577411
H1    H     H_    0.948327 0.177103 0.716163 0.195197
H2    H     H_    0.051673 0.822897 0.283836 0.195196
H3    H     H_    0.948324 0.822896 0.283841 0.195197
H4    H     H_    0.051676 0.177107 0.716168 0.195197
C1    C     C_R   0.500000 0.219999 0.499983 0.849449
C2    C     C_R   0.500000 0.780001 0.500017 0.849449
O5    O     O_R   0.417880 0.500000 0.642820 -0.583156
O6    O     O_R   0.582120 0.500000 0.357180 -0.583157
O7    O     O_R   0.582120 0.500000 0.642820 -0.583157
O8    O     O_R   0.417880 0.500000 0.357180 -0.583156
C3    C     C_R   0.208907 0.500005 0.499999 0.273753
C4    C     C_R   0.791093 0.499996 0.500002 0.273753
C5    C     C_R   0.390662 0.500000 0.500000 0.807141
C6    C     C_R   0.609338 0.500000 0.500000 0.807142
Cu1   Cu    Cu3+1 0.500000 0.500000 0.669080 1.009359
Cu2   Cu    Cu3+1 0.500000 0.500000 0.330920 1.009359
C7    C     C_R   0.298248 0.552557 0.643356 -0.241265
C8    C     C_R   0.701752 0.447458 0.356637 -0.241267
C9    C     C_R   0.298248 0.447449 0.356642 -0.241265
C10   C     C_R   0.701752 0.552537 0.643365 -0.241267
H5    H     H_    0.321088 0.594482 0.754107 0.162980
H6    H     H_    0.678912 0.405545 0.245880 0.162981
H7    H     H_    0.321088 0.405523 0.245892 0.162980
H8    H     H_    0.678912 0.594450 0.754122 0.162982
C11   C     C_R   0.328215 0.500002 0.500000 -0.053816
C12   C     C_R   0.671785 0.499999 0.500000 -0.053817
C13   C     C_R   0.880479 0.614117 0.423705 0.554801
C14   C     C_R   0.119521 0.385887 0.576304 0.554799
C15   C     C_R   0.880479 0.385878 0.576298 0.554800
C16   C     C_R   0.119521 0.614120 0.423698 0.554798
N1    N     N_R   0.852131 0.499997 0.500002 -0.475502
N2    N     N_R   0.147869 0.500004 0.500000 -0.475503
C17   C     C_R   0.940089 0.383499 0.578013 -0.015587
C18   C     C_R   0.059911 0.616501 0.421987 -0.015586
C19   C     C_R   0.940088 0.616499 0.421990 -0.015587
C20   C     C_R   0.059912 0.383504 0.578016 -0.015586
C21   C     C_R   0.970009 0.500000 0.500002 -0.015645
C22   C     C_R   0.029991 0.500001 0.500002 -0.015646
C23   C     C_R   0.970346 0.267899 0.655403 -0.152181
C24   C     C_R   0.029654 0.732101 0.344598 -0.152181
C25   C     C_R   0.970344 0.732101 0.344601 -0.152180
C26   C     C_R   0.029656 0.267902 0.655406 -0.152180
C27   C     C_1   0.500000 0.065370 0.499977 -0.166421
C28   C     C_1   0.500000 0.934630 0.500023 -0.166421
C29   C     C_R   0.238873 0.554313 0.643181 0.010045
C30   C     C_R   0.761127 0.445700 0.356815 0.010046
C31   C     C_R   0.238873 0.445696 0.356818 0.010045
C32   C     C_R   0.761127 0.554292 0.643189 0.010045
N3    N     N_1   0.500000 0.500000 0.076820 -0.047240
N4    N     N_1   0.500000 0.500000 0.923180 -0.047240
O9    O     O_2   0.850988 0.724746 0.350103 -0.512224
O10   O     O_2   0.149012 0.275262 0.649916 -0.512225
O11   O     O_2   0.850990 0.275248 0.649901 -0.512226
O12   O     O_2   0.149010 0.724745 0.350085 -0.512226
C33   C     C_1   0.209075 0.613999 0.789568 0.287733
N5    N     N_1   0.185117 0.662171 0.906690 -0.221257
C34   C     C_1   0.790925 0.386019 0.210427 0.287737
N6    N     N_1   0.814885 0.337850 0.093305 -0.221264
C35   C     C_1   0.209075 0.386015 0.210429 0.287733
N7    N     N_1   0.185116 0.337847 0.093305 -0.221258
C36   C     C_1   0.790925 0.613966 0.789581 0.287736
N8    N     N_1   0.814885 0.662129 0.906706 -0.221266

loop_
_geom_bond_atom_site_label_1
_geom_bond_atom_site_label_2
_geom_bond_distance
_ccdc_geom_bond_type
C10   C32   1.396846 A    
C9    C11   1.403067 A    
C18   C24   1.404983 A    
C6    C12   1.468999 S    
C9    H7    1.084453 S    
C5    C11   1.468999 S    
C21   C22   1.411021 A    
C9    C31   1.396841 A    
C27   C28   1.188590 T    
C29   C33   1.442994 S    
C8    C30   1.396844 A    
C19   C25   1.404978 A    
O3    Cu1   1.934725 S    
O6    Cu2   1.942572 S    
C20   C22   1.409214 A    
H1    C23   1.083210 S    
O1    C1    1.272715 A    
C33   N5    1.157304 T    
C19   C21   1.409218 A    
O3    C2    1.272851 A    
H2    C24   1.083215 S    
N3    N4    1.195222 T    
C20   C26   1.404982 A    
O8    C5    1.282340 A    
O5    Cu1   1.942574 S    
O7    C6    1.282341 A    
C13   N1    1.368856 A    
C17   C21   1.409218 A    
H3    C25   1.083212 S    
Cu1   N4    1.976735 S    
C7    C29   1.396841 A    
C15   N1    1.368857 A    
C16   N2    1.368858 A    
C13   C19   1.402494 A    
C1    C27   1.405759 S    
C3    C31   1.407481 A    
C3    C29   1.407481 A    
C4    N1    1.435867 S    
C2    C28   1.405759 S    
C34   N6    1.157302 T    
C4    C30   1.407476 A    
C23   C26   1.395225 A    
H4    C26   1.083214 S    
C17   C23   1.404978 A    
O1    Cu1   1.934590 S    
C10   C12   1.403063 A    
O7    Cu1   1.942572 S    
O2    Cu2   1.934589 S    
C35   N7    1.157304 T    
O4    Cu2   1.934726 S    
C18   C22   1.409214 A    
C14   N2    1.368857 A    
C3    N2    1.435863 S    
C14   C20   1.402494 A    
C31   C35   1.442995 S    
C24   C25   1.395222 A    
O8    Cu2   1.942574 S    
C4    C32   1.407475 A    
C36   N8    1.157301 T    
C8    H6    1.084450 S    
O6    C6    1.282341 A    
C16   O12   1.349460 S    
C30   C34   1.442989 S    
C7    H5    1.084453 S    
O5    C5    1.282340 A    
C15   O11   1.349458 S    
C8    C12   1.403064 A    
C13   O9    1.349459 S    
O4    C1    1.272851 A    
C16   C18   1.402494 A    
C7    C11   1.403067 A    
C14   O10   1.349460 S    
C15   C17   1.402494 A    
C32   C36   1.442988 S    
Cu1   Cu2   2.630669 S    
C10   H8    1.084450 S    
Cu2   N3    1.976735 S    
O2    C2    1.272715 A    
