data_mof_unit_32229.cif
_audit_creation_date              2012-12-10T19:08:05-0500
_audit_creation_method            fapswitch 2.2
_symmetry_space_group_name_H-M    P1
_symmetry_Int_Tables_number       1
_space_group_crystal_system       triclinic
_cell_length_a                    9.070477
_cell_length_b                    10.827868
_cell_length_c                    9.562758
_cell_angle_alpha                 89.723636
_cell_angle_beta                  90.013554
_cell_angle_gamma                 89.75003
_cell_volume                      939.176127448

loop_
_atom_site_label
_atom_site_type_symbol
_atom_type_description
_atom_site_fract_x
_atom_site_fract_y
_atom_site_fract_z
_atom_type_partial_charge
C1    C     C_R   0.497072 0.262459 0.500290 0.822042
C2    C     C_R   0.441112 0.937297 0.375026 0.421071
C3    C     C_R   0.477851 0.871113 0.498505 -0.205681
C4    C     C_R   0.492036 0.935750 0.623719 0.064645
C5    C     C_3   0.607834 0.926982 0.734486 0.478561
C6    C     C_3   0.609767 0.067183 0.735422 -0.443266
C7    C     C_R   0.584278 0.418611 0.074423 0.097889
C8    C     C_R   0.406998 0.575951 0.074052 -0.099547
C9    C     C_R   0.406771 0.575935 0.925332 0.720365
C10   C     C_R   0.585745 0.419741 0.926956 0.090466
C11   C     C_3   0.751069 0.409550 0.926618 0.726528
C12   C     C_R   0.220728 0.499992 0.499973 0.840676
C13   C     C_3   0.747368 0.403037 0.085438 -0.532995
C14   C     C_R   0.495154 0.737704 0.499433 0.831274
C15   C     C_R   0.779250 0.499839 0.500039 0.836600
C16   C     C_1   0.065551 0.499887 0.500002 -0.141180
C17   C     C_1   0.934401 0.499825 0.500056 -0.131579
C18   C     C_R   0.493609 0.062702 0.624865 0.007746
C19   C     C_R   0.480686 0.129679 0.500797 -0.129407
C20   C     C_R   0.443386 0.067125 0.377547 -0.305051
Cu1   Cu    Cu3+1 0.499990 0.499980 0.640670 1.059956
Cu2   Cu    Cu3+1 0.500010 0.500020 0.359330 0.979344
H1    H     H_    0.421964 0.118523 0.282138 0.169817
H2    H     H_    0.777936 0.311024 0.128959 0.193532
H3    H     H_    0.802867 0.482382 0.136079 0.209802
H4    H     H_    0.712276 0.883171 0.698809 0.064769
H5    H     H_    0.567909 0.108049 0.834282 0.243195
H6    H     H_    0.715091 0.106518 0.696278 0.184190
H7    H     H_    0.333677 0.637626 0.129570 0.199359
N1    N     N_R   0.500920 0.500930 0.147930 -0.213857
N2    N     N_R   0.500930 0.500890 0.852020 -0.269604
O1    O     O_R   0.500000 0.319640 0.618810 -0.570260
O2    O     O_R   0.500020 0.319680 0.381230 -0.585733
O3    O     O_R   0.288380 0.499980 0.618770 -0.529377
O4    O     O_R   0.288400 0.500020 0.381190 -0.592958
O5    O     O_R   0.499980 0.680320 0.618770 -0.526924
O6    O     O_R   0.500000 0.680360 0.381190 -0.526855
O7    O     O_R   0.711600 0.499980 0.618810 -0.518897
O8    O     O_R   0.711620 0.500020 0.381230 -0.595995
O9    O     O_3   0.824986 0.514332 0.874279 -0.684968
H8    H     H_    0.779521 0.589189 0.916076 0.317243
O10   O     O_3   0.408855 0.874878 0.253132 -0.691518
H9    H     H_    0.386781 0.935400 0.177740 0.346058
F1    F     F_    0.552096 0.877865 0.857397 -0.610307
F2    F     F_    0.314419 0.653466 0.855876 -0.608237
O11   O     O_3   0.799900 0.300018 0.864153 -0.729074
H10   H     H_    0.907625 0.295241 0.881624 0.338142

loop_
_geom_bond_atom_site_label_1
_geom_bond_atom_site_label_2
_ccdc_geom_bond_type
C7    C10   A    
C15   O7    A    
C9    F2    S    
C2    C20   A    
C11   C13   S    
C19   C20   A    
C20   H1    S    
C4    C18   A    
C2    C3    A    
C8    N1    A    
Cu1   O5    S    
Cu1   Cu2   S    
C12   O4    A    
C14   O6    A    
Cu2   O4    S    
Cu1   N2    S    
C15   O8    A    
C6    H5    S    
C5    C6    S    
C3    C14   S    
C2    O10   S    
C8    H7    S    
O9    H8    S    
C5    F1    S    
C14   O5    A    
C11   O9    S    
C6    C18   S    
Cu1   O1    S    
C1    C19   S    
C16   C17   T    
C10   C11   S    
Cu2   O8    S    
C1    O2    A    
C5    H4    S    
C12   C16   S    
C7    C13   S    
C7    N1    A    
C18   C19   A    
O10   H9    S    
C15   C17   S    
Cu2   O2    S    
C9    N2    A    
O11   H10   S    
C8    C9    A    
C11   O11   S    
Cu1   O3    S    
Cu2   N1    S    
Cu2   O6    S    
C12   O3    A    
C10   N2    A    
C1    O1    A    
C6    H6    S    
Cu1   O7    S    
C3    C4    A    
C13   H2    S    
C4    C5    S    
C13   H3    S    
