data_mof_unit_24174.cif
_audit_creation_date              2012-10-26T18:36:06-0400
_audit_creation_method            fapswitch 2.2
_symmetry_space_group_name_H-M    P1
_symmetry_Int_Tables_number       1
_space_group_crystal_system       triclinic
_cell_length_a                    10.823329
_cell_length_b                    12.734311
_cell_length_c                    13.883757
_cell_angle_alpha                 97.852867
_cell_angle_beta                  90.777766
_cell_angle_gamma                 93.622332
_cell_volume                      1891.35598003

loop_
_atom_site_label
_atom_site_type_symbol
_atom_type_description
_atom_site_fract_x
_atom_site_fract_y
_atom_site_fract_z
_atom_type_partial_charge
C1    C     C_R   0.501602 0.483673 0.315878 0.537580
C2    C     C_1   0.510416 0.474924 0.212925 -0.035424
C3    C     C_2   0.475362 0.027515 0.459816 -0.047785
C4    C     C_R   0.260182 0.499513 0.493662 0.534951
C5    C     C_2   0.519941 0.971740 0.528710 -0.169405
C6    C     C_1   0.519402 0.854516 0.520277 0.134351
C7    C     C_1   0.478247 0.145136 0.476205 0.146860
C8    C     C_R   0.498844 0.516427 0.684138 0.518074
C9    C     C_R   0.741024 0.501315 0.508852 0.524178
C10   C     C_3   0.058838 0.396402 0.441002 -0.187838
C11   C     C_3   0.918199 0.404031 0.441108 0.232972
C12   C     C_3   0.880782 0.504376 0.512697 0.027717
C13   C     C_3   0.087004 0.513483 0.602989 -0.234601
C14   C     C_3   0.079851 0.598539 0.448221 -0.136891
C15   C     C_3   0.123674 0.500817 0.493997 -0.037540
C16   C     C_R   0.904439 0.716833 0.503033 0.034724
C17   C     C_R   0.826044 0.770711 0.446956 -0.069306
C18   C     C_R   0.809244 0.878637 0.472777 -0.109765
C19   C     C_R   0.866102 0.934212 0.556615 -0.108136
C20   C     C_R   0.943220 0.882881 0.613511 -0.119098
C21   C     C_R   0.964342 0.775922 0.586042 -0.096796
C22   C     C_R   0.914359 0.578804 0.708934 -0.017346
C23   C     C_3   0.943158 0.497260 0.618538 -0.021238
C24   C     C_R   0.817200 0.648231 0.714297 -0.111159
C25   C     C_R   0.792521 0.713013 0.800615 -0.108626
C26   C     C_R   0.862702 0.709245 0.884633 -0.095744
C27   C     C_R   0.957737 0.640436 0.882553 -0.096585
C28   C     C_R   0.982828 0.575748 0.796421 -0.091736
C29   C     C_R   0.423924 0.973950 0.364271 0.045919
C30   C     C_R   0.313720 0.006811 0.326383 -0.085055
C31   C     C_R   0.268557 0.962165 0.234044 -0.118435
C32   C     C_R   0.332946 0.884622 0.178407 -0.082047
C33   C     C_R   0.441850 0.850729 0.215405 -0.080363
C34   C     C_3   0.937141 0.603160 0.462987 -0.150128
C35   C     C_R   0.487658 0.895409 0.307484 -0.079177
C36   C     C_R   0.903962 0.387643 0.651972 0.098247
C37   C     C_R   0.983546 0.303532 0.655278 -0.045989
C38   C     C_R   0.942428 0.209662 0.689965 -0.105357
C39   C     C_R   0.821756 0.196468 0.721933 -0.107535
C40   C     C_R   0.741824 0.277506 0.719909 -0.065924
C41   C     C_R   0.782666 0.371724 0.686118 -0.014266
C42   C     C_R   0.115264 0.609837 0.342255 0.020671
C43   C     C_R   0.078814 0.699991 0.302887 -0.094776
C44   C     C_R   0.100085 0.712061 0.205929 -0.115236
C45   C     C_1   0.496067 0.525550 0.787362 -0.037237
C46   C     C_R   0.163163 0.636827 0.146978 -0.076745
C47   C     C_R   0.206528 0.550355 0.185441 -0.083034
C48   C     C_R   0.185152 0.537685 0.282412 -0.077682
C49   C     C_2   0.487911 0.540501 0.977913 0.354212
C50   C     C_2   0.527000 0.462007 0.022856 0.376223
C51   C     C_1   0.518663 0.468157 0.126265 0.034103
C52   C     C_1   0.492705 0.533143 0.874292 0.046156
Cu1   Cu    Cu3+1 0.491980 0.395330 0.493960 1.009976
Cu2   Cu    Cu3+1 0.508020 0.604670 0.506040 0.961455
F1    F     F_    0.573583 0.374954 0.971718 -0.660225
F2    F     F_    0.440813 0.627297 0.028950 -0.705560
F3    F     F_    0.863507 0.308429 0.461959 -0.626230
H1    H     H_    0.084565 0.328014 0.476684 0.173233
H2    H     H_    0.752682 0.919753 0.427364 0.115306
H3    H     H_    0.851494 0.017406 0.576394 0.133812
H4    H     H_    0.989009 0.926592 0.677891 0.109327
H5    H     H_    0.029107 0.740929 0.629528 0.114297
H6    H     H_    0.760439 0.656484 0.653472 0.171679
H7    H     H_    0.718217 0.766253 0.802215 0.126286
H8    H     H_    0.843003 0.759194 0.951435 0.115403
H9    H     H_    0.011417 0.636306 0.948041 0.105653
H10   H     H_    0.055387 0.521358 0.798629 0.108170
H11   H     H_    0.262881 0.067326 0.368176 0.111304
H12   H     H_    0.122364 0.594461 0.635649 0.115504
H13   H     H_    0.183805 0.988015 0.205446 0.109410
H14   H     H_    0.298240 0.850572 0.106705 0.136763
H15   H     H_    0.491813 0.790742 0.172273 0.178208
H16   H     H_    0.574143 0.870052 0.332954 0.101696
H17   H     H_    0.077524 0.306646 0.631322 0.094762
H18   H     H_    0.004676 0.146642 0.691818 0.100735
H19   H     H_    0.790376 0.123517 0.748513 0.110179
H20   H     H_    0.648327 0.267993 0.745586 0.148321
H21   H     H_    0.720052 0.434267 0.688978 0.114226
H22   H     H_    0.033431 0.761802 0.347044 0.119644
H23   H     H_    0.557958 0.015849 0.596213 0.114334
H24   H     H_    0.068478 0.780518 0.176758 0.100567
H25   H     H_    0.180676 0.646615 0.072086 0.142280
H26   H     H_    0.257369 0.492983 0.139970 0.126582
H27   H     H_    0.226602 0.472245 0.308563 0.101576
H28   H     H_    0.087321 0.376444 0.365042 0.085929
H29   H     H_    0.886312 0.410942 0.365735 0.129367
H30   H     H_    0.141911 0.464564 0.645200 0.099745
H31   H     H_    0.127885 0.669971 0.490893 0.151961
H32   H     H_    0.894316 0.588399 0.388481 0.101367
H33   H     H_    0.781052 0.730169 0.380833 0.112354
N1    N     N_1   0.479930 0.238040 0.484880 -0.183081
N2    N     N_1   0.520070 0.761960 0.515120 -0.189800
O1    O     O_R   0.492240 0.399110 0.356330 -0.483857
O2    O     O_R   0.505790 0.575900 0.366540 -0.489668
O3    O     O_R   0.310920 0.411610 0.494880 -0.514433
O4    O     O_R   0.324460 0.588390 0.505090 -0.494829
O5    O     O_R   0.494210 0.424100 0.633460 -0.505262
O6    O     O_R   0.507760 0.600890 0.643670 -0.500512
O7    O     O_R   0.675540 0.411610 0.494910 -0.417542
O8    O     O_R   0.689080 0.588390 0.505120 -0.533342

loop_
_geom_bond_atom_site_label_1
_geom_bond_atom_site_label_2
_ccdc_geom_bond_type
C37   H17   S    
C10   H28   S    
C16   C21   A    
Cu1   O3    S    
C19   C20   A    
C8    O5    A    
Cu1   Cu2   S    
Cu1   O7    S    
C12   C23   S    
C26   C27   A    
C37   C38   A    
C36   C37   A    
C10   H1    S    
C18   C19   A    
C3    C7    S    
C10   C15   S    
C5    C6    S    
C11   H29   S    
C43   H22   S    
C13   C23   S    
C1    C2    S    
C20   H4    S    
C3    C29   S    
C8    O6    A    
C8    C45   S    
C33   H15   S    
C16   C34   S    
C46   H25   S    
C31   H13   S    
C31   C32   A    
C1    O2    A    
Cu1   N1    S    
C47   H26   S    
Cu2   O4    S    
C14   C42   S    
C9    O7    A    
C22   C28   A    
Cu2   O8    S    
C36   C41   A    
C44   C46   A    
C50   C51   S    
C32   H14   S    
C38   H18   S    
C4    O4    A    
Cu1   O1    S    
C28   H10   S    
C24   C25   A    
C44   H24   S    
C2    C51   T    
C39   C40   A    
C16   C17   A    
C45   C52   T    
Cu1   O5    S    
C25   C26   A    
C48   H27   S    
C25   H7    S    
C43   C44   A    
Cu2   N2    S    
C29   C30   A    
C4    O3    A    
C47   C48   A    
C30   C31   A    
C49   C52   S    
C7    N1    T    
C13   H30   S    
C17   C18   A    
C42   C48   A    
C39   H19   S    
C5    H23   S    
C21   H5    S    
C40   C41   A    
C49   C50   D    
C24   H6    S    
C13   C15   S    
C22   C24   A    
C42   C43   A    
C12   C34   S    
C41   H21   S    
C46   C47   A    
C35   H16   S    
C22   C23   S    
C26   H8    S    
C17   H33   S    
C3    C5    D    
C14   C34   S    
C11   C12   S    
C19   H3    S    
C9    O8    A    
C49   F2    S    
C29   C35   A    
C50   F1    S    
C32   C33   A    
C4    C15   S    
C34   H32   S    
C14   H31   S    
C27   H9    S    
C38   C39   A    
C13   H12   S    
C6    N2    T    
C33   C35   A    
C40   H20   S    
C9    C12   S    
Cu2   O2    S    
C10   C11   S    
C18   H2    S    
C20   C21   A    
C1    O1    A    
C23   C36   S    
C27   C28   A    
C14   C15   S    
Cu2   O6    S    
C11   F3    S    
C30   H11   S    
