data_mof_unit_44004.cif
_audit_creation_date              2012-12-11T15:10:46-0500
_audit_creation_method            fapswitch 2.2
_symmetry_space_group_name_H-M    P1
_symmetry_Int_Tables_number       1
_space_group_crystal_system       triclinic
_cell_length_a                    20.978842
_cell_length_b                    7.21974
_cell_length_c                    18.449573
_cell_angle_alpha                 90.000078
_cell_angle_beta                  93.200763
_cell_angle_gamma                 90.0
_cell_volume                      2790.04604001

loop_
_atom_site_label
_atom_site_type_symbol
_atom_type_description
_atom_site_fract_x
_atom_site_fract_y
_atom_site_fract_z
_atom_type_partial_charge
O1    O     O_R   0.448880 0.506250 0.415280 -0.517086
O2    O     O_R   0.551120 0.006250 0.584720 -0.517086
O3    O     O_R   0.434830 0.174000 0.557310 -0.529740
O4    O     O_R   0.565170 0.674000 0.442690 -0.529741
C1    C     C_R   0.417970 0.344075 0.580977 0.748893
C2    C     C_R   0.582030 0.844075 0.419023 0.748893
O5    O     O_R   0.441680 0.176440 0.414130 -0.544037
O6    O     O_R   0.558320 0.676440 0.585870 -0.544037
O7    O     O_R   0.558020 0.007570 0.440520 -0.502870
O8    O     O_R   0.441980 0.507570 0.559480 -0.502869
C3    C     C_R   0.425719 0.346257 0.389899 0.787449
C4    C     C_R   0.574281 0.846257 0.610101 0.787449
O9    O     O_3   0.538160 0.339670 0.508820 -0.353331
O10   O     O_3   0.461840 0.839670 0.491180 -0.353331
V1    V     V_3+5 0.492920 0.064260 0.498360 1.520185
V2    V     V_3+5 0.507080 0.564260 0.501640 1.520184
C5    C     C_R   0.886749 0.913577 0.685093 0.127748
C6    C     C_R   0.113251 0.413592 0.314907 0.127747
C7    C     C_R   0.891766 0.938870 0.817346 -0.087582
C8    C     C_R   0.108234 0.438872 0.182654 -0.087582
C9    C     C_R   0.587058 0.836996 0.745042 -0.037780
C10   C     C_R   0.412942 0.336992 0.254958 -0.037780
C11   C     C_R   0.618767 0.898768 0.810069 0.389707
C12   C     C_R   0.381232 0.398762 0.189931 0.389707
C13   C     C_R   0.682361 0.963702 0.810683 0.024341
C14   C     C_R   0.317639 0.463698 0.189317 0.024341
C15   C     C_R   0.718080 0.935319 0.747976 -0.043399
C16   C     C_R   0.281920 0.435319 0.252024 -0.043399
C17   C     C_R   0.682933 0.916220 0.679537 -0.110227
C18   C     C_R   0.317067 0.416221 0.320463 -0.110226
C19   C     C_R   0.787066 0.937282 0.750089 0.025052
C20   C     C_R   0.212934 0.437285 0.249911 0.025052
C21   C     C_R   0.819076 0.944763 0.684356 -0.055871
C22   C     C_R   0.180924 0.444774 0.315644 -0.055871
C23   C     C_R   0.782401 0.988088 0.620319 0.330798
C24   C     C_R   0.217599 0.488102 0.379680 0.330799
C25   C     C_R   0.715786 0.964577 0.616672 0.309595
C26   C     C_R   0.284214 0.464584 0.383328 0.309595
C27   C     C_R   0.825147 0.922842 0.815509 -0.227654
C28   C     C_R   0.174853 0.422840 0.184491 -0.227653
C29   C     C_R   0.923712 0.932792 0.751950 0.051673
C30   C     C_R   0.076288 0.432802 0.248050 0.051673
C31   C     C_R   0.616413 0.862252 0.678247 -0.129546
C32   C     C_R   0.383587 0.362251 0.321753 -0.129547
H1    H     H_    0.803867 0.899159 0.866145 0.137272
H2    H     H_    0.196133 0.399152 0.133855 0.137272
C33   C     C_1   0.864733 0.939094 0.132375 -0.210309
C34   C     C_1   0.135267 0.439094 0.867624 -0.210310
C35   C     C_1   0.821659 0.925226 0.175883 -0.011499
C36   C     C_1   0.178341 0.425226 0.824116 -0.011500
C37   C     C_1   0.770750 0.905853 0.227506 0.009246
C38   C     C_1   0.229250 0.405853 0.772494 0.009247
C39   C     C_1   0.727882 0.888744 0.271103 0.024386
C40   C     C_1   0.272117 0.388744 0.728897 0.024385
C41   C     C_1   0.677058 0.869089 0.322806 0.031535
C42   C     C_1   0.322942 0.369090 0.677194 0.031534
C43   C     C_1   0.634095 0.854906 0.366425 -0.136298
C44   C     C_1   0.365905 0.354906 0.633575 -0.136298
O11   O     O_R   0.058070 0.289240 0.940580 -0.518003
O12   O     O_R   0.941930 0.789240 0.059420 -0.518002
O13   O     O_R   0.058330 0.616740 0.085880 -0.533869
O14   O     O_R   0.941670 0.116740 0.914120 -0.533870
C45   C     C_R   0.072037 0.448242 0.111521 0.681946
C46   C     C_R   0.927963 0.948242 0.888479 0.681946
O15   O     O_R   0.065180 0.619040 0.942700 -0.524070
O16   O     O_R   0.934820 0.119040 0.057300 -0.524070
O17   O     O_R   0.948870 0.787780 0.915270 -0.530773
O18   O     O_R   0.051130 0.287780 0.084730 -0.530773
C47   C     C_R   0.083096 0.450387 0.920023 0.712852
C48   C     C_R   0.916903 0.950388 0.079976 0.712852
O19   O     O_3   0.961870 0.453310 0.991210 -0.364160
O20   O     O_3   0.038130 0.953310 0.008790 -0.364160
V3    V     V_3+5 0.007070 0.728770 0.001630 1.396413
V4    V     V_3+5 0.992930 0.228770 0.998370 1.396412
C49   C     C_3   0.996723 0.944944 0.753936 -0.366438
C50   C     C_3   0.019226 0.117458 0.713724 -0.318669
C51   C     C_3   0.091079 0.111526 0.704933 -0.733589
H3    H     H_    0.117169 0.096827 0.758664 0.235128
H4    H     H_    0.103277 0.993031 0.669873 0.237324
H5    H     H_    0.106532 0.241669 0.679053 0.228914
H6    H     H_    0.994862 0.129410 0.658980 0.205614
H7    H     H_    0.007459 0.243304 0.745066 0.197368
H8    H     H_    0.018542 0.953156 0.809924 0.171876
H9    H     H_    0.017242 0.816009 0.732365 0.167814
C52   C     C_3   0.003277 0.444956 0.246064 -0.366437
C53   C     C_3   0.980775 0.617477 0.286272 -0.318666
C54   C     C_3   0.908922 0.611544 0.295067 -0.733583
H10   H     H_    0.882830 0.596825 0.241338 0.235127
H11   H     H_    0.896727 0.493059 0.330135 0.237321
H12   H     H_    0.893470 0.741695 0.320942 0.228915
H13   H     H_    0.005142 0.629441 0.341014 0.205614
H14   H     H_    0.992540 0.743317 0.254925 0.197365
H15   H     H_    0.981457 0.453160 0.190076 0.171874
H16   H     H_    0.982758 0.316024 0.267638 0.167815
Cl1   Cl    Cl    0.817321 0.106584 0.548083 -0.646648
Cl2   Cl    Cl    0.182681 0.606611 0.451914 -0.646645
C55   C     C_3   0.918281 0.836428 0.618029 -0.365422
C56   C     C_3   0.885787 0.658351 0.588776 -0.266039
C57   C     C_3   0.920840 0.577995 0.525492 -0.706923
H17   H     H_    0.921915 0.680342 0.480599 0.234083
H18   H     H_    0.970535 0.539775 0.543470 0.217019
H19   H     H_    0.895788 0.451678 0.504733 0.263619
H20   H     H_    0.885430 0.553433 0.632883 0.202556
H21   H     H_    0.835687 0.685963 0.569469 0.232729
H22   H     H_    0.921180 0.941386 0.574892 0.230284
H23   H     H_    0.968724 0.799349 0.629927 0.172993
C58   C     C_3   0.081718 0.336453 0.381973 -0.365425
C59   C     C_3   0.114211 0.158375 0.411227 -0.266037
C60   C     C_3   0.079157 0.078027 0.474512 -0.706925
H24   H     H_    0.078084 0.180377 0.519405 0.234082
H25   H     H_    0.029461 0.039812 0.456535 0.217021
H26   H     H_    0.104208 0.951708 0.495272 0.263614
H27   H     H_    0.114567 0.053453 0.367121 0.202558
H28   H     H_    0.164311 0.185983 0.430533 0.232729
H29   H     H_    0.078821 0.441414 0.425108 0.230285
H30   H     H_    0.031275 0.299378 0.370076 0.172994
C61   C     C_3   0.519023 0.762365 0.746715 -0.320058
C62   C     C_3   0.469283 0.918679 0.740592 -0.299885
C63   C     C_3   0.401492 0.841340 0.735261 -0.718983
H31   H     H_    0.393956 0.756062 0.685412 0.233676
H32   H     H_    0.392719 0.755123 0.783570 0.240848
H33   H     H_    0.366681 0.957342 0.732540 0.221181
H34   H     H_    0.474646 0.010693 0.788770 0.247563
H35   H     H_    0.476309 0.004193 0.691758 0.185029
H36   H     H_    0.509248 0.659522 0.702911 0.156622
H37   H     H_    0.513125 0.682306 0.797308 0.230621
C64   C     C_3   0.480976 0.262360 0.253285 -0.320058
C65   C     C_3   0.530717 0.418673 0.259408 -0.299885
C66   C     C_3   0.598508 0.341334 0.264739 -0.718984
H38   H     H_    0.606043 0.256057 0.314588 0.233676
H39   H     H_    0.607280 0.255115 0.216430 0.240848
H40   H     H_    0.633318 0.457335 0.267460 0.221182
H41   H     H_    0.525354 0.510686 0.211230 0.247563
H42   H     H_    0.523691 0.504188 0.308242 0.185029
H43   H     H_    0.490751 0.159517 0.297089 0.156623
H44   H     H_    0.486875 0.182299 0.202692 0.230620
C67   C     C_3   0.703492 0.111255 0.866585 -0.319305
C68   C     C_3   0.714833 0.040221 0.945213 -0.260729
C69   C     C_3   0.764893 0.156900 0.987556 -0.782424
H45   H     H_    0.812459 0.138746 0.965019 0.223836
H46   H     H_    0.751492 0.305740 0.985117 0.240833
H47   H     H_    0.767781 0.113168 0.045228 0.228442
H48   H     H_    0.670134 0.051067 0.974296 0.262804
H49   H     H_    0.729546 0.892455 0.946650 0.196548
H50   H     H_    0.746338 0.185466 0.848911 0.180703
H51   H     H_    0.666157 0.220675 0.866317 0.195953
C70   C     C_3   0.296508 0.611250 0.133414 -0.319304
C71   C     C_3   0.285167 0.540214 0.054786 -0.260729
C72   C     C_3   0.235107 0.656892 0.012443 -0.782424
H52   H     H_    0.187541 0.638740 0.034980 0.223835
H53   H     H_    0.248509 0.805732 0.014882 0.240833
H54   H     H_    0.232220 0.613161 0.954771 0.228443
H55   H     H_    0.329866 0.551057 0.025704 0.262804
H56   H     H_    0.270453 0.392448 0.053350 0.196548
H57   H     H_    0.253663 0.685462 0.151088 0.180703
H58   H     H_    0.333844 0.720669 0.133682 0.195953
Cl3   Cl    Cl    0.576162 0.908222 0.890268 -0.673756
Cl4   Cl    Cl    0.423838 0.408213 0.109731 -0.673756
Cl5   Cl    Cl    0.676558 0.027694 0.533887 -0.604101
Cl6   Cl    Cl    0.323442 0.527694 0.466113 -0.604102

loop_
_geom_bond_atom_site_label_1
_geom_bond_atom_site_label_2
_ccdc_geom_bond_type
C54   H10   S    
C15   C17   A    
C70   C71   S    
O1    C3    A    
C34   C47   S    
O2    C4    A    
C65   C66   S    
C2    O7    A    
C55   C56   S    
C72   H52   S    
C33   C35   T    
C51   H3    S    
O5    C3    A    
C71   H56   S    
C1    C44   S    
C67   H50   S    
C23   C25   A    
C64   H43   S    
C4    C31   S    
C68   H48   S    
C72   H53   S    
C8    C28   A    
C69   H47   S    
C12   Cl4   S    
C49   H9    S    
C51   H5    S    
O18   V4    S    
C56   H20   S    
O16   V4    S    
O12   V3    S    
O15   V3    S    
C59   C60   S    
C18   C26   A    
C59   H28   S    
O13   C45   A    
C62   C63   S    
O14   C46   A    
C60   H25   S    
C9    C31   A    
C52   H15   S    
C10   C32   A    
C42   C44   T    
C16   C18   A    
C35   C37   S    
C36   C38   S    
C58   C59   S    
C19   C21   A    
O17   V3    S    
C70   H57   S    
C61   H37   S    
C54   H12   S    
C27   H1    S    
C66   H40   S    
C55   H22   S    
C34   C36   T    
O6    V2    S    
C17   C31   A    
C2    C43   S    
C18   C32   A    
C5    C21   A    
C38   C40   T    
C50   C51   S    
C39   C41   S    
C9    C11   A    
C69   H45   S    
C40   C42   S    
C15   C19   A    
C46   O17   A    
C67   H51   S    
C16   C20   A    
C64   H44   S    
O4    C2    A    
C60   H26   S    
C50   H7    S    
C30   C52   S    
C53   C54   S    
O13   V3    S    
C52   C53   S    
C37   C39   T    
C20   C22   A    
C59   H27   S    
O4    V2    S    
C13   C67   S    
C49   C50   S    
C33   C48   S    
C65   H41   S    
O2    V1    S    
C65   H42   S    
C29   C49   S    
C52   H16   S    
C24   Cl2   S    
C57   H17   S    
O12   C48   A    
C7    C46   S    
O6    C4    A    
C57   H19   S    
C51   H4    S    
C3    C32   S    
O1    V2    S    
C62   H35   S    
C6    C58   S    
C70   H58   S    
C6    C22   A    
O11   V4    S    
C58   H29   S    
C63   H32   S    
C7    C27   A    
O11   C47   A    
C55   H23   S    
C57   H18   S    
C41   C43   T    
C10   C12   A    
C72   H54   S    
C71   H55   S    
C28   H2    S    
C64   C65   S    
C53   H14   S    
O3    V1    S    
C66   H38   S    
C63   H33   S    
O15   C47   A    
C45   O18   A    
C12   C14   A    
O20   V3    S    
O3    C1    A    
C50   H6    S    
O19   V4    S    
C8    C30   A    
C63   H31   S    
C23   Cl1   S    
C13   C15   A    
C67   C68   S    
C14   C16   A    
C53   H13   S    
C25   Cl5   S    
C8    C45   S    
C6    C30   A    
O7    V1    S    
C26   Cl6   S    
C1    O8    A    
O8    V2    S    
C61   C62   S    
C24   C26   A    
C69   H46   S    
C49   H8    S    
C10   C64   S    
O16   C48   A    
C61   H36   S    
C56   H21   S    
C11   Cl3   S    
O5    V1    S    
C21   C23   A    
C19   C27   A    
C22   C24   A    
C62   H34   S    
C20   C28   A    
C14   C70   S    
C5    C29   A    
C58   H30   S    
C9    C61   S    
C68   C69   S    
C11   C13   A    
C56   C57   S    
O9    V2    S    
C17   C25   A    
C54   H11   S    
O10   V1    S    
O14   V4    S    
C68   H49   S    
C60   H24   S    
C5    C55   S    
C71   C72   S    
C7    C29   A    
C66   H39   S    
