data_mof_unit_38962.cif
_audit_creation_date              2012-12-10T17:02:11-0500
_audit_creation_method            fapswitch 2.2
_symmetry_space_group_name_H-M    P1
_symmetry_Int_Tables_number       1
_space_group_crystal_system       triclinic
_cell_length_a                    10.615108
_cell_length_b                    10.738354
_cell_length_c                    10.04374
_cell_angle_alpha                 89.95518
_cell_angle_beta                  90.056801
_cell_angle_gamma                 90.140149
_cell_volume                      1144.86940836

loop_
_atom_site_label
_atom_site_type_symbol
_atom_type_description
_atom_site_fract_x
_atom_site_fract_y
_atom_site_fract_z
_atom_type_partial_charge
C1    C     C_R   0.501611 0.262703 0.499868 0.928814
C2    C     C_2   0.510149 0.130939 0.499528 -0.336360
C3    C     C_2   0.565643 0.577771 0.924973 -0.123059
C4    C     C_R   0.260599 0.501283 0.499870 0.861706
C5    C     C_2   0.569839 0.574153 0.074953 -0.124095
C6    C     C_R   0.496438 0.737216 0.499954 0.901597
C7    C     C_R   0.739390 0.502309 0.500057 0.862608
C8    C     C_R   0.132731 0.725301 0.583152 -0.196928
C9    C     C_R   0.068246 0.832116 0.624745 0.240950
C10   C     C_R   0.936413 0.830942 0.626814 -0.185091
C11   C     C_R   0.870120 0.724815 0.587356 -0.226428
C12   C     C_R   0.066570 0.617023 0.543755 0.051045
C13   C     C_R   0.934731 0.616990 0.545001 0.092427
C14   C     C_3   0.140456 0.947895 0.662938 -0.438611
C15   C     C_3   0.214807 0.928494 0.791456 -0.856994
C16   C     C_R   0.128360 0.508816 0.499241 -0.071741
C17   C     C_R   0.063894 0.405084 0.451967 -0.211475
C18   C     C_R   0.935074 0.405389 0.452113 -0.208794
C19   C     C_R   0.871712 0.509204 0.500072 -0.076969
C20   C     C_2   0.491398 0.933199 0.387504 -0.153852
C21   C     C_2   0.481474 0.868451 0.500385 -0.353855
C22   C     C_2   0.483812 0.067131 0.388867 -0.170092
H1    H     H_    0.113637 0.323362 0.416788 0.142179
H2    H     H_    0.884451 0.323960 0.416817 0.146357
H3    H     H_    0.505483 0.888049 0.291890 0.174888
H4    H     H_    0.458774 0.910613 0.595362 0.157091
H5    H     H_    0.459058 0.113443 0.296246 0.172259
H6    H     H_    0.150101 0.903137 0.874064 0.265855
H7    H     H_    0.285940 0.853753 0.778906 0.260043
H8    H     H_    0.264723 0.016015 0.818039 0.247738
H9    H     H_    0.206211 0.973323 0.581183 0.212448
H10   H     H_    0.075402 0.027752 0.677312 0.205890
H11   H     H_    0.541706 0.087852 0.591254 0.149406
H12   H     H_    0.621811 0.648451 0.875428 0.159952
H13   H     H_    0.452081 0.431001 0.897757 0.163393
H14   H     H_    0.633630 0.638220 0.124470 0.159863
H15   H     H_    0.437016 0.444144 0.102234 0.162149
H16   H     H_    0.234455 0.728594 0.579659 0.143565
H17   H     H_    0.884518 0.912594 0.657939 0.135765
H18   H     H_    0.768336 0.728736 0.588571 0.150456
N1    N     N_2   0.501340 0.501330 0.852150 -0.190075
N2    N     N_2   0.501380 0.501360 0.147810 -0.192247
O1    O     O_R   0.499980 0.319060 0.613040 -0.616826
O2    O     O_R   0.500020 0.319100 0.386900 -0.615128
O3    O     O_R   0.316750 0.499980 0.613090 -0.612046
O4    O     O_R   0.316790 0.500020 0.386950 -0.611901
O5    O     O_R   0.499980 0.680900 0.613100 -0.630248
O6    O     O_R   0.500020 0.680940 0.386960 -0.608921
O7    O     O_R   0.683210 0.499980 0.613050 -0.610636
O8    O     O_R   0.683250 0.500020 0.386910 -0.608001
Zn1   Zn    Zn3+2 0.499970 0.499970 0.650990 0.939384
Zn2   Zn    Zn3+2 0.500030 0.500030 0.349010 0.942543

loop_
_geom_bond_atom_site_label_1
_geom_bond_atom_site_label_2
_ccdc_geom_bond_type
C2    C22   D    
O8    Zn2   S    
C9    C14   S    
C4    C16   S    
N1    Zn1   S    
C9    C10   A    
C1    O2    A    
C14   H9    S    
C8    C12   A    
C10   C11   A    
O2    Zn2   S    
C17   C18   A    
C4    O4    A    
C12   C13   A    
C11   C13   A    
O1    Zn1   S    
C15   H6    S    
C17   H1    S    
C8    H16   S    
C18   H2    S    
C1    C2    S    
C2    H11   S    
C21   H4    S    
C20   C22   S    
C15   H7    S    
C7    C19   S    
C22   H5    S    
C11   H18   S    
H13   N1    S    
C16   C17   A    
C20   H3    S    
C13   C19   A    
C4    O3    A    
C5    H14   S    
O4    Zn2   S    
O6    Zn2   S    
C5    N2    D    
C20   C21   D    
C7    O7    A    
C15   H8    S    
C18   C19   A    
C6    O5    A    
C14   H10   S    
H15   N2    S    
O3    Zn1   S    
C14   C15   S    
C8    C9    A    
O5    Zn1   S    
C3    H12   S    
C3    C5    S    
C6    C21   S    
C1    O1    A    
C3    N1    D    
C12   C16   A    
C7    O8    A    
N2    Zn2   S    
C10   H17   S    
O7    Zn1   S    
C6    O6    A    
