data_mof_unit_43698.cif
_audit_creation_date              2012-12-11T15:06:58-0500
_audit_creation_method            fapswitch 2.2
_symmetry_space_group_name_H-M    P1
_symmetry_Int_Tables_number       1
_space_group_crystal_system       triclinic
_cell_length_a                    19.753823
_cell_length_b                    11.365944
_cell_length_c                    18.717497
_cell_angle_alpha                 89.886526
_cell_angle_beta                  89.256643
_cell_angle_gamma                 90.209047
_cell_volume                      4202.07796499

loop_
_atom_site_label
_atom_site_type_symbol
_atom_type_description
_atom_site_fract_x
_atom_site_fract_y
_atom_site_fract_z
_atom_type_partial_charge
C1    C     C_R   0.763137 0.518411 0.637177 0.574447
C2    C     C_3   0.255223 0.051527 0.560631 0.051603
C3    C     C_R   0.740072 0.033457 0.151483 0.542501
C4    C     C_R   0.774375 0.132477 0.858756 0.519389
C5    C     C_R   0.225567 0.132743 0.141124 0.520366
C6    C     C_R   0.274375 0.632477 0.858756 0.519389
C7    C     C_R   0.725567 0.632743 0.141124 0.520366
C8    C     C_R   0.968644 0.353326 0.853685 0.512119
C9    C     C_R   0.031369 0.353253 0.146320 0.512469
C10   C     C_R   0.468644 0.853326 0.853685 0.512119
C11   C     C_R   0.531369 0.853253 0.146320 0.512469
C12   C     C_3   0.685013 0.117432 0.470864 -0.249733
C13   C     C_3   0.239672 0.529659 0.443694 0.049287
C14   C     C_3   0.311137 0.135909 0.532288 -0.255603
C15   C     C_3   0.185013 0.617433 0.470864 -0.249733
C16   C     C_3   0.811137 0.635909 0.532288 -0.255603
C17   C     C_3   0.688418 0.124954 0.552478 -0.254919
C18   C     C_3   0.309154 0.136826 0.450563 -0.246701
C19   C     C_3   0.188418 0.624954 0.552478 -0.254919
C20   C     C_3   0.809154 0.636826 0.450563 -0.246701
C21   C     C_3   0.740232 0.921029 0.496024 -0.285611
C22   C     C_3   0.256013 0.936989 0.513172 -0.269375
C23   C     C_3   0.240232 0.421029 0.496024 -0.285611
C24   C     C_3   0.755223 0.551527 0.560631 0.051603
C25   C     C_3   0.756013 0.436989 0.513172 -0.269374
C26   C     C_2   0.740080 0.884602 0.633913 0.526789
C27   C     C_2   0.270065 0.888590 0.375897 0.518136
C28   C     C_2   0.240080 0.384602 0.633913 0.526789
C29   C     C_2   0.770065 0.388590 0.375897 0.518136
C30   C     C_3   0.760669 0.085658 0.576960 0.062086
C31   C     C_3   0.238269 0.090441 0.424401 0.066570
C32   C     C_3   0.260669 0.585658 0.576960 0.062086
C33   C     C_3   0.738269 0.590441 0.424401 0.066570
C34   C     C_3   0.769196 0.952150 0.569741 -0.052631
C35   C     C_3   0.233789 0.957118 0.435260 -0.063207
C36   C     C_3   0.269196 0.452150 0.569741 -0.052631
C37   C     C_R   0.229852 0.492274 0.367592 0.555461
C38   C     C_3   0.733789 0.457118 0.435260 -0.063207
C39   C     C_3   0.814047 0.140540 0.525771 -0.286225
C40   C     C_3   0.179451 0.140013 0.470790 -0.262378
C41   C     C_3   0.314047 0.640540 0.525771 -0.286225
C42   C     C_3   0.679451 0.640013 0.470790 -0.262378
C43   C     C_3   0.003513 0.200177 0.459881 -0.232004
C44   C     C_3   0.004431 0.200811 0.542771 -0.238031
C45   C     C_3   0.503513 0.700177 0.459881 -0.232004
C46   C     C_3   0.504431 0.700811 0.542771 -0.238031
C47   C     C_3   0.057846 0.408398 0.470476 -0.223830
C48   C     C_R   0.263137 0.018411 0.637177 0.574447
C49   C     C_3   0.930192 0.380732 0.529326 -0.227294
C50   C     C_3   0.557847 0.908398 0.470476 -0.223830
C51   C     C_3   0.430192 0.880733 0.529326 -0.227294
C52   C     C_3   0.937588 0.378138 0.447302 -0.260816
C53   C     C_3   0.053154 0.399499 0.551436 -0.262629
C54   C     C_3   0.437588 0.878138 0.447302 -0.260816
C55   C     C_3   0.553154 0.899499 0.551436 -0.262629
C56   C     C_3   0.006765 0.328854 0.430296 0.056973
C57   C     C_3   0.990696 0.328435 0.569847 0.059536
C58   C     C_3   0.506765 0.828854 0.430296 0.056973
C59   C     C_R   0.729852 0.992274 0.367592 0.555461
C60   C     C_3   0.490696 0.828435 0.569847 0.059536
C61   C     C_3   0.816455 0.012136 0.045581 -0.143140
C62   C     C_3   0.183629 0.011397 0.954574 -0.143274
C63   C     C_3   0.316455 0.512136 0.045581 -0.143140
C64   C     C_3   0.683629 0.511397 0.954574 -0.143274
C65   C     C_R   0.776161 0.125045 0.648874 0.584432
C66   C     C_R   0.224292 0.124017 0.350847 0.593351
C67   C     C_R   0.276161 0.625045 0.648874 0.584432
C68   C     C_R   0.724292 0.624017 0.350847 0.593351
C69   C     C_3   0.823970 0.031108 0.966246 0.123558
C70   C     C_3   0.809303 0.090090 0.450695 -0.233012
C71   C     C_3   0.175906 0.030989 0.033821 0.124552
C72   C     C_3   0.323970 0.531108 0.966246 0.123558
C73   C     C_3   0.675906 0.530989 0.033821 0.124552
C74   C     C_3   0.686981 0.026673 0.032455 -0.220036
C75   C     C_3   0.313145 0.027339 0.967837 -0.219334
C76   C     C_3   0.186981 0.526673 0.032455 -0.220036
C77   C     C_3   0.813145 0.527339 0.967837 -0.219334
C78   C     C_3   0.757635 0.198637 0.061542 -0.272834
C79   C     C_3   0.242538 0.198373 0.937963 -0.271809
C80   C     C_3   0.257635 0.698638 0.061542 -0.272834
C81   C     C_3   0.187426 0.113040 0.550255 -0.253830
C82   C     C_3   0.742538 0.698373 0.937963 -0.271809
C83   C     C_3   0.750133 0.067495 0.075011 0.005599
C84   C     C_3   0.250023 0.067303 0.925021 0.006121
C85   C     C_3   0.250133 0.567495 0.075011 0.005599
C86   C     C_3   0.750023 0.567303 0.925021 0.006121
C87   C     C_3   0.761940 0.101778 0.936070 0.022679
C88   C     C_3   0.238058 0.102141 0.063854 0.021420
C89   C     C_3   0.261940 0.601778 0.936070 0.022679
C90   C     C_3   0.738058 0.602141 0.063854 0.021420
C91   C     C_3   0.699753 0.025864 0.950695 -0.263806
C92   C     C_3   0.309303 0.590090 0.450695 -0.233012
C93   C     C_3   0.300251 0.026837 0.049582 -0.263696
C94   C     C_3   0.199753 0.525864 0.950695 -0.263806
C95   C     C_3   0.800251 0.526837 0.049582 -0.263696
C96   C     C_3   0.750868 0.218162 0.979747 -0.244503
C97   C     C_3   0.249228 0.218445 0.019702 -0.244549
C98   C     C_3   0.250868 0.718162 0.979747 -0.244503
C99   C     C_3   0.749228 0.718445 0.019702 -0.244549
C100  C     C_3   0.007518 0.481375 0.039619 0.170456
C101  C     C_3   0.992567 0.481419 0.960217 0.170689
C102  C     C_3   0.507518 0.981375 0.039619 0.170455
C103  C     C_3   0.687426 0.613040 0.550255 -0.253830
C104  C     C_3   0.492567 0.981419 0.960217 0.170689
C105  C     C_3   0.062757 0.277806 0.026542 -0.257403
C106  C     C_3   0.937122 0.277616 0.973588 -0.258122
C107  C     C_3   0.562757 0.777806 0.026542 -0.257402
C108  C     C_3   0.437122 0.777616 0.973588 -0.258122
C109  C     C_3   0.940886 0.296725 0.055355 -0.286953
C110  C     C_3   0.059050 0.297177 0.944754 -0.287007
C111  C     C_3   0.440886 0.796725 0.055354 -0.286953
C112  C     C_3   0.559050 0.797177 0.944754 -0.287007
C113  C     C_R   0.971288 0.341314 0.646338 0.537333
C114  C     C_3   0.739672 0.029660 0.443694 0.049288
C115  C     C_R   0.028224 0.341103 0.353720 0.530307
C116  C     C_R   0.471288 0.841314 0.646338 0.537333
C117  C     C_R   0.528225 0.841103 0.353720 0.530307
C118  C     C_3   0.009879 0.352752 0.069734 0.007640
C119  C     C_3   0.990150 0.352845 0.930276 0.007663
C120  C     C_3   0.509879 0.852752 0.069734 0.007640
C121  C     C_3   0.490150 0.852845 0.930276 0.007663
C122  C     C_R   0.760031 0.533299 0.848608 0.538062
C123  C     C_R   0.240072 0.533457 0.151483 0.542501
C124  C     C_R   0.260031 0.033299 0.848608 0.538062
Cr1   Cr    Cr6+3 0.885690 0.492860 0.745310 1.050506
Cr2   Cr    Cr6+3 0.111880 0.178590 0.246990 1.021363
Cr3   Cr    Cr6+3 0.388120 0.678590 0.753010 1.026845
Cr4   Cr    Cr6+3 0.611880 0.678590 0.246990 1.021363
Cr5   Cr    Cr6+3 0.114310 0.492860 0.254690 1.046337
Cr6   Cr    Cr6+3 0.385690 0.992860 0.745310 1.050506
Cr7   Cr    Cr6+3 0.614310 0.992860 0.254690 1.046337
Cr8   Cr    Cr6+3 0.729880 0.332270 0.748190 1.021350
Cr9   Cr    Cr6+3 0.270120 0.332270 0.251810 1.022376
Cr10  Cr    Cr6+3 0.229880 0.832270 0.748190 1.021350
Cr11  Cr    Cr6+3 0.770120 0.832270 0.251810 1.022376
Cr12  Cr    Cr6+3 0.888120 0.178590 0.753010 1.026845
H1    H     H_    0.634053 0.095275 0.453754 0.122841
H2    H     H_    0.224448 0.868291 0.537982 0.113941
H3    H     H_    0.886100 0.287231 0.953819 0.103484
H4    H     H_    0.600742 0.854773 0.926001 0.116363
H5    H     H_    0.399294 0.854059 0.073983 0.116719
H6    H     H_    0.100742 0.354773 0.926001 0.116363
H7    H     H_    0.899294 0.354060 0.073983 0.116719
H8    H     H_    0.935736 0.211352 0.083977 0.125692
H9    H     H_    0.064072 0.211867 0.916283 0.125101
H10   H     H_    0.435736 0.711352 0.083977 0.125692
H11   H     H_    0.564071 0.711867 0.916283 0.125101
H12   H     H_    0.951705 0.185225 0.963628 0.144128
H13   H     H_    0.268983 0.351457 0.471326 0.106015
H14   H     H_    0.048097 0.185198 0.036663 0.144247
H15   H     H_    0.451705 0.685225 0.963628 0.144128
H16   H     H_    0.548097 0.685198 0.036663 0.144247
H17   H     H_    0.649964 0.067040 0.576909 0.174718
H18   H     H_    0.349024 0.078371 0.430934 0.169954
H19   H     H_    0.149964 0.567040 0.576909 0.174718
H20   H     H_    0.849024 0.578371 0.430934 0.169954
H21   H     H_    0.689997 0.890420 0.508494 0.111720
H22   H     H_    0.307790 0.911674 0.508335 0.108961
H23   H     H_    0.189997 0.390419 0.508494 0.111720
H24   H     H_    0.724448 0.368291 0.537982 0.113941
H25   H     H_    0.807790 0.411674 0.508335 0.108961
H26   H     H_    0.850769 0.025113 0.442546 0.132639
H27   H     H_    0.145725 0.053723 0.568670 0.134138
H28   H     H_    0.350769 0.525113 0.442546 0.132639
H29   H     H_    0.645725 0.553723 0.568670 0.134138
H30   H     H_    0.816910 0.160368 0.410234 0.172132
H31   H     H_    0.183806 0.194765 0.581975 0.148375
H32   H     H_    0.316910 0.660368 0.410234 0.172132
H33   H     H_    0.683806 0.694765 0.581975 0.148376
H34   H     H_    0.802894 0.232533 0.522013 0.109677
H35   H     H_    0.824345 0.930861 0.567606 0.120810
H36   H     H_    0.169969 0.232351 0.459188 0.103566
H37   H     H_    0.302894 0.732533 0.522013 0.109677
H38   H     H_    0.669969 0.732351 0.459188 0.103566
H39   H     H_    0.815974 0.917601 0.886335 0.352205
H40   H     H_    0.184317 0.917358 0.113866 0.350125
H41   H     H_    0.315974 0.417601 0.886335 0.352205
H42   H     H_    0.684317 0.417357 0.113866 0.350125
H43   H     H_    0.943818 0.521612 0.118888 0.334134
H44   H     H_    0.056183 0.522664 0.880841 0.334334
H45   H     H_    0.443818 0.021612 0.118888 0.334134
H46   H     H_    0.180094 0.926795 0.432571 0.117462
H47   H     H_    0.556183 0.022664 0.880841 0.334334
H48   H     H_    0.663333 0.860476 0.704668 0.336869
H49   H     H_    0.345481 0.882085 0.302086 0.337551
H50   H     H_    0.163333 0.360476 0.704668 0.336869
H51   H     H_    0.845481 0.382085 0.302086 0.337551
H52   H     H_    0.324345 0.430861 0.567605 0.120810
H53   H     H_    0.680094 0.426795 0.432571 0.117462
H54   H     H_    0.041195 0.143259 0.435973 0.136216
H55   H     H_    0.968656 0.135308 0.564913 0.133486
H56   H     H_    0.541195 0.643259 0.435973 0.136216
H57   H     H_    0.362062 0.115038 0.550877 0.127000
H58   H     H_    0.468656 0.635308 0.564913 0.133486
H59   H     H_    0.955898 0.156707 0.442757 0.106081
H60   H     H_    0.054267 0.170908 0.561444 0.110114
H61   H     H_    0.455898 0.656707 0.442757 0.106082
H62   H     H_    0.554267 0.670908 0.561444 0.110114
H63   H     H_    0.608345 0.892341 0.448474 0.106981
H64   H     H_    0.387320 0.829232 0.548651 0.105584
H65   H     H_    0.108345 0.392341 0.448474 0.106981
H66   H     H_    0.887320 0.329232 0.548651 0.105584
H67   H     H_    0.598031 0.854599 0.572384 0.163030
H68   H     H_    0.134053 0.595275 0.453754 0.122841
H69   H     H_    0.397440 0.822082 0.424406 0.150934
H70   H     H_    0.098031 0.354599 0.572384 0.163030
H71   H     H_    0.897440 0.322082 0.424406 0.150934
H72   H     H_    0.934152 0.467695 0.424512 0.155987
H73   H     H_    0.049587 0.488877 0.575095 0.145177
H74   H     H_    0.434152 0.967695 0.424512 0.155987
H75   H     H_    0.549587 0.988877 0.575095 0.145177
H76   H     H_    0.924109 0.473009 0.544638 0.138943
H77   H     H_    0.044752 0.501073 0.457940 0.137317
H78   H     H_    0.424109 0.973009 0.544638 0.138943
H79   H     H_    0.862062 0.615037 0.550877 0.126999
H80   H     H_    0.544752 0.001074 0.457940 0.137317
H81   H     H_    0.818469 0.918008 0.057797 0.186383
H82   H     H_    0.181626 0.917220 0.942802 0.185939
H83   H     H_    0.318469 0.418008 0.057797 0.186383
H84   H     H_    0.681626 0.417220 0.942802 0.185939
H85   H     H_    0.694436 0.205986 0.448838 0.178907
H86   H     H_    0.302674 0.224744 0.552561 0.161456
H87   H     H_    0.194436 0.705986 0.448838 0.178907
H88   H     H_    0.802674 0.724744 0.552561 0.161456
H89   H     H_    0.861076 0.050204 0.073128 0.096345
H90   H     H_    0.865543 0.128000 0.545399 0.124815
H91   H     H_    0.139070 0.048796 0.926727 0.096825
H92   H     H_    0.361076 0.550204 0.073128 0.096345
H93   H     H_    0.639070 0.548796 0.926727 0.096825
H94   H     H_    0.869267 0.082836 0.957404 0.165015
H95   H     H_    0.130724 0.082885 0.042127 0.164439
H96   H     H_    0.369267 0.582836 0.957404 0.165015
H97   H     H_    0.630724 0.582885 0.042127 0.164439
H98   H     H_    0.665724 0.944873 0.052788 0.098140
H99   H     H_    0.334368 0.945525 0.948036 0.097672
H100  H     H_    0.165724 0.444873 0.052788 0.098140
H101  H     H_    0.133979 0.092623 0.455319 0.121291
H102  H     H_    0.834368 0.445525 0.948036 0.097672
H103  H     H_    0.706803 0.935263 0.930835 0.128224
H104  H     H_    0.293195 0.936224 0.069810 0.126847
H105  H     H_    0.206803 0.435263 0.930835 0.128224
H106  H     H_    0.793196 0.436224 0.069810 0.126847
H107  H     H_    0.717197 0.242805 0.091798 0.179078
H108  H     H_    0.283008 0.242643 0.907452 0.180482
H109  H     H_    0.217197 0.742805 0.091798 0.179078
H110  H     H_    0.783008 0.742643 0.907452 0.180482
H111  H     H_    0.806619 0.232037 0.081252 0.104009
H112  H     H_    0.365543 0.628000 0.545399 0.124815
H113  H     H_    0.193551 0.231184 0.918083 0.102797
H114  H     H_    0.306619 0.732037 0.081252 0.104009
H115  H     H_    0.693551 0.731184 0.918083 0.102797
H116  H     H_    0.782002 0.290139 0.960596 0.107596
H117  H     H_    0.217920 0.290033 0.038371 0.107760
H118  H     H_    0.282002 0.790139 0.960596 0.107596
H119  H     H_    0.717920 0.790034 0.038371 0.107760
H120  H     H_    0.698036 0.245361 0.970652 0.178788
H121  H     H_    0.302029 0.246456 0.028754 0.180281
H122  H     H_    0.198036 0.745361 0.970652 0.178788
H123  H     H_    0.633978 0.592623 0.455319 0.121291
H124  H     H_    0.802029 0.746456 0.028754 0.180281
H125  H     H_    0.648420 0.094990 0.043015 0.163805
H126  H     H_    0.351923 0.095827 0.957035 0.164497
H127  H     H_    0.148420 0.594990 0.043015 0.163805
H128  H     H_    0.851923 0.595827 0.957035 0.164497
H129  H     H_    0.673659 0.214172 0.569631 0.130930
H130  H     H_    0.326310 0.222141 0.428685 0.133556
H131  H     H_    0.173659 0.714172 0.569631 0.130930
H132  H     H_    0.826310 0.722141 0.428685 0.133556
H133  H     H_    0.656911 0.064863 0.922424 0.166714
H134  H     H_    0.768983 0.851457 0.471326 0.106015
H135  H     H_    0.343113 0.066508 0.077728 0.167669
H136  H     H_    0.156911 0.564863 0.922424 0.166714
H137  H     H_    0.843113 0.566508 0.077728 0.167669
H138  H     H_    0.057141 0.518680 0.046744 0.198577
H139  H     H_    0.942888 0.518163 0.953063 0.198413
H140  H     H_    0.557141 0.018680 0.046744 0.198577
H141  H     H_    0.442888 0.018163 0.953063 0.198413
H142  H     H_    0.613798 0.787201 0.046330 0.103453
H143  H     H_    0.386100 0.787231 0.953819 0.103484
H144  H     H_    0.113798 0.287201 0.046330 0.103453
O1    O     O_R   0.957210 0.449410 0.665480 -0.527003
O2    O     O_R   0.167480 0.095300 0.164000 -0.515282
O3    O     O_R   0.332520 0.595300 0.836000 -0.514866
O4    O     O_R   0.667480 0.595300 0.164000 -0.515282
O5    O     O_R   0.946380 0.253940 0.826940 -0.505923
O6    O     O_R   0.053620 0.253940 0.173060 -0.505225
O7    O     O_R   0.446380 0.753940 0.826940 -0.505923
O8    O     O_R   0.553620 0.753940 0.173060 -0.505225
O9    O     O_3   0.834560 0.334570 0.748840 -0.300413
O10   O     O_3   0.165440 0.334570 0.251160 -0.308028
O11   O     O_3   0.334560 0.834570 0.748840 -0.300413
O12   O     O_R   0.042790 0.449410 0.334520 -0.529058
O13   O     O_3   0.665440 0.834570 0.251160 -0.308028
O14   O     O_R   0.820730 0.541240 0.668250 -0.482826
O15   O     O_R   0.179270 0.541240 0.331750 -0.473633
O16   O     O_R   0.320730 0.041240 0.668250 -0.482826
O17   O     O_R   0.679270 0.041240 0.331750 -0.473633
O18   O     O_R   0.714240 0.455060 0.663710 -0.534414
O19   O     O_R   0.285760 0.455060 0.336290 -0.525130
O20   O     O_R   0.214240 0.955060 0.663710 -0.534414
O21   O     O_R   0.785760 0.955060 0.336290 -0.525130
O22   O     O_R   0.736780 0.204870 0.675910 -0.510803
O23   O     O_R   0.457210 0.949410 0.665480 -0.527003
O24   O     O_R   0.263220 0.204870 0.324090 -0.512113
O25   O     O_R   0.236780 0.704870 0.675910 -0.510803
O26   O     O_R   0.763220 0.704870 0.324090 -0.512113
O27   O     O_R   0.833070 0.087590 0.673490 -0.515049
O28   O     O_R   0.166930 0.087590 0.326510 -0.522776
O29   O     O_R   0.333070 0.587590 0.673490 -0.515049
O30   O     O_R   0.666930 0.587590 0.326510 -0.522776
O31   O     O_R   0.946890 0.246800 0.676300 -0.517363
O32   O     O_R   0.053110 0.246800 0.323700 -0.517095
O33   O     O_R   0.446890 0.746800 0.676300 -0.517363
O34   O     O_R   0.542790 0.949410 0.334520 -0.529058
O35   O     O_R   0.553110 0.746800 0.323700 -0.517096
O36   O     O_R   0.956650 0.457120 0.827980 -0.514777
O37   O     O_R   0.043350 0.457120 0.172020 -0.514400
O38   O     O_R   0.456650 0.957120 0.827980 -0.514777
O39   O     O_R   0.543350 0.957120 0.172020 -0.514400
O40   O     O_R   0.820220 0.548390 0.818890 -0.488952
O41   O     O_R   0.179780 0.548390 0.181110 -0.488508
O42   O     O_R   0.320220 0.048390 0.818890 -0.488952
O43   O     O_R   0.679780 0.048390 0.181110 -0.488508
O44   O     O_R   0.713680 0.462770 0.826210 -0.532144
O45   O     O_R   0.736260 0.212010 0.826560 -0.500837
O46   O     O_R   0.286320 0.462770 0.173790 -0.529422
O47   O     O_R   0.213680 0.962770 0.826210 -0.532144
O48   O     O_R   0.786320 0.962770 0.173790 -0.529422
O49   O     O_3   0.836602 0.921287 0.934024 -0.726958
O50   O     O_3   0.162747 0.921415 0.066651 -0.724868
O51   O     O_3   0.336602 0.421287 0.934024 -0.726958
O52   O     O_3   0.662747 0.421415 0.066651 -0.724868
O53   O     O_3   0.962365 0.558489 0.074867 -0.715480
O54   O     O_3   0.037728 0.559174 0.924857 -0.715219
O55   O     O_3   0.462365 0.058488 0.074867 -0.715480
O56   O     O_R   0.263740 0.212010 0.173440 -0.500308
O57   O     O_3   0.537728 0.059174 0.924857 -0.715219
O58   O     O_2   0.776123 0.815898 0.666241 -0.522517
O59   O     O_R   0.675438 0.909097 0.660828 -0.747280
O60   O     O_2   0.241926 0.804005 0.348954 -0.533612
O61   O     O_R   0.329091 0.932439 0.343453 -0.739254
O62   O     O_2   0.276123 0.315898 0.666241 -0.522517
O63   O     O_R   0.175438 0.409097 0.660828 -0.747280
O64   O     O_2   0.741926 0.304005 0.348954 -0.533612
O65   O     O_R   0.829091 0.432439 0.343453 -0.739253
O66   O     O_R   0.236260 0.712010 0.826560 -0.500837
O67   O     O_R   0.763740 0.712010 0.173440 -0.500308
O68   O     O_R   0.832520 0.095300 0.836000 -0.514866

loop_
_geom_bond_atom_site_label_1
_geom_bond_atom_site_label_2
_ccdc_geom_bond_type
C105  C110  S    
C87   C91   S    
Cr6   O23   S    
C19   H19   S    
C102  O55   S    
C74   C83   S    
C100  O53   S    
C17   H17   S    
C90   C95   S    
C4    C87   S    
C1    O14   A    
C61   H81   S    
Cr12  O9    S    
Cr10  O25   S    
C28   O62   D    
C64   H93   S    
C46   H62   S    
C101  O54   S    
Cr12  O5    S    
C93   H104  S    
C62   H91   S    
Cr6   O16   S    
Cr7   O13   S    
C107  C112  S    
C63   H83   S    
C89   C94   S    
C65   O27   A    
C76   C94   S    
C5    C88   S    
C66   O28   A    
C78   C96   S    
C2    C22   S    
C74   H98   S    
C110  H9    S    
C88   C97   S    
C47   C53   S    
C98   H122  S    
C23   H13   S    
C8    O36   A    
C17   C30   S    
C19   C32   S    
C70   H26   S    
C21   H134  S    
Cr3   O29   S    
C44   H60   S    
Cr3   O7    S    
C1    O18   A    
Cr10  O11   S    
Cr4   O8    S    
C18   H130  S    
C82   H110  S    
C67   O29   A    
C27   C35   S    
C36   H52   S    
C16   H79   S    
C43   C44   S    
Cr12  O68   S    
H47   O57   S    
C108  H15   S    
C92   H32   S    
C44   C57   S    
C16   C20   S    
C54   H69   S    
C55   H67   S    
C81   H31   S    
Cr10  O20   S    
C96   H120  S    
C49   H66   S    
C20   C33   S    
C42   H38   S    
Cr10  O47   S    
Cr9   O24   S    
C105  C118  S    
C16   H88   S    
H40   O50   S    
C107  C120  S    
C75   C93   S    
Cr8   O44   S    
C123  O41   A    
C46   C60   S    
C79   C97   S    
C33   C38   S    
H42   O52   S    
C78   H107  S    
C108  C111  S    
C106  H3    S    
C85   C123  S    
C109  H8    S    
C2    C14   S    
C71   C88   S    
C74   H125  S    
H48   O59   S    
C23   C36   S    
C115  O12   A    
C71   H95   S    
Cr8   O9    S    
C2    C81   S    
C18   C31   S    
C48   O20   A    
C76   C85   S    
Cr1   O9    S    
C34   H35   S    
Cr6   O42   S    
C37   O19   A    
C122  O40   A    
C112  H4    S    
C7    O67   A    
C42   C103  S    
C113  O31   A    
Cr8   O18   S    
C33   C42   S    
C32   C36   S    
C68   O26   A    
H49   O61   S    
C73   C90   S    
Cr1   O40   S    
C79   C84   S    
C73   O52   S    
C75   C84   S    
Cr5   O15   S    
C45   H61   S    
C47   H77   S    
C49   C57   S    
C13   C23   S    
C43   H59   S    
C39   H90   S    
C3    O43   A    
C25   H25   S    
C23   H23   S    
Cr6   O11   S    
C71   O50   S    
C32   C41   S    
Cr2   O32   S    
C18   H18   S    
C37   O15   A    
C80   H114  S    
C9    C118  S    
C11   C120  S    
C46   H58   S    
C12   C114  S    
C30   C34   S    
C5    O2    A    
C43   H54   S    
H51   O65   S    
C111  H10   S    
C57   C113  S    
C7    C90   S    
C58   C117  S    
C100  H138  S    
C4    O68   A    
C81   H27   S    
Cr5   O41   S    
H41   O51   S    
C26   O59   S    
C25   C38   S    
C93   H135  S    
C94   H136  S    
C53   H70   S    
C77   H102  S    
C76   H100  S    
C32   C67   S    
H44   O54   S    
C51   H78   S    
Cr3   O33   S    
Cr1   O1    S    
Cr5   O10   S    
C103  H29   S    
Cr2   O6    S    
C41   H112  S    
C60   C116  S    
Cr4   O4    S    
C90   C99   S    
C19   H131  S    
C117  O35   A    
Cr4   O30   S    
Cr11  O48   S    
C41   H37   S    
C72   H96   S    
Cr10  O66   S    
C110  C119  S    
C50   H63   S    
C109  C118  S    
Cr4   O35   S    
C123  O46   A    
C112  H11   S    
C89   C98   S    
C24   C103  S    
Cr11  O13   S    
C112  C121  S    
C49   H76   S    
C100  C101  S    
C30   C39   S    
C30   C65   S    
C51   H64   S    
C111  H5    S    
C54   H74   S    
C1    C24   S    
C122  O44   A    
C103  H33   S    
C105  H144  S    
C51   C60   S    
C107  H142  S    
C63   C85   S    
C33   C68   S    
C47   C56   S    
C59   O21   A    
C106  C109  S    
Cr7   O39   S    
C106  C119  S    
C52   H71   S    
C82   C99   S    
C6    O3    A    
C108  C121  S    
C20   H132  S    
Cr1   O14   S    
C45   C46   S    
C5    O56   A    
C15   C19   S    
C105  H14   S    
C66   O24   A    
C97   H117  S    
C94   H105  S    
C67   O25   A    
Cr7   O34   S    
C31   C40   S    
C62   C84   S    
Cr2   O10   S    
C78   C83   S    
Cr5   O12   S    
C12   C17   S    
C86   C122  S    
C108  H143  S    
C73   H97   S    
C69   C87   S    
C3    O48   A    
Cr8   O22   S    
C55   C60   S    
C68   O30   A    
Cr1   O36   S    
C40   C81   S    
C64   C86   S    
H45   O55   S    
Cr4   O13   S    
C45   C58   S    
C50   C58   S    
C61   C83   S    
C53   C57   S    
C21   C34   S    
C22   H22   S    
C2    C48   S    
C82   C86   S    
C74   C91   S    
C104  H141  S    
Cr2   O28   S    
C80   C85   S    
C116  O33   A    
C45   H56   S    
C50   H80   S    
C38   H53   S    
C25   H24   S    
C29   O65   S    
C109  H7    S    
C79   H108  S    
C104  O57   S    
C9    O37   A    
C8    O5    A    
Cr12  O31   S    
C27   O60   D    
C14   H57   S    
C11   O39   A    
C13   C92   S    
C31   C35   S    
C100  C118  S    
C96   H116  S    
C40   H36   S    
C102  C120  S    
H39   O49   S    
C124  O42   A    
C29   O64   D    
C80   C98   S    
H43   O53   S    
C63   H92   S    
C22   H2    S    
C95   H137  S    
Cr11  O67   S    
Cr9   O10   S    
C115  O32   A    
Cr9   O56   S    
C124  O47   A    
C59   C114  S    
Cr2   O2    S    
C4    O45   A    
C56   C115  S    
C15   H87   S    
C95   H106  S    
C63   C72   S    
C28   C36   S    
C53   H73   S    
Cr7   O17   S    
C8    C119  S    
Cr7   O43   S    
C7    O4    A    
C113  O1    A    
Cr5   O37   S    
C31   C66   S    
C77   H128  S    
C14   C18   S    
C10   C121  S    
C28   O63   S    
C15   H68   S    
C97   H121  S    
C70   C114  S    
C35   H46   S    
C22   C35   S    
C9    O6    A    
C80   H109  S    
C62   H82   S    
C11   O8    A    
C39   H34   S    
C70   H30   S    
C44   H55   S    
C106  H12   S    
C47   H65   S    
Cr3   O3    S    
C110  H6    S    
C17   H129  S    
C59   O17   A    
C26   C34   S    
Cr6   O38   S    
C62   C71   S    
C99   H119  S    
C75   H99   S    
C13   C37   S    
H50   O63   S    
C49   C52   S    
C75   H126  S    
C16   C24   S    
C79   H113  S    
C42   H123  S    
Cr11  O21   S    
C117  O34   A    
C64   H84   S    
C101  C119  S    
C82   H115  S    
C24   C25   S    
Cr3   O11   S    
C104  C121  S    
C116  O23   A    
C77   C95   S    
C61   H89   S    
C111  C120  S    
C29   C38   S    
C40   H101  S    
C64   C73   S    
C87   C96   S    
C78   H111  S    
Cr9   O19   S    
C102  C104  S    
C107  H16   S    
Cr8   O45   S    
C76   H127  S    
C77   C86   S    
C13   C15   S    
C98   H118  S    
C54   C58   S    
C61   C69   S    
C27   O61   S    
C88   C93   S    
C20   H20   S    
C52   H72   S    
C21   H21   S    
C10   O7    A    
C14   H86   S    
C21   C114  S    
C91   H133  S    
C48   O16   A    
C69   O49   S    
Cr9   O46   S    
C65   O22   A    
C84   C124  S    
C6    C89   S    
C50   C55   S    
C51   C54   S    
C26   O58   D    
C69   H94   S    
C3    C83   S    
C72   C89   S    
Cr12  O27   S    
C92   H28   S    
C10   O38   A    
C99   H124  S    
C72   O51   S    
C39   C70   S    
C12   H85   S    
C55   H75   S    
C43   C56   S    
C41   C92   S    
Cr11  O26   S    
C91   H103  S    
C12   H1    S    
C101  H139  S    
C102  H140  S    
C6    O66   A    
C52   C56   S    
