data_mof_unit_57726.cif
_audit_creation_date              2013-03-05T16:07:19-0500
_audit_creation_method            fapswitch 2.2
_symmetry_space_group_name_H-M    P1
_symmetry_Int_Tables_number       1
_space_group_crystal_system       triclinic
_cell_length_a                    6.966768
_cell_length_b                    13.700741
_cell_length_c                    20.172066
_cell_angle_alpha                 102.961318
_cell_angle_beta                  89.976569
_cell_angle_gamma                 90.601946
_cell_volume                      1876.25762486

loop_
_atom_site_label
_atom_site_type_symbol
_atom_site_description
_atom_site_fract_x
_atom_site_fract_y
_atom_site_fract_z
_atom_type_partial_charge
O1    O     O_R   0.506770 0.599700 0.449550 -0.596418
O2    O     O_R   0.179980 0.595740 0.587960 -0.577628
O3    O     O_R   0.004580 0.400300 0.550450 -0.603249
C1    C     C_R   0.348546 0.618193 0.614896 1.011115
O4    O     O_R   0.177380 0.611700 0.452380 -0.591748
O5    O     O_R   0.001970 0.416370 0.413900 -0.596364
C2    C     C_R   0.346147 0.638226 0.435914 1.081692
O6    O     O_R   0.509390 0.583630 0.586100 -0.561088
O7    O     O_3   0.337530 0.435890 0.487530 -0.270355
V1    V     V_3+5 0.064660 0.511890 0.502310 1.301148
O8    O     O_R   0.671950 0.404260 0.412040 -0.553616
C3    C     C_R   0.840323 0.383694 0.384662 0.949818
O9    O     O_R   0.674540 0.388300 0.547620 -0.587600
C4    C     C_R   0.842551 0.360857 0.563572 1.015254
V2    V     V_3+5 0.564030 0.488110 0.497690 1.310927
O10   O     O_3   0.841030 0.564110 0.512470 -0.248274
C5    C     C_R   0.746271 0.113240 0.608116 0.416809
H1    H     H_    0.742240 0.168632 0.516242 0.168406
C6    C     C_R   0.844213 0.280697 0.600983 -0.177139
C7    C     C_R   0.938632 0.309667 0.926068 0.813947
C8    C     C_R   0.970550 0.381472 0.888431 -0.143871
C9    C     C_R   0.942191 0.358306 0.818357 -0.209464
C10   C     C_R   0.875874 0.262166 0.783716 0.117770
C11   C     C_R   0.833133 0.190646 0.823164 -0.009659
C12   C     C_R   0.848899 0.235400 0.711524 0.068214
C13   C     C_R   0.767459 0.139936 0.680307 -0.169564
C14   C     C_R   0.705850 0.075351 0.722119 0.374148
C15   C     C_R   0.750229 0.098262 0.791349 -0.299496
C16   C     C_R   0.896084 0.301939 0.669413 -0.097847
C17   C     C_R   0.772157 0.186338 0.570378 -0.267697
C18   C     C_R   0.870575 0.214084 0.894267 -0.394438
H2    H     H_    0.965109 0.373004 0.688679 0.173629
H3    H     H_    0.971717 0.418153 0.793257 0.218045
H4    H     H_    0.021629 0.455452 0.913559 0.213183
H5    H     H_    0.705864 0.045361 0.821067 0.150827
C19   C     C_R   0.728065 0.262474 0.199763 -0.043292
C20   C     C_R   0.866514 0.187428 0.183344 -0.137319
C21   C     C_R   0.001367 0.181347 0.234005 -0.021752
H6    H     H_    0.103371 0.121793 0.225010 0.193635
C22   C     C_R   0.995300 0.246302 0.298831 0.015272
H7    H     H_    0.096368 0.235812 0.337282 0.202592
C23   C     C_R   0.850811 0.318566 0.315583 -0.182427
C24   C     C_R   0.721807 0.327931 0.264122 -0.113545
C25   C     C_3   0.507620 0.327433 0.265840 1.132915
C26   C     C_3   0.514077 0.251040 0.197960 0.226548
C27   C     C_R   0.486384 0.673420 0.732851 -0.035195
C28   C     C_R   0.352307 0.685203 0.683798 -0.145283
C29   C     C_R   0.207265 0.756692 0.704706 0.057951
H8    H     H_    0.100005 0.768300 0.668659 0.208223
C30   C     C_R   0.206079 0.818284 0.770954 -0.077086
H9    H     H_    0.096647 0.874868 0.784091 0.126434
C31   C     C_R   0.353299 0.811906 0.817690 -0.141770
C32   C     C_R   0.488211 0.735733 0.797879 0.047848
C33   C     C_3   0.703018 0.738890 0.801360 -0.086618
C34   C     C_3   0.700545 0.671788 0.729531 0.825040
H10   H     H_    0.765635 0.814718 0.804252 0.133907
C35   C     C_R   0.250047 0.880403 0.387451 -0.171683
H11   H     H_    0.197941 0.953830 0.412102 0.218226
C36   C     C_R   0.349730 0.716120 0.397083 -0.366685
C37   C     C_R   0.425509 0.687180 0.070217 0.595488
C38   C     C_R   0.455170 0.613924 0.106820 0.765227
C39   C     C_R   0.428498 0.635337 0.177022 -0.407357
C40   C     C_R   0.365259 0.730703 0.212518 0.043126
C41   C     C_R   0.323798 0.803470 0.174018 -0.067569
C42   C     C_R   0.342999 0.756588 0.284868 0.113142
C43   C     C_R   0.274664 0.853339 0.316601 -0.185464
C44   C     C_R   0.226299 0.921339 0.277310 0.811096
C45   C     C_R   0.249215 0.896426 0.207253 -0.251352
C46   C     C_R   0.382913 0.689398 0.326980 -0.245644
C47   C     C_R   0.284686 0.811845 0.427262 0.809958
C48   C     C_R   0.361330 0.782312 0.103086 -0.468689
H12   H     H_    0.430752 0.614187 0.306770 0.199406
H13   H     H_    0.459099 0.575486 0.201861 0.238310
H14   H     H_    0.204319 0.950259 0.179053 0.172887
O11   O     O_R   0.203450 0.916320 0.913910 -0.597035
O12   O     O_R   0.535520 0.888300 0.047620 -0.578009
O13   O     O_R   0.710860 0.083650 0.086100 -0.560427
C49   C     C_R   0.366612 0.861981 0.064680 1.156503
O14   O     O_R   0.532860 0.904250 0.912040 -0.610373
O15   O     O_R   0.708190 0.099710 0.949550 -0.600681
C50   C     C_R   0.363971 0.882645 0.884900 0.968171
O16   O     O_R   0.206120 0.900260 0.050460 -0.604186
O17   O     O_3   0.375280 0.064080 0.012470 -0.222186
V3    V     V_3+5 0.648180 0.988110 0.997690 1.297945
O18   O     O_R   0.038220 0.111740 0.952370 -0.589286
C51   C     C_R   0.870753 0.136505 0.934205 1.046089
O19   O     O_R   0.040880 0.095790 0.087940 -0.550947
C52   C     C_R   0.872572 0.117143 0.115392 0.998249
V4    V     V_3+5 0.148800 0.011950 0.002300 1.309204
O20   O     O_3   0.871820 0.935920 0.987530 -0.271318
F1    F     F_    0.433492 0.419279 0.261983 -0.721877
F2    F     F_    0.432258 0.291831 0.319463 -0.685152
N1    N     N_R   0.423718 0.285320 0.141624 0.271012
O21   O     O_R   0.240739 0.303553 0.143214 -0.303557
O22   O     O_R   0.522874 0.294039 0.088502 -0.281857
N2    N     N_R   0.454319 0.149394 0.201769 0.202286
O23   O     O_R   0.512206 0.110711 0.251585 -0.372825
O24   O     O_R   0.377871 0.090372 0.148890 -0.413388
N3    N     N_R   0.777115 0.690586 0.853896 0.269466
O25   O     O_R   0.691488 0.612452 0.867553 -0.283531
O26   O     O_R   0.928581 0.727540 0.888608 -0.346474
N4    N     N_R   0.781725 0.572523 0.724117 0.219522
O27   O     O_R   0.967063 0.562944 0.725542 -0.435212
O28   O     O_R   0.671471 0.493392 0.715761 -0.443651
N5    N     N_R   0.578754 0.992165 0.697205 0.254561
O29   O     O_R   0.603921 0.908026 0.715331 -0.388261
O30   O     O_R   0.419613 0.005803 0.666898 -0.346458
F3    F     F_    0.770442 0.718120 0.680101 -0.674807
F4    F     F_    0.248347 0.837618 0.495071 -0.638222
F5    F     F_    0.154098 0.012315 0.306957 -0.704431
F6    F     F_    0.462769 0.665985 0.002419 -0.617450
F7    F     F_    0.516694 0.521982 0.074349 -0.575664
N6    N     N_R   0.711576 0.011748 0.571739 0.264777
O31   O     O_R   0.816661 0.940054 0.584419 -0.293552
O32   O     O_R   0.602762 0.993466 0.517845 -0.342691
F8    F     F_    0.976577 0.332991 0.993880 -0.622200

loop_
_geom_bond_atom_site_label_1
_geom_bond_atom_site_label_2
_geom_bond_distance
_ccdc_geom_bond_type
O19   C52   1.304284 A    
C40   C42   1.431298 A    
N1    O21   1.300588 A    
C20   C52   1.488841 S    
C35   C43   1.404614 A    
O15   V3    2.026802 S    
C26   N1    1.467825 S    
O12   V3    2.023632 S    
C5    N6    1.437288 S    
C32   C33   1.497902 S    
C31   C32   1.401954 A    
N5    O30   1.301545 A    
C34   N4    1.459749 S    
C13   C14   1.416015 A    
C20   C21   1.405194 A    
O16   V4    2.030986 S    
C5    C13   1.426978 A    
C41   C45   1.404293 A    
C19   C20   1.401788 A    
O12   C49   1.295992 A    
C16   H2    1.072772 S    
O5    C3    1.299229 A    
O14   V3    2.010440 S    
C14   N5    1.434491 S    
C45   H14   1.076390 S    
V2    O10   2.171682 S    
C41   C48   1.419480 A    
C3    C23   1.478784 S    
C33   C34   1.532005 S    
O8    V2    1.999208 S    
N3    O25   1.302485 A    
C15   H5    1.081782 S    
N2    O24   1.296086 A    
C27   C34   1.493664 S    
C30   C31   1.409972 A    
C10   C11   1.423195 A    
C39   H13   1.075632 S    
H1    C17   1.084017 S    
C35   C47   1.388780 A    
O7    V1    2.165378 S    
C38   C39   1.393036 A    
C25   F2    1.383624 S    
C1    O6    1.305581 A    
C29   C30   1.411476 A    
C43   C44   1.395610 A    
N1    O22   1.301875 A    
C18   C51   1.470696 S    
C8    C9    1.391226 A    
C5    C17   1.397554 A    
N4    O27   1.300204 A    
V3    O20   1.714121 S    
C2    C36   1.458608 S    
C12   C16   1.414765 A    
O17   V4    1.718318 S    
C33   H10   1.111893 S    
C44   C45   1.386975 A    
C28   C29   1.411873 A    
O13   C52   1.302695 A    
C26   N2    1.467789 S    
C7    F8    1.358526 S    
O18   V4    2.029197 S    
O11   C50   1.301969 A    
C8    H4    1.083062 S    
C37   C48   1.400951 A    
C12   C13   1.429815 A    
O18   C51   1.294231 A    
C37   C38   1.390010 A    
C46   H12   1.075991 S    
O2    C1    1.298826 A    
C24   C25   1.492563 S    
C39   C40   1.416378 A    
C47   F4    1.358214 S    
C49   O16   1.299059 A    
C44   F5    1.357507 S    
O17   V3    2.165372 S    
N2    O23   1.302713 A    
C30   H9    1.082849 S    
C19   C26   1.496979 S    
N4    O28   1.301708 A    
O3    C4    1.299006 A    
C25   F1    1.383415 S    
C36   C46   1.398751 A    
O1    V2    2.029458 S    
C29   H8    1.080400 S    
N3    O26   1.300188 A    
O6    V2    2.000273 S    
O19   V4    1.999007 S    
C33   N3    1.466225 S    
C23   C24   1.401685 A    
C6    C16   1.392378 A    
C25   C26   1.526590 S    
O4    C2    1.292158 A    
N6    O31   1.301610 A    
C9    H3    1.074057 S    
C27   C28   1.397596 A    
C22   H7    1.081963 S    
O1    C2    1.297792 A    
C4    C6    1.465571 S    
C11   C15   1.402885 A    
O5    V1    2.006402 S    
O8    C3    1.302678 A    
O14   C50   1.300866 A    
N5    O29   1.298713 A    
O15   C51   1.300118 A    
O13   V3    2.006509 S    
C34   F3    1.382515 S    
O9    V2    2.029222 S    
O7    V2    1.718907 S    
C11   C18   1.421373 A    
O4    V1    2.023791 S    
O3    V1    2.026783 S    
V1    O10   1.714222 S    
C21   C22   1.408014 A    
C6    C17   1.390341 A    
C35   H11   1.083616 S    
C21   H6    1.072068 S    
C42   C46   1.415173 A    
C27   C32   1.395384 A    
C22   C23   1.406520 A    
C10   C12   1.431679 A    
C31   C50   1.480574 S    
O11   V4    2.000675 S    
C36   C47   1.396450 A    
C40   C41   1.426211 A    
C7    C8    1.387077 A    
C42   C43   1.423337 A    
C14   C15   1.395010 A    
C37   F6    1.358386 S    
C9    C10   1.418215 A    
C19   C24   1.403630 A    
V4    O20   2.171733 S    
O9    C4    1.295685 A    
C38   F7    1.356659 S    
C1    C28   1.484081 S    
C48   C49   1.473596 S    
N6    O32   1.301476 A    
C7    C18   1.400584 A    
O2    V1    2.010389 S    
