data_mof_unit_58573.cif
_audit_creation_date              2012-12-10T17:43:34-0500
_audit_creation_method            fapswitch 2.2
_symmetry_space_group_name_H-M    P1
_symmetry_Int_Tables_number       1
_space_group_crystal_system       triclinic
_cell_length_a                    14.991585
_cell_length_b                    10.651402
_cell_length_c                    9.915419
_cell_angle_alpha                 89.770915
_cell_angle_beta                  90.132768
_cell_angle_gamma                 91.106457
_cell_volume                      1582.99612587

loop_
_atom_site_label
_atom_site_type_symbol
_atom_type_description
_atom_site_fract_x
_atom_site_fract_y
_atom_site_fract_z
_atom_type_partial_charge
C1    C     C_R   0.504810 0.260736 0.500398 0.955471
C2    C     C_R   0.906981 0.515468 0.375929 0.093574
C3    C     C_R   0.953481 0.438267 0.736245 -0.198451
C4    C     C_R   0.045925 0.434548 0.734971 -0.216268
C5    C     C_R   0.092449 0.459761 0.615394 0.122528
C6    C     C_R   0.046313 0.484542 0.493880 0.056635
C7    C     C_R   0.092959 0.508466 0.371945 0.023541
C8    C     C_R   0.045407 0.530541 0.250412 -0.019647
C9    C     C_R   0.952558 0.535972 0.254940 -0.264438
C10   C     C_R   0.184609 0.462856 0.616174 -0.256408
C11   C     C_R   0.230766 0.492586 0.498108 -0.083392
C12   C     C_R   0.326736 0.498613 0.499744 0.865554
C13   C     C_R   0.185660 0.515057 0.377179 -0.221123
C14   C     C_R   0.656865 0.128705 0.626345 0.599697
C15   C     C_R   0.725553 0.061221 0.685709 -0.188340
C16   C     C_R   0.723513 0.930947 0.683554 -0.239861
C17   C     C_R   0.652647 0.867248 0.622055 -0.194409
C18   C     C_R   0.581351 0.933672 0.563205 0.033063
C19   C     C_R   0.583021 0.065688 0.564747 -0.030969
C20   C     C_R   0.511604 0.128287 0.500658 -0.087684
C21   C     C_R   0.443511 0.063724 0.433027 -0.230766
C22   C     C_R   0.442311 0.935492 0.432133 -0.186981
C23   C     C_R   0.501687 0.739364 0.499693 0.854972
C24   C     C_R   0.509171 0.871585 0.498966 -0.056612
C25   C     C_R   0.382421 0.337725 0.140245 -0.137708
C26   C     C_R   0.324218 0.258251 0.070227 -0.130608
C27   C     C_R   0.324431 0.257924 0.930676 -0.176025
C28   C     C_R   0.382864 0.337054 0.860354 -0.160903
C29   C     C_R   0.442188 0.419850 0.927856 0.178630
C30   C     C_R   0.442082 0.420049 0.072422 0.167602
C31   C     C_R   0.555448 0.576398 0.071343 -0.111105
C32   C     C_R   0.555398 0.576413 0.928238 -0.101319
C33   C     C_R   0.673301 0.501666 0.500014 0.955624
C34   C     C_R   0.814892 0.521060 0.378773 -0.250230
C35   C     C_R   0.769246 0.499571 0.499629 -0.064495
C36   C     C_R   0.815099 0.472761 0.618840 -0.200860
C37   C     C_R   0.907200 0.466188 0.617585 0.097263
C38   C     C_R   0.953542 0.488050 0.495549 0.065971
H1    H     H_    0.778836 0.542250 0.286718 0.161169
H2    H     H_    0.781462 0.110536 0.732043 0.165760
H3    H     H_    0.777580 0.879049 0.728190 0.172070
H4    H     H_    0.655335 0.765982 0.619371 0.150590
H5    H     H_    0.387959 0.885685 0.381915 0.151754
H6    H     H_    0.600779 0.638844 0.124937 0.145574
H7    H     H_    0.378719 0.331524 0.247099 0.193879
H8    H     H_    0.278891 0.196222 0.124793 0.149152
H9    H     H_    0.279249 0.195662 0.876359 0.150437
H10   H     H_    0.379575 0.330318 0.753506 0.195354
H11   H     H_    0.779239 0.455561 0.712201 0.185290
H12   H     H_    0.600663 0.638915 0.874340 0.142222
H13   H     H_    0.918288 0.420422 0.829965 0.156022
H14   H     H_    0.081127 0.413739 0.827708 0.186033
H15   H     H_    0.220242 0.443969 0.709173 0.172288
H16   H     H_    0.223622 0.541724 0.288800 0.201373
H17   H     H_    0.915369 0.554102 0.163104 0.175578
H18   H     H_    0.389903 0.113020 0.383275 0.137758
N1    N     N_R   0.499150 0.498800 0.142780 -0.123665
N2    N     N_R   0.499120 0.498720 0.857170 -0.118078
O1    O     O_R   0.500000 0.316780 0.614690 -0.598966
O2    O     O_R   0.499990 0.316750 0.385360 -0.644929
O3    O     O_R   0.367850 0.499980 0.614680 -0.641217
O4    O     O_R   0.367840 0.499960 0.385350 -0.644761
O5    O     O_R   0.500010 0.683250 0.614640 -0.621532
O6    O     O_R   0.500000 0.683220 0.385310 -0.617705
O7    O     O_R   0.632160 0.500040 0.614650 -0.589967
O8    O     O_R   0.632150 0.500020 0.385320 -0.631461
Zn1   Zn    Zn3+2 0.500010 0.500020 0.653130 0.970902
Zn2   Zn    Zn3+2 0.499990 0.499980 0.346870 0.947864
F1    F     F_    0.665667 0.254911 0.627080 -0.693333
C39   C     C_2   0.088857 0.546800 0.116759 0.874318
O9    O     O_2   0.150769 0.480337 0.084165 -0.657031
O10   O     O_R   0.055875 0.634976 0.025420 -0.809029
H19   H     H_    0.090550 0.637697 0.937761 0.344766

loop_
_geom_bond_atom_site_label_1
_geom_bond_atom_site_label_2
_ccdc_geom_bond_type
C8    C9    A    
O8    Zn2   S    
C35   C36   A    
C32   N2    A    
C33   O7    A    
C7    C8    A    
C26   C27   A    
C29   C30   A    
C4    H14   S    
C18   C24   A    
O6    Zn2   S    
C28   C29   A    
C34   C35   A    
C1    O1    A    
C5    C6    A    
C15   C16   A    
C30   N1    A    
C18   C19   A    
C10   H15   S    
C2    C38   A    
C17   H4    S    
O1    Zn1   S    
C28   H10   S    
C19   C20   A    
C16   C17   A    
O7    Zn1   S    
C23   C24   S    
C6    C38   A    
C39   O9    D    
C9    H17   S    
C2    C34   A    
C23   O5    A    
C21   C22   A    
C33   O8    A    
O5    Zn1   S    
C31   H6    S    
C34   H1    S    
C1    O2    A    
C3    H13   S    
C4    C5    A    
C25   C26   A    
C37   C38   A    
C12   O4    A    
O3    Zn1   S    
C31   C32   A    
C17   C18   A    
C29   N2    A    
C32   H12   S    
C23   O6    A    
C14   F1    S    
C22   C24   A    
N1    Zn2   S    
C3    C4    A    
C25   H7    S    
C13   H16   S    
C27   H9    S    
C25   C30   A    
C36   C37   A    
C1    C20   S    
C14   C19   A    
O10   H19   S    
C21   H18   S    
C11   C12   S    
C6    C7    A    
C8    C39   S    
O4    Zn2   S    
O2    Zn2   S    
C31   N1    A    
C5    C10   A    
C12   O3    A    
C11   C13   A    
C33   C35   S    
C15   H2    S    
C10   C11   A    
C26   H8    S    
N2    Zn1   S    
C7    C13   A    
C20   C21   A    
C3    C37   A    
C27   C28   A    
C14   C15   A    
C39   O10   S    
C2    C9    A    
C16   H3    S    
C22   H5    S    
C36   H11   S    
