data_mof_unit_38971.cif
_audit_creation_date              2012-12-10T18:07:19-0500
_audit_creation_method            fapswitch 2.2
_symmetry_space_group_name_H-M    P1
_symmetry_Int_Tables_number       1
_space_group_crystal_system       triclinic
_cell_length_a                    18.383661
_cell_length_b                    18.373926
_cell_length_c                    42.994682
_cell_angle_alpha                 90.027776
_cell_angle_beta                  89.957609
_cell_angle_gamma                 89.87944
_cell_volume                      14522.706997

loop_
_atom_site_label
_atom_site_type_symbol
_atom_type_description
_atom_site_fract_x
_atom_site_fract_y
_atom_site_fract_z
_atom_type_partial_charge
C1    C     C_R   0.445765 0.956686 0.115604 0.219331
C2    C     C_R   0.067298 0.502195 0.385573 0.212812
C3    C     C_R   0.316258 0.735632 0.735695 0.202678
C4    C     C_R   0.245529 0.297091 0.275410 0.207247
C5    C     C_R   0.763090 0.708331 0.722974 0.208248
C6    C     C_R   0.319844 0.734092 0.261621 0.204675
C7    C     C_R   0.683145 0.264822 0.735290 0.209798
C8    C     C_R   0.196587 0.696677 0.249978 -0.066362
C9    C     C_R   0.802893 0.305148 0.750709 -0.071003
C10   C     C_R   0.304580 0.196029 0.249968 -0.070956
C11   C     C_R   0.697527 0.804026 0.749787 -0.064307
C12   C     C_R   0.803005 0.303691 0.249995 -0.060971
C13   C     C_R   0.488812 0.934069 0.614153 0.216948
C14   C     C_R   0.195344 0.696441 0.749923 -0.068349
C15   C     C_R   0.696090 0.804539 0.250152 -0.064861
C16   C     C_R   0.303647 0.197024 0.750131 -0.059665
C17   C     C_R   0.195775 0.304178 0.750047 -0.061922
C18   C     C_R   0.803470 0.696908 0.250084 -0.060347
C19   C     C_R   0.303125 0.803586 0.750081 -0.062063
C20   C     C_R   0.695270 0.196500 0.249838 -0.067839
C21   C     C_R   0.804909 0.696449 0.749871 -0.071966
C22   C     C_R   0.196992 0.303409 0.249991 -0.062821
C23   C     C_R   0.695103 0.198000 0.750917 -0.064478
C24   C     C_R   0.544676 0.050543 0.384445 0.208919
C25   C     C_R   0.304509 0.803692 0.249548 -0.073017
C26   C     C_R   0.504301 0.985365 0.066326 -0.063722
C27   C     C_R   0.505188 0.982742 0.934704 -0.062431
C28   C     C_R   0.006551 0.497486 0.065112 -0.063767
C29   C     C_R   0.005224 0.498047 0.933553 -0.060949
C30   C     C_R   0.002666 0.493138 0.566330 -0.061064
C31   C     C_R   0.003133 0.490877 0.434780 -0.061978
C32   C     C_R   0.506970 0.997263 0.565128 -0.063796
C33   C     C_R   0.505380 0.997956 0.433568 -0.060915
C34   C     C_3   0.408933 0.858534 0.144882 0.030585
C35   C     C_R   0.053772 0.536995 0.614987 0.207814
C36   C     C_3   0.374186 0.795252 0.127265 -0.270901
C37   C     C_3   0.385098 0.723427 0.144480 -0.493578
C38   C     C_3   0.672640 0.941334 0.870344 0.013728
C39   C     C_3   0.751302 0.955576 0.880058 -0.271148
C40   C     C_3   0.793174 0.884577 0.884390 -0.481404
C41   C     C_3   0.037355 0.327374 0.131842 0.038051
C42   C     C_3   0.048644 0.278333 0.103304 -0.293490
C43   C     C_3   0.099375 0.214815 0.110559 -0.471755
C44   C     C_3   0.157714 0.572990 0.864831 0.015878
C45   C     C_3   0.202985 0.628048 0.846592 -0.248396
C46   C     C_R   0.935444 0.486948 0.386154 0.216173
C47   C     C_3   0.281263 0.602025 0.842520 -0.505819
C48   C     C_3   0.586776 0.141931 0.132505 0.018877
C49   C     C_3   0.642802 0.184427 0.151392 -0.248523
C50   C     C_3   0.619349 0.263402 0.155982 -0.502542
C51   C     C_3   0.328958 0.038014 0.872971 0.027921
C52   C     C_3   0.288505 0.046356 0.904111 -0.291089
C53   C     C_3   0.224147 0.098458 0.901554 -0.476690
C54   C     C_3   0.966620 0.672713 0.128514 0.030974
C55   C     C_3   0.957330 0.714411 0.097747 -0.291826
C56   C     C_3   0.907954 0.780593 0.101501 -0.476504
C57   C     C_R   0.517242 0.063747 0.613863 0.217339
C58   C     C_3   0.846280 0.432397 0.865014 0.017040
C59   C     C_3   0.798273 0.380244 0.846555 -0.248947
C60   C     C_3   0.723032 0.412697 0.840894 -0.508032
C61   C     C_3   0.925775 0.344688 0.636178 0.017502
C62   C     C_3   0.870493 0.300023 0.654549 -0.248020
C63   C     C_3   0.898344 0.223078 0.660658 -0.505521
C64   C     C_3   0.169808 0.439321 0.371433 0.014923
C65   C     C_3   0.248549 0.451131 0.381599 -0.268842
C66   C     C_3   0.287422 0.378865 0.387063 -0.481019
C67   C     C_3   0.536891 0.826886 0.631778 0.037848
C68   C     C_R   0.459973 0.948522 0.384859 0.208825
C69   C     C_3   0.547236 0.777501 0.603280 -0.292909
C70   C     C_3   0.596648 0.712984 0.610581 -0.472565
C71   C     C_3   0.656612 0.075835 0.364968 0.015831
C72   C     C_3   0.700562 0.131209 0.346307 -0.247918
C73   C     C_3   0.779393 0.106800 0.342342 -0.505645
C74   C     C_3   0.080926 0.648962 0.633886 0.017398
C75   C     C_3   0.136468 0.692137 0.652750 -0.248416
C76   C     C_3   0.111263 0.770345 0.657850 -0.503163
C77   C     C_3   0.828499 0.541007 0.371265 0.031730
C78   C     C_3   0.783398 0.549388 0.401182 -0.291514
C79   C     C_R   0.447413 0.953182 0.083163 -0.117967
C80   C     C_3   0.718445 0.599906 0.396513 -0.473977
C81   C     C_3   0.466813 0.172488 0.628586 0.031000
C82   C     C_3   0.456823 0.213776 0.597759 -0.291973
C83   C     C_3   0.406603 0.279338 0.601464 -0.476603
C84   C     C_3   0.347370 0.929880 0.364950 0.017772
C85   C     C_3   0.300354 0.876986 0.346398 -0.249222
C86   C     C_3   0.224770 0.908378 0.340476 -0.507813
C87   C     C_3   0.199434 0.935941 0.249391 0.045583
C88   C     C_3   0.116760 0.941990 0.252360 -0.263067
C89   C     C_3   0.095019 0.004580 0.273813 -0.507328
C90   C     C_R   0.568766 0.996981 0.917996 -0.128657
C91   C     C_3   0.748053 0.133772 0.814972 0.044973
C92   C     C_3   0.808158 0.161940 0.836486 -0.268818
C93   C     C_3   0.781126 0.168944 0.869928 -0.490928
C94   C     C_3   0.099255 0.202456 0.206591 0.044575
C95   C     C_3   0.119778 0.127350 0.193570 -0.252161
C96   C     C_3   0.053161 0.078918 0.189645 -0.506824
C97   C     C_3   0.800409 0.664555 0.819369 0.043915
C98   C     C_3   0.748095 0.688755 0.845067 -0.264789
C99   C     C_3   0.713381 0.623444 0.861157 -0.498352
C100  C     C_3   0.811086 0.073235 0.256881 0.034267
C101  C     C_R   0.986916 0.435139 0.081625 -0.124542
C102  C     C_3   0.835651 0.997095 0.247326 -0.254563
C103  C     C_3   0.862882 0.953585 0.275190 -0.501412
C104  C     C_3   0.241879 0.872971 0.812218 0.049515
C105  C     C_3   0.178560 0.845291 0.832154 -0.264402
C106  C     C_3   0.194738 0.853671 0.866771 -0.489420
C107  C     C_3   0.900533 0.791044 0.203386 0.053151
C108  C     C_3   0.886379 0.860334 0.184560 -0.258176
C109  C     C_3   0.955241 0.905662 0.181051 -0.509756
C110  C     C_3   0.197002 0.335299 0.820535 0.041812
C111  C     C_3   0.256900 0.311453 0.843093 -0.259159
C112  C     C_R   0.568073 0.999639 0.885459 0.213073
C113  C     C_R   0.045842 0.549603 0.916931 -0.128624
C114  C     C_3   0.280888 0.374374 0.863848 -0.501516
C115  C     C_3   0.212805 0.100410 0.798050 0.055580
C116  C     C_3   0.144410 0.113306 0.817610 -0.259928
C117  C     C_3   0.102143 0.043055 0.822585 -0.509529
C118  C     C_3   0.662570 0.797078 0.180425 0.041832
C119  C     C_3   0.687510 0.739293 0.157062 -0.257130
C120  C     C_3   0.623192 0.708749 0.138864 -0.498867
C121  C     C_3   0.063068 0.800674 0.747923 0.043803
C122  C     C_3   0.063363 0.882390 0.741013 -0.260186
C123  C     C_3   0.001668 0.903153 0.718972 -0.505225
C124  C     C_R   0.558992 0.022981 0.082345 -0.126239
C125  C     C_3   0.875981 0.233589 0.189191 0.052324
C126  C     C_3   0.855986 0.164170 0.171362 -0.262117
C127  C     C_3   0.871395 0.171903 0.136669 -0.496376
C128  C     C_3   0.792779 0.908115 0.791664 0.044156
C129  C     C_3   0.872404 0.892993 0.800192 -0.261063
C130  C     C_3   0.917728 0.962354 0.798900 -0.491248
C131  C     C_3   0.339757 0.202678 0.180609 0.041926
C132  C     C_3   0.316634 0.260354 0.156925 -0.260658
C133  C     C_3   0.382284 0.290637 0.139497 -0.498017
C134  C     C_3   0.924549 0.187598 0.748317 0.036215
C135  C     C_R   0.440131 0.972572 0.918518 -0.126265
C136  C     C_3   0.000923 0.166535 0.758797 -0.251205
C137  C     C_3   0.046527 0.139006 0.731564 -0.499017
C138  C     C_3   0.129317 0.755539 0.186733 0.049417
C139  C     C_3   0.158843 0.817675 0.166565 -0.261584
C140  C     C_3   0.147605 0.802300 0.132040 -0.491320
C141  C     C_3   0.699223 0.438033 0.749910 0.044321
C142  C     C_3   0.616621 0.444834 0.753028 -0.262421
C143  C     C_3   0.595613 0.508211 0.774196 -0.506686
C144  C     C_3   0.254233 0.630880 0.313259 0.045052
C145  C     C_3   0.316032 0.660046 0.333656 -0.267530
C146  C     C_R   0.024161 0.560668 0.081494 -0.126482
C147  C     C_3   0.293422 0.663797 0.367779 -0.490468
C148  C     C_3   0.598237 0.702682 0.707102 0.045766
C149  C     C_3   0.617390 0.627534 0.693784 -0.253071
C150  C     C_3   0.550043 0.579949 0.690234 -0.505932
C151  C     C_3   0.296322 0.159850 0.318985 0.042392
C152  C     C_3   0.243289 0.182690 0.344637 -0.263803
C153  C     C_3   0.207974 0.116582 0.359863 -0.498435
C154  C     C_3   0.311559 0.573452 0.756568 0.033991
C155  C     C_3   0.335877 0.497260 0.746977 -0.254834
C156  C     C_3   0.363797 0.453855 0.774752 -0.500880
C157  C     C_R   0.962572 0.447571 0.917273 -0.125455
C158  C     C_3   0.738849 0.374669 0.311500 0.049888
C159  C     C_3   0.673457 0.349791 0.330887 -0.263196
C160  C     C_3   0.686685 0.361306 0.365561 -0.490991
C161  C     C_3   0.400119 0.290861 0.703146 0.054189
C162  C     C_3   0.385502 0.360145 0.684357 -0.257230
C163  C     C_3   0.454422 0.404942 0.680063 -0.511477
C164  C     C_3   0.697184 0.835543 0.320561 0.041043
C165  C     C_3   0.759737 0.812620 0.341958 -0.262034
C166  C     C_3   0.783180 0.875150 0.363045 -0.500282
C167  C     C_3   0.707167 0.599588 0.295536 0.050335
C168  C     C_R   0.949299 0.455093 0.583009 -0.127402
C169  C     C_3   0.635495 0.615947 0.312368 -0.255140
C170  C     C_3   0.591014 0.547088 0.317452 -0.512652
C171  C     C_3   0.163840 0.300802 0.679902 0.041527
C172  C     C_3   0.187097 0.239049 0.658099 -0.259672
C173  C     C_3   0.123135 0.212177 0.638648 -0.500451
C174  C     C_3   0.562835 0.299776 0.246643 0.044748
C175  C     C_3   0.555826 0.381967 0.241808 -0.263834
C176  C     C_3   0.495681 0.399808 0.218549 -0.507844
C177  C     C_3   0.374751 0.734772 0.688734 0.050823
C178  C     C_3   0.352039 0.666408 0.670741 -0.261697
C179  C     C_R   0.067308 0.502496 0.418116 -0.128026
C180  C     C_3   0.366306 0.674597 0.635980 -0.494695
C181  C     C_3   0.292310 0.403517 0.294268 0.043592
C182  C     C_3   0.370437 0.384964 0.304132 -0.255841
C183  C     C_3   0.417679 0.452887 0.305843 -0.497584
C184  C     C_3   0.838056 0.700566 0.680335 0.041909
C185  C     C_3   0.814703 0.758226 0.656682 -0.261182
C186  C     C_3   0.880161 0.788221 0.639027 -0.498370
C187  C     C_3   0.434397 0.699038 0.245941 0.049265
C188  C     C_3   0.471942 0.625804 0.251240 -0.253027
C189  C     C_3   0.538566 0.616767 0.230335 -0.506839
C190  C     C_R   0.487216 0.934963 0.581651 -0.124704
C191  C     C_3   0.628316 0.257906 0.687552 0.050492
C192  C     C_3   0.653958 0.322107 0.667628 -0.263284
C193  C     C_3   0.643542 0.306930 0.633040 -0.490216
C194  C     C_R   0.545169 0.050161 0.416949 -0.128728
C195  C     C_R   0.055248 0.533224 0.582550 -0.126259
C196  C     C_R   0.988699 0.434167 0.114122 0.216955
C197  C     C_R   0.938160 0.480415 0.418558 -0.125555
C198  C     C_R   0.524578 0.060460 0.581501 -0.126163
C199  C     C_R   0.463430 0.946896 0.417286 -0.125365
C200  C     C_R   0.500460 0.995626 0.131636 0.031109
C201  C     C_R   0.501183 0.994923 0.869068 0.038891
C202  C     C_R   0.001613 0.499502 0.130885 0.034268
C203  C     C_R   0.001493 0.499910 0.868220 0.039474
C204  C     C_R   0.000608 0.497905 0.631699 0.037201
C205  C     C_R   0.000709 0.496919 0.369043 0.038474
C206  C     C_R   0.501716 0.999438 0.630893 0.034340
C207  C     C_R   0.045443 0.549900 0.884426 0.208728
C208  C     C_R   0.501462 0.999909 0.368233 0.039172
C209  C     C_R   0.003805 0.489663 0.469032 0.348074
C210  C     C_R   0.003409 0.491167 0.532098 0.349416
C211  C     C_R   0.506985 0.997200 0.467801 0.350120
C212  C     C_R   0.508015 0.996739 0.530868 0.347450
C213  C     C_R   0.506265 0.979903 0.968978 0.348595
C214  C     C_R   0.505646 0.981604 0.032082 0.349522
C215  C     C_R   0.006712 0.497352 0.967786 0.350063
C216  C     C_R   0.007582 0.496972 0.030853 0.347345
C217  C     C_R   0.500314 0.000017 0.334148 0.516321
C218  C     C_R   0.556585 0.029767 0.114665 0.210587
C219  C     C_R   0.500164 0.999940 0.665533 0.528355
C220  C     C_R   0.000062 0.499370 0.334443 0.526944
C221  C     C_R   0.000094 0.499741 0.665829 0.513113
C222  C     C_R   0.000332 0.500017 0.834143 0.516195
C223  C     C_R   0.000156 0.499948 0.165531 0.528236
C224  C     C_R   0.500111 0.999218 0.834462 0.527424
C225  C     C_R   0.500027 0.999579 0.165799 0.500724
C226  C     C_R   0.360146 0.139937 0.250010 0.502269
C227  C     C_R   0.640413 0.859838 0.749951 0.533468
C228  C     C_R   0.859648 0.359801 0.249993 0.537318
C229  C     C_R   0.436430 0.982665 0.886280 0.216726
C230  C     C_R   0.139897 0.640086 0.750003 0.506097
C231  C     C_R   0.639955 0.860119 0.250019 0.504066
C232  C     C_R   0.359850 0.140376 0.750054 0.542527
C233  C     C_R   0.140185 0.640333 0.250034 0.530627
C234  C     C_R   0.859800 0.360162 0.750109 0.504565
C235  C     C_R   0.359685 0.859769 0.750015 0.535888
C236  C     C_R   0.639847 0.140132 0.249966 0.506733
C237  C     C_R   0.860180 0.640004 0.750001 0.499863
C238  C     C_R   0.140285 0.359682 0.250015 0.535525
C239  C     C_R   0.639795 0.140669 0.750250 0.530454
C240  C     C_R   0.016978 0.563872 0.113869 0.217217
C241  C     C_R   0.360269 0.859755 0.249818 0.496323
C242  C     C_R   0.139919 0.360068 0.750009 0.506862
C243  C     C_R   0.859752 0.640302 0.250018 0.541066
C244  C     C_R   0.235106 0.819229 0.237284 0.210733
C245  C     C_R   0.761148 0.186511 0.767066 0.204185
C246  C     C_R   0.203540 0.254820 0.224599 0.208123
C247  C     C_R   0.793488 0.739204 0.776614 0.211714
C248  C     C_R   0.765552 0.180063 0.239026 0.194521
C249  C     C_R   0.235324 0.816760 0.764752 0.208340
C250  C     C_R   0.796349 0.744390 0.224424 0.205578
C251  C     C_R   0.959217 0.449190 0.884843 0.208937
C252  C     C_R   0.208230 0.262900 0.777119 0.209877
C253  C     C_R   0.256733 0.204682 0.775969 0.205298
C254  C     C_R   0.737401 0.791893 0.223111 0.207635
C255  C     C_R   0.179283 0.766533 0.761399 0.208842
C256  C     C_R   0.816467 0.235454 0.235919 0.202525
C257  C     C_R   0.747398 0.799122 0.774804 0.207824
C258  C     C_R   0.263652 0.208867 0.222917 0.207553
C259  C     C_R   0.817301 0.236302 0.763665 0.196517
C260  C     C_R   0.184640 0.763411 0.234311 0.207896
C261  C     C_R   0.733686 0.320694 0.738268 0.208301
C262  C     C_R   0.948988 0.455763 0.615507 0.209820
C263  C     C_R   0.263625 0.684386 0.265321 0.215265
C264  C     C_R   0.703228 0.754588 0.724665 0.207859
C265  C     C_R   0.291652 0.237104 0.277029 0.210350
C266  C     C_R   0.265463 0.680161 0.738878 0.194742
C267  C     C_R   0.734809 0.317262 0.264254 0.209657
C268  C     C_R   0.296111 0.244093 0.724348 0.205901
C269  C     C_R   0.708397 0.763107 0.277160 0.211072
C270  C     C_R   0.755808 0.704035 0.275718 0.205881
C271  C     C_R   0.237260 0.291738 0.723025 0.208760
C272  C     C_R   0.678932 0.266816 0.260974 0.209010
H1    H     H_    0.404306 0.924350 0.071248 0.155897
H2    H     H_    0.118560 0.509071 0.430204 0.151707
H3    H     H_    0.781803 0.052844 0.330767 0.129811
H4    H     H_    0.027927 0.649989 0.646555 0.109330
H5    H     H_    0.074119 0.675444 0.610745 0.127114
H6    H     H_    0.144480 0.665589 0.675718 0.193174
H7    H     H_    0.189367 0.692559 0.640229 0.168004
H8    H     H_    0.107282 0.799359 0.635257 0.154673
H9    H     H_    0.150885 0.799257 0.672908 0.141177
H10   H     H_    0.057230 0.770919 0.669374 0.129153
H11   H     H_    0.790812 0.537630 0.351269 0.165018
H12   H     H_    0.862535 0.590371 0.367232 0.135924
H13   H     H_    0.472160 0.885834 0.569361 0.150982
H14   H     H_    0.763172 0.495362 0.408888 0.176605
H15   H     H_    0.818101 0.572528 0.419848 0.152116
H16   H     H_    0.736493 0.653029 0.386992 0.153321
H17   H     H_    0.690936 0.609408 0.419156 0.155584
H18   H     H_    0.678839 0.574452 0.380405 0.144318
H19   H     H_    0.472814 0.212900 0.647462 0.153999
H20   H     H_    0.417031 0.140421 0.634245 0.143228
H21   H     H_    0.510394 0.232900 0.589040 0.175031
H22   H     H_    0.432575 0.176842 0.580155 0.154928
H23   H     H_    0.354157 0.262703 0.612123 0.153240
H24   H     H_    0.577787 0.090196 0.429046 0.154172
H25   H     H_    0.395511 0.303639 0.578305 0.156711
H26   H     H_    0.433164 0.321172 0.616177 0.144007
H27   H     H_    0.351414 0.981813 0.351636 0.109057
H28   H     H_    0.320538 0.940662 0.387761 0.126251
H29   H     H_    0.326938 0.865057 0.323727 0.190091
H30   H     H_    0.294977 0.825311 0.359555 0.168709
H31   H     H_    0.196289 0.918689 0.362845 0.153719
H32   H     H_    0.192292 0.869127 0.326618 0.140627
H33   H     H_    0.229038 0.960205 0.327339 0.130276
H34   H     H_    0.221513 0.990150 0.242955 0.171348
H35   H     H_    0.097028 0.562913 0.570148 0.155693
H36   H     H_    0.223888 0.921811 0.272340 0.095106
H37   H     H_    0.092916 0.951439 0.229013 0.179238
H38   H     H_    0.094482 0.890258 0.261709 0.181799
H39   H     H_    0.115285 0.994551 0.297746 0.144071
H40   H     H_    0.034900 0.009214 0.274541 0.146828
H41   H     H_    0.117463 0.056866 0.265128 0.138665
H42   H     H_    0.730006 0.079824 0.823627 0.181647
H43   H     H_    0.699358 0.170157 0.816376 0.121640
H44   H     H_    0.855366 0.124133 0.835794 0.174216
H45   H     H_    0.826455 0.216337 0.828553 0.204371
H46   H     H_    0.888715 0.467945 0.431107 0.149539
H47   H     H_    0.734389 0.207260 0.871125 0.150085
H48   H     H_    0.825572 0.190118 0.884858 0.160681
H49   H     H_    0.763811 0.115273 0.879043 0.169809
H50   H     H_    0.048957 0.221391 0.195044 0.155442
H51   H     H_    0.085234 0.197976 0.231810 0.122058
H52   H     H_    0.146833 0.133563 0.170622 0.209810
H53   H     H_    0.158318 0.100041 0.209688 0.183210
H54   H     H_    0.023957 0.072801 0.212122 0.159203
H55   H     H_    0.070587 0.024383 0.181347 0.152341
H56   H     H_    0.015825 0.102630 0.172089 0.142103
H57   H     H_    0.541826 0.108651 0.569085 0.150418
H58   H     H_    0.845895 0.633740 0.830192 0.161083
H59   H     H_    0.772331 0.625618 0.803438 0.086572
H60   H     H_    0.778384 0.721111 0.862592 0.169014
H61   H     H_    0.704475 0.723426 0.835000 0.185173
H62   H     H_    0.680582 0.591596 0.844284 0.141244
H63   H     H_    0.676982 0.642679 0.880082 0.153162
H64   H     H_    0.755941 0.587767 0.871398 0.140532
H65   H     H_    0.767278 0.068023 0.274640 0.118601
H66   H     H_    0.858439 0.102493 0.267168 0.142113
H67   H     H_    0.789163 0.967830 0.236599 0.205774
H68   H     H_    0.431826 0.906451 0.429628 0.156538
H69   H     H_    0.880052 0.001639 0.229890 0.162492
H70   H     H_    0.909942 0.981233 0.286147 0.144507
H71   H     H_    0.879965 0.898462 0.267525 0.139739
H72   H     H_    0.818995 0.947912 0.292683 0.133178
H73   H     H_    0.257983 0.927543 0.820764 0.167017
H74   H     H_    0.290516 0.837237 0.815504 0.126235
H75   H     H_    0.128147 0.875870 0.826399 0.195085
H76   H     H_    0.169149 0.786829 0.827173 0.193867
H77   H     H_    0.245173 0.823609 0.872973 0.163101
H78   H     H_    0.148867 0.831266 0.880554 0.160557
H79   H     H_    0.388277 0.858385 0.169185 0.174608
H80   H     H_    0.201399 0.912042 0.872802 0.155169
H81   H     H_    0.951057 0.764885 0.194851 0.164212
H82   H     H_    0.911595 0.805268 0.228207 0.112626
H83   H     H_    0.865313 0.845925 0.161199 0.189924
H84   H     H_    0.844589 0.893757 0.196443 0.196770
H85   H     H_    0.977453 0.919740 0.204282 0.149996
H86   H     H_    0.942370 0.956767 0.168406 0.150797
H87   H     H_    0.996791 0.874990 0.167618 0.146858
H88   H     H_    0.151536 0.359301 0.834186 0.164115
H89   H     H_    0.217096 0.379397 0.805000 0.092796
H90   H     H_    0.469071 0.849865 0.146262 0.085428
H91   H     H_    0.236367 0.266453 0.857934 0.180903
H92   H     H_    0.304685 0.291343 0.829764 0.179588
H93   H     H_    0.303399 0.419270 0.849536 0.138588
H94   H     H_    0.323772 0.355235 0.880089 0.154216
H95   H     H_    0.234205 0.395199 0.877685 0.144430
H96   H     H_    0.240701 0.050716 0.806383 0.164525
H97   H     H_    0.197527 0.088360 0.773450 0.114285
H98   H     H_    0.159505 0.136713 0.840489 0.188798
H99   H     H_    0.108663 0.152819 0.805628 0.196988
H100  H     H_    0.089755 0.017155 0.799864 0.153700
H101  H     H_    0.314930 0.805471 0.124575 0.178430
H102  H     H_    0.050276 0.055139 0.834806 0.150679
H103  H     H_    0.134458 0.004970 0.837075 0.144817
H104  H     H_    0.634166 0.841217 0.167565 0.162382
H105  H     H_    0.621579 0.773403 0.196695 0.085839
H106  H     H_    0.727072 0.763772 0.140563 0.177559
H107  H     H_    0.714832 0.693971 0.169574 0.183678
H108  H     H_    0.583947 0.682366 0.154935 0.136162
H109  H     H_    0.642905 0.667460 0.121965 0.154693
H110  H     H_    0.595095 0.752881 0.125888 0.148113
H111  H     H_    0.007501 0.784670 0.755431 0.168328
H112  H     H_    0.620105 0.003708 0.929998 0.151548
H113  H     H_    0.398866 0.791197 0.103722 0.159656
H114  H     H_    0.074721 0.769199 0.726301 0.095360
H115  H     H_    0.057028 0.913214 0.763064 0.182643
H116  H     H_    0.116167 0.897746 0.730300 0.175148
H117  H     H_    0.007862 0.874501 0.696415 0.141779
H118  H     H_    0.002856 0.962574 0.714597 0.144250
H119  H     H_    0.948155 0.889007 0.729323 0.138620
H120  H     H_    0.929816 0.252669 0.181093 0.163240
H121  H     H_    0.836904 0.278227 0.183366 0.122159
H122  H     H_    0.887366 0.117235 0.180630 0.193715
H123  H     H_    0.797220 0.152748 0.174462 0.195022
H124  H     H_    0.443993 0.712101 0.147679 0.140373
H125  H     H_    0.841870 0.219630 0.127025 0.164147
H126  H     H_    0.853064 0.122157 0.124303 0.159538
H127  H     H_    0.930644 0.178623 0.132704 0.147630
H128  H     H_    0.773268 0.955478 0.805384 0.168504
H129  H     H_    0.789017 0.924619 0.766723 0.132017
H130  H     H_    0.875785 0.869984 0.823990 0.199391
H131  H     H_    0.895903 0.852789 0.783692 0.175746
H132  H     H_    0.917094 0.985688 0.775068 0.160150
H133  H     H_    0.974644 0.949355 0.805387 0.144750
H134  H     H_    0.896318 0.003246 0.815595 0.155491
H135  H     H_    0.360711 0.678401 0.130804 0.154400
H136  H     H_    0.368188 0.157976 0.168083 0.164010
H137  H     H_    0.380311 0.226191 0.197110 0.087236
H138  H     H_    0.278377 0.235745 0.139945 0.175250
H139  H     H_    0.288350 0.305717 0.169064 0.177918
H140  H     H_    0.420606 0.316810 0.156009 0.138918
H141  H     H_    0.363884 0.332016 0.122400 0.153853
H142  H     H_    0.411027 0.246375 0.126828 0.142983
H143  H     H_    0.929327 0.228487 0.729308 0.117223
H144  H     H_    0.896745 0.137994 0.739291 0.138541
H145  H     H_    0.027988 0.214810 0.769151 0.215166
H146  H     H_    0.358064 0.725538 0.167588 0.132907
H147  H     H_    0.997120 0.123194 0.776745 0.163942
H148  H     H_    0.021381 0.089761 0.721287 0.142279
H149  H     H_    0.102053 0.125162 0.739702 0.140357
H150  H     H_    0.050840 0.181569 0.713393 0.132547
H151  H     H_    0.074627 0.740391 0.178135 0.167505
H152  H     H_    0.163985 0.705979 0.183864 0.127819
H153  H     H_    0.130852 0.869418 0.172669 0.197503
H154  H     H_    0.218035 0.824200 0.170889 0.192806
H155  H     H_    0.173791 0.749953 0.125465 0.165876
H156  H     H_    0.172250 0.846687 0.118070 0.157470
H157  H     H_    0.672305 0.918248 0.846467 0.197623
H158  H     H_    0.088615 0.799797 0.126673 0.154425
H159  H     H_    0.721669 0.491872 0.743151 0.171775
H160  H     H_    0.723875 0.424323 0.772865 0.094694
H161  H     H_    0.592535 0.453793 0.729686 0.178669
H162  H     H_    0.594058 0.393539 0.762690 0.180903
H163  H     H_    0.615853 0.498622 0.798162 0.144338
H164  H     H_    0.535548 0.513506 0.774948 0.146268
H165  H     H_    0.618560 0.560033 0.765252 0.138277
H166  H     H_    0.237849 0.576717 0.322273 0.176056
H167  H     H_    0.205231 0.666586 0.315517 0.122148
H168  H     H_    0.649306 0.898810 0.886056 0.115573
H169  H     H_    0.364581 0.624340 0.331307 0.180162
H170  H     H_    0.330911 0.715727 0.326053 0.201754
H171  H     H_    0.244822 0.699235 0.370565 0.152155
H172  H     H_    0.338619 0.686803 0.381772 0.162409
H173  H     H_    0.280650 0.608750 0.376749 0.161977
H174  H     H_    0.547713 0.722400 0.695954 0.158151
H175  H     H_    0.585157 0.698039 0.732410 0.120720
H176  H     H_    0.643652 0.633717 0.670668 0.207825
H177  H     H_    0.656263 0.599616 0.709560 0.183974
H178  H     H_    0.521776 0.573726 0.712923 0.160334
H179  H     H_    0.778805 0.988749 0.861967 0.148747
H180  H     H_    0.566494 0.525390 0.681614 0.150286
H181  H     H_    0.512172 0.604438 0.673080 0.142945
H182  H     H_    0.341277 0.128066 0.329702 0.158690
H183  H     H_    0.268557 0.122172 0.302411 0.087037
H184  H     H_    0.273105 0.214013 0.362650 0.168674
H185  H     H_    0.200048 0.218010 0.334683 0.185456
H186  H     H_    0.175704 0.085705 0.342482 0.141402
H187  H     H_    0.170971 0.134841 0.378749 0.152957
H188  H     H_    0.250150 0.080311 0.370009 0.140298
H189  H     H_    0.268147 0.568328 0.774510 0.118446
H190  H     H_    0.751991 0.986326 0.902322 0.169682
H191  H     H_    0.359151 0.602725 0.766642 0.141880
H192  H     H_    0.289106 0.467969 0.736492 0.206045
H193  H     H_    0.379863 0.501706 0.729340 0.162706
H194  H     H_    0.411116 0.481554 0.785476 0.144603
H195  H     H_    0.380738 0.398727 0.767040 0.140358
H196  H     H_    0.320360 0.448167 0.792453 0.132625
H197  H     H_    0.756217 0.429022 0.319826 0.166610
H198  H     H_    0.786137 0.337605 0.315619 0.124053
H199  H     H_    0.624028 0.380452 0.323813 0.193919
H200  H     H_    0.663631 0.291018 0.326781 0.194638
H201  H     H_    0.770492 0.853383 0.904270 0.148423
H202  H     H_    0.736385 0.331655 0.373066 0.164011
H203  H     H_    0.639517 0.340430 0.378979 0.160243
H204  H     H_    0.693088 0.420181 0.370657 0.152113
H205  H     H_    0.450606 0.264856 0.694508 0.163418
H206  H     H_    0.411457 0.305089 0.727940 0.113306
H207  H     H_    0.362992 0.345788 0.661229 0.191729
H208  H     H_    0.344772 0.394035 0.696640 0.196654
H209  H     H_    0.478812 0.418050 0.703001 0.151132
H210  H     H_    0.440999 0.456551 0.667905 0.150956
H211  H     H_    0.494312 0.374254 0.665779 0.145209
H212  H     H_    0.851270 0.896575 0.889168 0.149819
H213  H     H_    0.652369 0.857857 0.335096 0.164773
H214  H     H_    0.714617 0.880642 0.304975 0.094110
H215  H     H_    0.742012 0.766133 0.356597 0.182491
H216  H     H_    0.807054 0.794934 0.327723 0.172494
H217  H     H_    0.802508 0.921847 0.348940 0.137959
H218  H     H_    0.828276 0.856746 0.378317 0.154266
H219  H     H_    0.737056 0.893177 0.377900 0.145325
H220  H     H_    0.731035 0.549030 0.305095 0.161214
H221  H     H_    0.696395 0.587688 0.270454 0.118550
H222  H     H_    0.646647 0.641691 0.335231 0.199817
H223  H     H_    0.971932 0.385988 0.069332 0.151173
H224  H     H_    0.789493 0.850920 0.863057 0.183147
H225  H     H_    0.602947 0.654600 0.298250 0.198893
H226  H     H_    0.581197 0.519133 0.294947 0.152745
H227  H     H_    0.537849 0.561525 0.328085 0.150827
H228  H     H_    0.620212 0.509768 0.333442 0.145032
H229  H     H_    0.139832 0.345289 0.665702 0.163330
H230  H     H_    0.119868 0.282030 0.695806 0.092942
H231  H     H_    0.230773 0.258725 0.642340 0.180273
H232  H     H_    0.208761 0.192829 0.671958 0.178758
H233  H     H_    0.079695 0.190353 0.653966 0.139285
H234  H     H_    0.141756 0.168059 0.622866 0.154773
H235  H     H_    0.030756 0.292591 0.152604 0.164934
H236  H     H_    0.100565 0.257241 0.624360 0.144106
H237  H     H_    0.508506 0.277670 0.252860 0.168389
H238  H     H_    0.578962 0.272884 0.224404 0.092562
H239  H     H_    0.543078 0.408546 0.264355 0.175884
H240  H     H_    0.608269 0.404028 0.233114 0.180287
H241  H     H_    0.508292 0.375288 0.195562 0.142522
H242  H     H_    0.491167 0.459647 0.215707 0.150554
H243  H     H_    0.442551 0.378794 0.226959 0.138320
H244  H     H_    0.428872 0.752334 0.680362 0.162588
H245  H     H_    0.336870 0.780725 0.683367 0.123567
H246  H     H_    0.087001 0.360787 0.136226 0.137767
H247  H     H_    0.382469 0.618364 0.679547 0.195364
H248  H     H_    0.293075 0.656596 0.674217 0.193990
H249  H     H_    0.337911 0.723475 0.626778 0.164059
H250  H     H_    0.345933 0.625790 0.623518 0.160868
H251  H     H_    0.425584 0.679554 0.631615 0.147812
H252  H     H_    0.272941 0.450684 0.308111 0.164184
H253  H     H_    0.291641 0.421657 0.269483 0.132780
H254  H     H_    0.370291 0.358299 0.327265 0.204626
H255  H     H_    0.395058 0.346807 0.287040 0.179335
H256  H     H_    0.420717 0.479417 0.282701 0.154645
H257  H     H_    0.995519 0.256536 0.095301 0.176773
H258  H     H_    0.473378 0.437249 0.313235 0.148932
H259  H     H_    0.395218 0.491917 0.323096 0.147731
H260  H     H_    0.865664 0.655494 0.667717 0.162495
H261  H     H_    0.879380 0.723846 0.696540 0.088440
H262  H     H_    0.776059 0.733674 0.639848 0.174559
H263  H     H_    0.786802 0.803755 0.668866 0.178303
H264  H     H_    0.918731 0.814554 0.655393 0.138137
H265  H     H_    0.861583 0.829426 0.621888 0.154141
H266  H     H_    0.908683 0.743782 0.626380 0.142397
H267  H     H_    0.476374 0.742313 0.244436 0.165042
H268  H     H_    0.072982 0.310604 0.084119 0.152381
H269  H     H_    0.405827 0.697012 0.223006 0.082093
H270  H     H_    0.489111 0.621496 0.275899 0.185421
H271  H     H_    0.432731 0.581271 0.246445 0.163329
H272  H     H_    0.522312 0.618849 0.205475 0.140875
H273  H     H_    0.564876 0.563486 0.235072 0.144720
H274  H     H_    0.578861 0.660396 0.235067 0.141830
H275  H     H_    0.574357 0.240021 0.679064 0.168591
H276  H     H_    0.665569 0.210381 0.684275 0.123780
H277  H     H_    0.623289 0.372076 0.674027 0.193348
H278  H     H_    0.712566 0.331985 0.671943 0.194631
H279  H     H_    0.151779 0.235061 0.119978 0.162175
H280  H     H_    0.672677 0.256330 0.626237 0.165475
H281  H     H_    0.665597 0.352983 0.619265 0.160309
H282  H     H_    0.584804 0.301149 0.627660 0.153459
H283  H     H_    0.110304 0.183392 0.088988 0.153544
H284  H     H_    0.073543 0.178011 0.127754 0.144201
H285  H     H_    0.156849 0.520688 0.851639 0.110122
H286  H     H_    0.183865 0.563975 0.887904 0.126725
H287  H     H_    0.079057 0.589146 0.929027 0.154214
H288  H     H_    0.178199 0.636696 0.823305 0.185096
H289  H     H_    0.203229 0.680798 0.859235 0.170896
H290  H     H_    0.308209 0.596623 0.865518 0.155440
H291  H     H_    0.311910 0.642102 0.828331 0.135875
H292  H     H_    0.282483 0.548589 0.830493 0.130168
H293  H     H_    0.533404 0.145108 0.144820 0.110844
H294  H     H_    0.581480 0.167550 0.109119 0.127088
H295  H     H_    0.649687 0.158389 0.174531 0.197594
H296  H     H_    0.695954 0.183243 0.139082 0.167411
H297  H     H_    0.616151 0.291692 0.133200 0.154568
H298  H     H_    0.603006 0.048954 0.069831 0.157188
H299  H     H_    0.659659 0.291883 0.170855 0.141192
H300  H     H_    0.565315 0.265876 0.167501 0.129680
H301  H     H_    0.287998 0.034748 0.854207 0.157472
H302  H     H_    0.362439 0.087266 0.868007 0.139535
H303  H     H_    0.268177 0.992515 0.912009 0.175017
H304  H     H_    0.326355 0.068191 0.921924 0.154482
H305  H     H_    0.241582 0.151075 0.891296 0.150313
H306  H     H_    0.201262 0.108858 0.925049 0.156759
H307  H     H_    0.180943 0.073749 0.886998 0.144861
H308  H     H_    0.972295 0.712832 0.147527 0.154602
H309  H     H_    0.391196 0.958042 0.931022 0.149621
H310  H     H_    0.916652 0.640690 0.133916 0.142476
H311  H     H_    0.011179 0.732930 0.089106 0.174790
H312  H     H_    0.932731 0.677928 0.080060 0.154671
H313  H     H_    0.855268 0.764580 0.112126 0.153893
H314  H     H_    0.897227 0.805168 0.078363 0.156887
H315  H     H_    0.935067 0.821991 0.116263 0.143853
H316  H     H_    0.851057 0.484233 0.851675 0.108999
H317  H     H_    0.819798 0.443649 0.887859 0.126425
H318  H     H_    0.824338 0.368037 0.823798 0.188397
H319  H     H_    0.792403 0.328619 0.859698 0.169470
H320  H     H_    0.041350 0.608873 0.069077 0.149864
H321  H     H_    0.695033 0.423193 0.863359 0.153521
H322  H     H_    0.689813 0.374008 0.827070 0.140973
H323  H     H_    0.727821 0.464583 0.827833 0.130024
H324  H     H_    0.977457 0.346927 0.649733 0.110700
H325  H     H_    0.936090 0.317022 0.613507 0.125826
H326  H     H_    0.859269 0.327220 0.677148 0.192756
H327  H     H_    0.818904 0.296793 0.641179 0.167856
H328  H     H_    0.906364 0.193604 0.638353 0.154846
H329  H     H_    0.858044 0.192955 0.674940 0.134961
H330  H     H_    0.950789 0.224871 0.673414 0.128740
H331  H     H_    0.930315 0.407650 0.929619 0.156376
H332  H     H_    0.169515 0.415106 0.347760 0.196442
H333  H     H_    0.144319 0.398432 0.387332 0.114898
H334  H     H_    0.278001 0.482012 0.363342 0.147452
H335  H     H_    0.249579 0.483303 0.403491 0.170187
H336  H     H_    0.263049 0.350114 0.407248 0.148802
H337  H     H_    0.345855 0.388861 0.391941 0.150275
H338  H     H_    0.282817 0.343804 0.366178 0.178034
H339  H     H_    0.530442 0.792373 0.652642 0.165267
H340  H     H_    0.586891 0.859932 0.635930 0.137146
H341  H     H_    0.493701 0.756743 0.595272 0.176945
H342  H     H_    0.908600 0.423222 0.570959 0.155326
H343  H     H_    0.572225 0.809220 0.584079 0.152088
H344  H     H_    0.649384 0.732167 0.620068 0.161671
H345  H     H_    0.607089 0.681374 0.589016 0.153572
H346  H     H_    0.569948 0.676685 0.627733 0.143771
H347  H     H_    0.656906 0.023031 0.352133 0.110038
H348  H     H_    0.683010 0.068286 0.388081 0.127193
H349  H     H_    0.675501 0.138380 0.322986 0.186635
H350  H     H_    0.699652 0.184467 0.358558 0.170787
H351  H     H_    0.806597 0.103099 0.365345 0.155641
H352  H     H_    0.809012 0.146919 0.327777 0.135891
N1    N     N_R   0.565216 0.003522 0.015965 -0.232670
N2    N     N_R   0.945232 0.465327 0.485169 -0.235824
N3    N     N_R   0.536543 0.053458 0.514783 -0.235800
N4    N     N_R   0.478619 0.940401 0.483879 -0.232986
N5    N     N_R   0.945100 0.465900 0.516093 -0.232536
N6    N     N_R   0.062297 0.514528 0.485041 -0.232982
N7    N     N_R   0.479204 0.940135 0.514802 -0.234935
N8    N     N_R   0.536161 0.053625 0.483857 -0.232713
N9    N     N_R   0.446894 0.957455 0.985103 -0.236613
N10   N     N_R   0.036556 0.553465 0.014768 -0.235946
N11   N     N_R   0.977883 0.440791 0.983866 -0.233001
N12   N     N_R   0.446636 0.958141 0.016037 -0.233570
N13   N     N_R   0.565551 0.002628 0.985034 -0.233190
N14   N     N_R   0.978396 0.440560 0.014788 -0.234943
N15   N     N_R   0.036255 0.553590 0.983841 -0.232751
N16   N     N_R   0.062058 0.515359 0.515970 -0.232554
O1    O     O_3   0.500000 0.000000 0.250000 -0.471127
O2    O     O_R   0.500000 0.939250 0.680570 -0.520594
O3    O     O_3   0.619506 0.278666 0.719118 -0.547243
O4    O     O_R   0.939250 0.500000 0.319430 -0.519174
O5    O     O_R   0.060750 0.500000 0.680570 -0.512713
O6    O     O_R   0.000000 0.439250 0.819430 -0.514151
O7    O     O_R   0.000000 0.560750 0.180570 -0.519281
O8    O     O_R   0.560750 1.000000 0.819430 -0.517370
O9    O     O_R   0.439250 0.000000 0.180570 -0.519806
O10   O     O_R   0.000000 0.560750 0.819430 -0.511621
O11   O     O_R   0.000000 0.439250 0.180570 -0.521002
O12   O     O_R   0.439250 1.000000 0.819430 -0.519069
O13   O     O_3   0.500000 0.000000 0.750000 -0.462195
O14   O     O_R   0.560750 0.000000 0.180570 -0.509317
O15   O     O_R   0.414500 0.146140 0.268270 -0.522149
O16   O     O_R   0.585500 0.853860 0.731730 -0.519663
O17   O     O_R   0.853860 0.414500 0.268270 -0.524315
O18   O     O_R   0.146140 0.585500 0.731730 -0.508555
O19   O     O_R   0.585500 0.853860 0.268270 -0.519576
O20   O     O_R   0.414500 0.146140 0.731730 -0.522617
O21   O     O_R   0.146140 0.585500 0.268270 -0.522978
O22   O     O_R   0.853860 0.414500 0.731730 -0.516741
O23   O     O_R   0.414500 0.853860 0.731730 -0.519484
O24   O     O_3   0.000000 0.500000 0.250000 -0.462938
O25   O     O_R   0.585500 0.146140 0.268270 -0.516295
O26   O     O_R   0.853860 0.585500 0.731730 -0.522802
O27   O     O_R   0.146140 0.414500 0.268270 -0.525452
O28   O     O_R   0.585500 0.146140 0.731730 -0.523409
O29   O     O_R   0.414500 0.853860 0.268270 -0.519454
O30   O     O_R   0.146140 0.414500 0.731730 -0.520051
O31   O     O_R   0.853860 0.585500 0.268270 -0.521702
O32   O     O_R   0.914500 0.646140 0.768270 -0.522012
O33   O     O_R   0.085500 0.353860 0.231730 -0.519875
O34   O     O_R   0.353860 0.914500 0.768270 -0.524960
O35   O     O_3   0.000000 0.500000 0.750000 -0.472020
O36   O     O_R   0.646140 0.085500 0.231730 -0.509330
O37   O     O_R   0.085500 0.353860 0.768270 -0.523092
O38   O     O_R   0.914500 0.646140 0.231730 -0.523202
O39   O     O_R   0.646140 0.085500 0.768270 -0.523304
O40   O     O_R   0.353860 0.914500 0.231730 -0.519040
O41   O     O_R   0.914500 0.353860 0.231730 -0.519831
O42   O     O_R   0.085500 0.646140 0.768270 -0.514385
O43   O     O_R   0.353860 0.085500 0.231730 -0.520611
O44   O     O_R   0.646140 0.914500 0.768270 -0.527676
O45   O     O_R   0.085500 0.646140 0.231730 -0.522981
O46   O     O_R   0.500000 0.939250 0.319430 -0.511938
O47   O     O_R   0.914500 0.353860 0.768270 -0.506513
O48   O     O_R   0.646140 0.914500 0.231730 -0.519832
O49   O     O_R   0.353860 0.085500 0.768270 -0.524887
O50   O     O_3   0.387707 0.925344 0.131107 -0.543641
O51   O     O_3   0.633543 0.008034 0.869970 -0.567098
O52   O     O_3   0.973037 0.369599 0.129170 -0.566796
O53   O     O_3   0.086562 0.600781 0.868593 -0.541350
O54   O     O_3   0.610382 0.069022 0.129562 -0.540048
O55   O     O_3   0.370165 0.972782 0.871647 -0.569044
O56   O     O_3   0.030551 0.629341 0.128648 -0.570038
O57   O     O_R   0.500000 0.060750 0.680570 -0.519601
O58   O     O_3   0.915203 0.399968 0.869506 -0.542981
O59   O     O_3   0.897502 0.415339 0.631311 -0.541030
O60   O     O_3   0.133236 0.507372 0.370204 -0.563735
O61   O     O_3   0.472862 0.869606 0.629237 -0.566986
O62   O     O_3   0.584878 0.102165 0.368613 -0.541114
O63   O     O_3   0.106428 0.576927 0.630270 -0.541915
O64   O     O_3   0.869634 0.475705 0.371341 -0.567943
O65   O     O_3   0.530829 0.129247 0.628612 -0.569230
O66   O     O_3   0.416769 0.898555 0.369534 -0.542789
O67   O     O_3   0.217994 0.887031 0.225176 -0.530975
O68   O     O_R   0.060750 0.500000 0.319430 -0.515959
O69   O     O_3   0.774305 0.123975 0.784187 -0.541596
O70   O     O_3   0.154164 0.254703 0.200344 -0.545925
O71   O     O_3   0.830454 0.726104 0.804163 -0.526330
O72   O     O_3   0.784668 0.110076 0.230385 -0.532919
O73   O     O_3   0.221044 0.880850 0.780612 -0.545779
O74   O     O_3   0.843074 0.740537 0.199242 -0.547026
O75   O     O_3   0.168863 0.274684 0.804183 -0.541138
O76   O     O_3   0.262074 0.159142 0.801477 -0.549350
O77   O     O_3   0.723294 0.828528 0.195589 -0.535438
O78   O     O_3   0.110929 0.784358 0.772753 -0.531664
O79   O     O_R   0.939250 0.500000 0.680570 -0.510663
O80   O     O_3   0.882038 0.219789 0.221547 -0.543682
O81   O     O_3   0.747210 0.848352 0.799178 -0.557090
O82   O     O_3   0.277866 0.172330 0.195352 -0.532398
O83   O     O_3   0.886096 0.217202 0.773817 -0.522831
O84   O     O_3   0.120986 0.777431 0.218182 -0.547522
O85   O     O_3   0.717039 0.388334 0.725895 -0.534665
O86   O     O_3   0.277336 0.621301 0.281995 -0.536302
O87   O     O_3   0.653524 0.754282 0.700530 -0.546212
O88   O     O_3   0.327190 0.222236 0.304752 -0.529758
O89   O     O_3   0.284579 0.610228 0.730152 -0.531891
O90   O     O_R   0.500000 0.060750 0.319430 -0.509901
O91   O     O_3   0.720132 0.381896 0.279624 -0.546177
O92   O     O_3   0.342788 0.240133 0.699145 -0.547043
O93   O     O_3   0.669129 0.774816 0.304261 -0.534975
O94   O     O_3   0.758259 0.656180 0.300508 -0.548218
O95   O     O_3   0.224697 0.329956 0.695739 -0.538798
O96   O     O_3   0.610200 0.284905 0.271821 -0.533434
O97   O     O_3   0.381491 0.720182 0.721000 -0.543893
O98   O     O_3   0.243927 0.345040 0.300220 -0.556900
O99   O     O_3   0.776416 0.670917 0.695539 -0.532588
O100  O     O_3   0.388721 0.714655 0.271710 -0.526969
Zn1   Zn    Zn3+2 0.413200 0.000000 0.224130 0.925483
Zn2   Zn    Zn3+2 0.086800 0.500000 0.275870 0.936577
Zn3   Zn    Zn3+2 0.500000 0.913200 0.724130 0.938671
Zn4   Zn    Zn3+2 0.500000 0.086800 0.275870 0.938314
Zn5   Zn    Zn3+2 0.086800 0.500000 0.724130 0.939646
Zn6   Zn    Zn3+2 0.913200 0.500000 0.275870 0.937722
Zn7   Zn    Zn3+2 0.500000 0.086800 0.724130 0.936829
Zn8   Zn    Zn3+2 0.500000 0.913200 0.275870 0.934211
Zn9   Zn    Zn3+2 0.586800 0.000000 0.775870 0.933163
Zn10  Zn    Zn3+2 0.000000 0.413200 0.224130 0.939213
Zn11  Zn    Zn3+2 0.000000 0.586800 0.775870 0.937860
Zn12  Zn    Zn3+2 0.586800 0.000000 0.224130 0.935859
Zn13  Zn    Zn3+2 0.413200 0.000000 0.775870 0.936451
Zn14  Zn    Zn3+2 0.000000 0.586800 0.224130 0.936571
Zn15  Zn    Zn3+2 0.000000 0.413200 0.775870 0.938916
Zn16  Zn    Zn3+2 0.913200 0.500000 0.724130 0.934890

loop_
_geom_bond_atom_site_label_1
_geom_bond_atom_site_label_2
_ccdc_geom_bond_type
C209  N2    A    
C224  O12   A    
C46   C205  A    
C85   H29   S    
O42   Zn11  S    
C92   H44   S    
C205  C220  S    
C28   C216  S    
C126  C127  S    
C12   C256  A    
C10   C265  A    
C200  C218  A    
C51   H301  S    
C55   C56   S    
C251  O58   S    
C21   C247  A    
C62   H326  S    
O1    Zn4   S    
C139  H154  S    
C125  H120  S    
C76   H10   S    
C231  O48   A    
C248  O72   S    
N3    N8    A    
C104  H73   S    
C6    C25   A    
C33   C199  A    
C267  O91   S    
C122  H115  S    
C13   O61   S    
C108  C109  S    
C27   C90   A    
O12   Zn13  S    
C110  C111  S    
C192  H278  S    
C256  O80   S    
O40   Zn1   S    
C237  O32   A    
C60   H322  S    
C270  O94   S    
C18   C250  A    
C269  O93   S    
C20   C236  S    
C197  H46   S    
C180  H250  S    
O25   Zn4   S    
C3    C19   A    
C134  O83   S    
C226  O15   A    
C3    O97   S    
C186  H265  S    
O24   Zn2   S    
C8    C233  S    
O22   Zn16  S    
C231  O19   A    
C59   C60   S    
C224  O8    A    
C219  O2    A    
O8    Zn9   S    
C96   H54   S    
C210  N16   A    
C142  H162  S    
C89   H39   S    
C59   H318  S    
C104  C105  S    
C247  C257  A    
C255  O78   S    
C66   H337  S    
C45   C47   S    
C214  N12   A    
C48   H293  S    
C72   H350  S    
C154  H189  S    
C76   H8    S    
O1    Zn8   S    
C191  C192  S    
C167  H221  S    
C82   H22   S    
C141  O85   S    
C72   C73   S    
C127  H127  S    
C4    C265  A    
C143  H164  S    
C109  H85   S    
C211  N4    A    
C5    O99   S    
C105  H75   S    
C48   H294  S    
C75   C76   S    
O35   Zn5   S    
C108  H83   S    
C40   H201  S    
C156  H196  S    
C239  O28   A    
C178  C180  S    
C175  C176  S    
C229  O55   S    
C99   H64   S    
C114  H94   S    
C137  H149  S    
C190  H13   S    
O5    Zn5   S    
C162  H207  S    
O34   Zn13  S    
C53   H306  S    
C154  C155  S    
C64   O60   S    
C123  H117  S    
C100  O72   S    
C65   H334  S    
O57   Zn7   S    
O68   Zn2   S    
C33   C194  A    
C249  C255  A    
C86   H32   S    
O41   Zn10  S    
C93   H47   S    
C52   H304  S    
C158  C159  S    
C1    C79   A    
C1    C200  A    
C172  H232  S    
C252  O75   S    
C59   H319  S    
C49   H296  S    
C39   H190  S    
C91   C92   S    
C73   H352  S    
C22   C246  A    
C105  C106  S    
C25   C244  A    
C208  C217  S    
C177  H245  S    
C91   H43   S    
C227  O44   A    
O27   Zn2   S    
C2    O60   S    
C169  H225  S    
C202  C223  S    
C144  C145  S    
C37   H124  S    
C240  O56   S    
C165  H216  S    
C47   H291  S    
C139  C140  S    
C67   O61   S    
C206  C219  S    
C163  H210  S    
C17   C252  A    
C193  H282  S    
C50   H300  S    
C66   H338  S    
C223  O7    A    
C144  H167  S    
C140  H156  S    
C64   C65   S    
C237  O26   A    
C151  H182  S    
C80   H18   S    
C214  N1    A    
C226  O43   A    
C63   H330  S    
C98   H60   S    
C136  H145  S    
C77   H12   S    
C69   C70   S    
C81   H20   S    
C14   C230  S    
C177  C178  S    
C177  O97   S    
C83   H26   S    
C131  H137  S    
O24   Zn10  S    
C88   C89   S    
C98   C99   S    
C155  C156  S    
C96   H56   S    
C13   C206  A    
C110  O75   S    
C68   O66   S    
C82   C83   S    
C89   H41   S    
C262  O59   S    
C93   H49   S    
C252  C253  A    
C127  H126  S    
C21   C237  S    
C98   H61   S    
C213  N9    A    
C187  O100  S    
C71   H347  S    
C204  C221  S    
C58   O58   S    
O16   Zn3   S    
C183  H259  S    
C244  C260  A    
C17   C271  A    
C261  O85   S    
C128  C129  S    
C130  H133  S    
C97   C98   S    
C116  H99   S    
C153  H187  S    
C167  C169  S    
C85   C86   S    
C230  O18   A    
O47   Zn15  S    
C109  H87   S    
C193  H280  S    
C129  H130  S    
C189  H273  S    
C11   C257  A    
C100  H66   S    
C36   C37   S    
C162  H208  S    
C51   O55   S    
C61   H324  S    
C202  C240  A    
C38   C39   S    
C70   H344  S    
C225  O14   A    
C29   C215  S    
C101  H223  S    
C99   H62   S    
C115  C116  S    
C117  H100  S    
O1    Zn1   S    
C61   O59   S    
C184  C185  S    
C153  H186  S    
C119  H106  S    
C166  H219  S    
C43   H283  S    
C174  C175  S    
C126  H122  S    
N9    N12   A    
C183  H256  S    
C241  O29   A    
C182  C183  S    
C209  N6    A    
O23   Zn3   S    
C158  O91   S    
O45   Zn14  S    
C267  C272  A    
C107  C108  S    
C110  H89   S    
C253  O76   S    
C175  H239  S    
C234  O22   A    
C24   C194  A    
C173  H234  S    
C102  H69   S    
C7    O3    S    
C101  C196  A    
C95   H53   S    
O44   Zn9   S    
C241  O40   A    
C201  C229  A    
C111  H92   S    
C3    C266  A    
C115  H96   S    
N6    N16   A    
C247  O71   S    
C157  C251  A    
C221  O79   A    
C137  H150  S    
C44   H286  S    
C221  O5    A    
C37   H146  S    
C271  O95   S    
C54   O56   S    
C80   H16   S    
C106  H77   S    
C102  C103  S    
C175  H240  S    
C118  O77   S    
C140  H158  S    
C70   H346  S    
C84   O66   S    
C39   C40   S    
C141  H159  S    
C87   H36   S    
C94   H50   S    
C244  O67   S    
C130  H132  S    
C57   C206  A    
C268  O92   S    
C13   C190  A    
C120  H108  S    
C203  C222  S    
C136  H147  S    
C8    C260  A    
C68   C208  A    
C43   H279  S    
C128  O81   S    
C4    C22   A    
C6    O100  S    
C54   H310  S    
C45   H289  S    
O13   Zn7   S    
C185  H262  S    
C257  O81   S    
C32   C190  A    
O35   Zn16  S    
C11   C264  A    
C158  H197  S    
C67   H340  S    
C97   H59   S    
C203  C251  A    
C143  H165  S    
C225  O9    A    
C41   H246  S    
C238  O33   A    
C199  H68   S    
C178  H247  S    
C117  H103  S    
O1    Zn12  S    
C147  H172  S    
C128  H129  S    
C34   O50   S    
C64   H332  S    
C227  O16   A    
C18   C270  A    
C132  H139  S    
C53   H305  S    
C52   C53   S    
C192  H277  S    
C66   H336  S    
C129  C130  S    
C45   H288  S    
C170  H228  S    
C54   C55   S    
C56   H313  S    
C210  N5    A    
C15   C231  S    
C103  H72   S    
C43   H284  S    
C243  O31   A    
C136  C137  S    
O46   Zn8   S    
C171  O95   S    
C95   H52   S    
C69   H341  S    
C181  O98   S    
C62   H327  S    
C28   C146  A    
C232  O49   A    
N4    N7    A    
C31   C179  A    
C228  O17   A    
O20   Zn7   S    
C27   C135  A    
C148  H175  S    
C134  H143  S    
C71   C72   S    
O79   Zn16  S    
C243  O38   A    
C144  O86   S    
C104  H74   S    
C110  H88   S    
C37   H135  S    
C163  H211  S    
C122  H116  S    
C186  H264  S    
C7    C261  A    
C34   C36   S    
C173  H236  S    
C259  O83   S    
C191  H276  S    
C222  O10   A    
C144  H166  S    
O6    Zn15  S    
C258  O82   S    
C239  O39   A    
C171  H230  S    
C81   O65   S    
C34   H90   S    
C107  H82   S    
C151  H183  S    
O39   Zn9   S    
C245  O69   S    
C152  C153  S    
C50   H297  S    
C40   H224  S    
C49   C50   S    
C161  O92   S    
C120  H109  S    
C138  H151  S    
C38   H157  S    
C216  N14   A    
C184  O99   S    
C22   C238  S    
C115  H97   S    
C196  C202  A    
C44   O53   S    
C118  H105  S    
C36   H113  S    
C166  H218  S    
C250  C254  A    
C87   C88   S    
O43   Zn1   S    
O32   Zn11  S    
C233  O21   A    
C41   C42   S    
C174  H237  S    
C111  H91   S    
C188  H271  S    
C113  H287  S    
C176  H242  S    
C161  H206  S    
C161  C162  S    
C58   H316  S    
C160  H204  S    
C77   C78   S    
C172  C173  S    
C87   H34   S    
O14   Zn12  S    
C36   H101  S    
C128  H128  S    
C150  H180  S    
C88   H37   S    
C68   C199  A    
O21   Zn2   S    
C113  C207  A    
C164  H214  S    
C164  C165  S    
C182  H254  S    
C64   H333  S    
C133  H142  S    
O30   Zn5   S    
C57   C198  A    
C116  H98   S    
C35   C204  A    
C12   C228  S    
C54   H308  S    
O28   Zn7   S    
C32   C198  A    
C159  H200  S    
C108  H84   S    
C58   H317  S    
C28   C101  A    
C170  H226  S    
C99   H63   S    
C114  H95   S    
C230  O42   A    
C137  H148  S    
C42   H268  S    
C151  C152  S    
C73   H351  S    
C38   O51   S    
C119  H107  S    
O15   Zn4   S    
C212  N3    A    
C168  C262  A    
C232  O20   A    
O24   Zn6   S    
C55   H312  S    
C260  O84   S    
C194  H24   S    
C145  H170  S    
C84   H27   S    
C85   H30   S    
O18   Zn5   S    
C79   H1    S    
C56   H315  S    
O17   Zn6   S    
O11   Zn10  S    
C187  H269  S    
C103  H70   S    
C41   H235  S    
C51   H302  S    
C26   C124  A    
C112  C201  A    
C145  C147  S    
C91   H42   S    
C196  O52   S    
C139  H153  S    
C47   H290  S    
O26   Zn16  S    
C69   H343  S    
C177  H244  S    
C118  H104  S    
C263  O86   S    
C75   H6    S    
C76   H9    S    
C174  O96   S    
C84   C85   S    
O9    Zn1   S    
C46   O64   S    
C165  H215  S    
C90   H112  S    
C19   C249  A    
C46   C197  A    
C29   C157  A    
O33   Zn10  S    
C58   C59   S    
C49   H295  S    
C24   C208  A    
C106  H80   S    
C51   C52   S    
C266  O89   S    
C57   O65   S    
C5    C21   A    
C135  H309  S    
C124  H298  S    
C167  O94   S    
C62   C63   S    
C191  O3    S    
C23   C239  S    
C1    O50   S    
C159  C160  S    
C235  O23   A    
C63   H329  S    
C180  H249  S    
C77   H11   S    
C8    C263  A    
C215  N11   A    
C81   H19   S    
C121  C122  S    
C47   H292  S    
C217  O46   A    
C112  O51   S    
C80   H17   S    
C83   H25   S    
C48   C49   S    
O48   Zn12  S    
C17   C242  S    
C25   C241  S    
C9    C259  A    
C125  C126  S    
O38   Zn14  S    
O31   Zn6   S    
C176  H241  S    
C160  H203  S    
C42   C43   S    
C146  H320  S    
C131  C132  S    
C89   H40   S    
C31   C197  A    
O35   Zn11  S    
C44   C45   S    
C152  H184  S    
C138  H152  S    
C162  C163  S    
C127  H125  S    
C72   H349  S    
C150  H178  S    
C35   O63   S    
C149  H177  S    
C9    C234  S    
C42   H257  S    
C213  N13   A    
C242  O30   A    
C207  O53   S    
N11   N14   A    
C82   H21   S    
C19   C235  S    
C130  H134  S    
C132  H138  S    
C119  C120  S    
C235  O34   A    
O29   Zn8   S    
O13   Zn3   S    
C109  H86   S    
C125  O80   S    
C26   C79   A    
C26   C214  S    
C105  H76   S    
C104  O73   S    
C153  H188  S    
C217  O90   A    
C30   C168  A    
C187  C188  S    
C163  H209  S    
C149  C150  S    
C156  H195  S    
C48   O54   S    
C185  C186  S    
C198  H57   S    
C114  H93   S    
C74   H5    S    
C154  O89   S    
C92   C93   S    
C111  C114  S    
C78   C80   S    
C167  H220  S    
C148  H174  S    
C94   C95   S    
C245  C259  A    
O13   Zn13  S    
C126  H123  S    
C138  C139  S    
C123  H118  S    
C74   O63   S    
C91   O69   S    
C218  O54   S    
C65   H335  S    
C92   H45   S    
C86   H31   S    
C135  C229  A    
C93   H48   S    
C29   C113  A    
C27   C213  S    
C187  H267  S    
C142  C143  S    
C172  H231  S    
C94   O70   S    
C228  O41   A    
C141  C142  S    
C39   H179  S    
C220  O68   A    
O49   Zn13  S    
C171  C172  S    
C23   C245  A    
C165  C166  S    
C63   H328  S    
C181  H252  S    
C169  C170  S    
C97   O71   S    
C41   O52   S    
C95   C96   S    
C90   C112  A    
C234  O47   A    
C250  O74   S    
C81   C82   S    
C249  O73   S    
C116  C117  S    
O24   Zn14  S    
C106  H78   S    
C50   H299  S    
O7    Zn14  S    
C222  O6    A    
C188  H270  S    
C140  H155  S    
C169  H222  S    
C18   C243  S    
C32   C212  S    
C60   H323  S    
C7    C23   A    
C152  H185  S    
C272  O96   S    
N1    N13   A    
C94   H51   S    
C181  C182  S    
C117  H102  S    
N10   N15   A    
C180  H251  S    
C269  C270  A    
C35   C195  A    
C216  N10   A    
C16   C253  A    
C138  O84   S    
C118  C119  S    
C83   H23   S    
C164  O93   S    
C86   H33   S    
C14   C255  A    
C30   C195  A    
C132  C133  S    
C149  H176  S    
C31   C209  S    
C211  N8    A    
O36   Zn12  S    
C5    C264  A    
C10   C258  A    
C176  H243  S    
O35   Zn15  S    
C6    C263  A    
O37   Zn15  S    
C4    O98   S    
C158  H198  S    
C20   C272  A    
C67   H339  S    
C97   H58   S    
O19   Zn8   S    
C265  O88   S    
C178  H248  S    
C71   H348  S    
C236  O36   A    
C61   C62   S    
C121  O78   S    
C147  H173  S    
C220  O4    A    
C133  H141  S    
C52   H303  S    
C102  H67   S    
C124  C218  A    
C129  H131  S    
C56   H314  S    
C74   C75   S    
C254  O77   S    
C189  H274  S    
C103  H71   S    
C100  H65   S    
C157  H331  S    
C148  C149  S    
C107  O74   S    
C9    C261  A    
C189  H272  S    
C204  C262  A    
C134  C136  S    
C238  O27   A    
C179  H2    S    
C203  C207  A    
C16   C232  S    
C236  O25   A    
C223  O11   A    
C75   H7    S    
C188  C189  S    
C67   C69   S    
C246  O70   S    
C184  H260  S    
C134  H144  S    
C193  H281  S    
C246  C258  A    
C96   H55   S    
C133  H140  S    
C268  C271  A    
C155  H193  S    
C121  H114  S    
C264  O87   S    
C115  O76   S    
C131  O82   S    
C100  C102  S    
C219  O57   A    
O10   Zn11  S    
C2    C205  A    
C233  O45   A    
C191  H275  S    
O90   Zn4   S    
C16   C268  A    
C61   H325  S    
C171  H229  S    
C212  N7    A    
C107  H81   S    
C11   C227  S    
C65   C66   S    
C173  H233  S    
C151  O88   S    
C120  H110  S    
C2    C179  A    
C168  H342  S    
C78   H15   S    
C38   H168  S    
C44   H285  S    
C148  O87   S    
O13   Zn9   S    
C186  H266  S    
C77   O64   S    
C174  H238  S    
C160  H202  S    
C146  C240  A    
C70   H345  S    
C161  H205  S    
C30   C210  S    
C141  H160  S    
C24   O62   S    
C248  C256  A    
C121  H111  S    
C143  H163  S    
C150  H181  S    
C88   H38   S    
C154  H191  S    
C125  H121  S    
C192  C193  S    
C53   H307  S    
C215  N15   A    
C182  H255  S    
C122  C123  S    
C12   C267  A    
C87   O67   S    
C40   H212  S    
C195  H35   S    
C181  H253  S    
C33   C211  S    
C131  H136  S    
O2    Zn3   S    
C73   H3    S    
C185  H263  S    
C74   H4    S    
C78   H14   S    
C200  C225  S    
C71   O62   S    
N2    N5    A    
C159  H199  S    
C156  H194  S    
C60   H321  S    
C142  H161  S    
C170  H227  S    
C20   C248  A    
C34   H79   S    
C242  O37   A    
C166  H217  S    
C155  H192  S    
C145  H169  S    
C10   C226  S    
C183  H258  S    
C201  C224  S    
C147  H171  S    
C184  H261  S    
C15   C269  A    
O4    Zn6   S    
C55   H311  S    
C14   C266  A    
C123  H119  S    
C164  H213  S    
C84   H28   S    
C15   C254  A    
