data_mof_unit_21333.cif
_audit_creation_date              2012-12-10T19:41:40-0500
_audit_creation_method            fapswitch 2.2
_symmetry_space_group_name_H-M    P1
_symmetry_Int_Tables_number       1
_space_group_crystal_system       triclinic
_cell_length_a                    11.035857
_cell_length_b                    15.935951
_cell_length_c                    17.151065
_cell_angle_alpha                 95.462451
_cell_angle_beta                  95.46194
_cell_angle_gamma                 92.441588
_cell_volume                      2984.90894692

loop_
_atom_site_label
_atom_site_type_symbol
_atom_type_description
_atom_site_fract_x
_atom_site_fract_y
_atom_site_fract_z
_atom_type_partial_charge
C1    C     C_R   0.502892 0.490323 0.349362 0.861427
C2    C     C_R   0.498259 0.509585 0.651061 0.855131
C3    C     C_R   0.871095 0.501139 0.494291 -0.126452
C4    C     C_R   0.128422 0.498897 0.504074 -0.100957
C5    C     C_R   0.927511 0.424810 0.474599 -0.092487
C6    C     C_R   0.071679 0.575407 0.522847 -0.055653
C7    C     C_R   0.506560 0.487071 0.264185 -0.086908
C8    C     C_R   0.499770 0.512249 0.737158 -0.148536
C9    C     C_R   0.587931 0.540939 0.231066 0.168046
C10   C     C_R   0.455167 0.442345 0.773237 0.179996
C11   C     C_R   0.585103 0.538631 0.148307 0.154450
C12   C     C_R   0.475209 0.442275 0.855715 0.140755
C13   C     C_R   0.494868 0.485356 0.099821 0.282932
C14   C     C_R   0.533730 0.513953 0.901660 0.283874
C15   C     C_R   0.415975 0.431804 0.134493 0.225330
C16   C     C_R   0.572795 0.584112 0.865408 0.212524
C17   C     C_R   0.424280 0.431655 0.215857 -0.330242
C18   C     C_R   0.555262 0.582806 0.783803 -0.336302
C19   C     C_R   0.453325 0.750884 0.449357 0.038122
C20   C     C_R   0.545312 0.249130 0.551090 0.068378
C21   C     C_R   0.461576 0.840612 0.448223 0.128108
C22   C     C_R   0.537580 0.159429 0.552044 0.125398
C23   C     C_R   0.262412 0.499827 0.501903 0.798774
C24   C     C_R   0.737449 0.500171 0.497810 0.804315
C25   C     C_R   0.529076 0.891205 0.510780 0.379099
C26   C     C_R   0.470977 0.108804 0.489109 0.381310
C27   C     C_R   0.588562 0.850997 0.570543 -0.429254
C28   C     C_R   0.413153 0.148992 0.428655 -0.428451
C29   C     C_R   0.582070 0.762735 0.570048 0.191007
C30   C     C_R   0.420067 0.237251 0.429124 0.195753
C31   C     C_R   0.262708 0.737447 0.668035 -0.071646
C32   C     C_R   0.732948 0.259059 0.334198 -0.069050
C33   C     C_R   0.198247 0.661575 0.634599 0.303570
C34   C     C_R   0.799075 0.335334 0.364735 0.298662
C35   C     C_R   0.143800 0.654938 0.556007 -0.032063
C36   C     C_R   0.854612 0.344859 0.443388 -0.057007
C37   C     C_R   0.152794 0.724378 0.510886 -0.102642
C38   C     C_R   0.847990 0.276767 0.490326 -0.074387
C39   C     C_R   0.211736 0.800069 0.545798 -0.114598
C40   C     C_R   0.791909 0.199535 0.457066 -0.117515
C41   C     C_R   0.266299 0.807858 0.623604 -0.089215
C42   C     C_R   0.735734 0.189231 0.379630 -0.113006
C43   C     C_R   0.944101 0.577305 0.514076 -0.080078
C44   C     C_R   0.055142 0.422996 0.482350 -0.091774
Cu1   Cu    Cu3+1 0.493970 0.415220 0.496180 1.005514
Cu2   Cu    Cu3+1 0.506030 0.584780 0.503820 0.990881
H1    H     H_    0.361498 0.390845 0.241367 0.193536
H2    H     H_    0.588179 0.636713 0.756893 0.189025
H3    H     H_    0.641196 0.889549 0.618644 0.160665
H4    H     H_    0.361777 0.110501 0.379991 0.158963
H5    H     H_    0.215771 0.853716 0.511624 0.224414
H6    H     H_    0.791663 0.146560 0.492231 0.226269
N1    N     N_2   0.474175 0.485367 0.016764 -0.181344
N2    N     N_2   0.559156 0.516183 0.984271 -0.178168
N3    N     N_R   0.515100 0.712130 0.509560 -0.225014
N4    N     N_R   0.484900 0.287870 0.490440 -0.221071
N5    N     N_2   0.543503 0.981750 0.515770 -0.128495
N6    N     N_2   0.456317 0.018284 0.484229 -0.132704
O1    O     O_R   0.494360 0.420530 0.382500 -0.565265
O2    O     O_R   0.505640 0.579470 0.617500 -0.570189
O3    O     O_R   0.504550 0.563720 0.388950 -0.587041
O4    O     O_R   0.495450 0.436280 0.611050 -0.566003
O5    O     O_R   0.314550 0.428410 0.496780 -0.494523
O6    O     O_R   0.685450 0.571590 0.503220 -0.490977
O7    O     O_R   0.324740 0.571600 0.503230 -0.635297
O8    O     O_R   0.675260 0.428400 0.496770 -0.637810
C45   C     C_2   0.321315 0.891586 0.658353 0.349443
H7    H     H_    0.367531 0.900185 0.717343 0.049532
O9    O     O_2   0.313551 0.953346 0.621516 -0.540151
C46   C     C_2   0.686559 0.103506 0.346266 0.341875
H8    H     H_    0.648941 0.091062 0.285449 0.049004
O10   O     O_2   0.690988 0.044068 0.386223 -0.536269
C47   C     C_2   0.622109 0.299897 0.615862 0.450891
H9    H     H_    0.679621 0.352592 0.604595 0.091291
O11   O     O_2   0.621351 0.284125 0.684041 -0.586521
C48   C     C_2   0.375372 0.699991 0.385008 0.420452
H10   H     H_    0.320376 0.646172 0.396245 0.103099
O12   O     O_2   0.371730 0.717073 0.317030 -0.587855
N7    N     N_2   0.599016 0.120163 0.614770 -0.407479
H11   H     H_    0.687472 0.141656 0.633169 0.297001
C49   C     C_3   0.526473 0.098374 0.676738 -0.510210
H12   H     H_    0.556647 0.138638 0.732202 0.219243
H13   H     H_    0.539223 0.031534 0.687176 0.218220
H14   H     H_    0.427825 0.106638 0.661251 0.252589
N8    N     N_2   0.400630 0.880024 0.385443 -0.402050
H15   H     H_    0.311714 0.859506 0.367320 0.303729
C50   C     C_3   0.473487 0.901369 0.323474 -0.525601
H16   H     H_    0.442613 0.861410 0.267960 0.226424
H17   H     H_    0.571942 0.892255 0.338821 0.246678
H18   H     H_    0.461994 0.968400 0.313261 0.218664
C51   C     C_2   0.647806 0.730595 0.639220 0.389379
H19   H     H_    0.650697 0.767087 0.696231 0.000827
O13   O     O_2   0.706263 0.667700 0.633899 -0.557680
C52   C     C_2   0.357488 0.269744 0.359187 0.405099
H20   H     H_    0.360435 0.235286 0.301710 0.003246
O14   O     O_2   0.295310 0.330796 0.364397 -0.569829
C53   C     C_2   0.324448 0.743858 0.749389 0.322370
H21   H     H_    0.413553 0.776159 0.762815 0.030930
O15   O     O_2   0.275629 0.714552 0.802472 -0.540473
C54   C     C_2   0.656416 0.253305 0.256993 0.369767
H22   H     H_    0.579902 0.207590 0.244484 0.020306
O16   O     O_2   0.675518 0.300236 0.206765 -0.520338
N9    N     N_2   0.191128 0.590082 0.678342 -0.441368
H23   H     H_    0.267479 0.579369 0.714684 0.268994
C55   C     C_3   0.076475 0.573166 0.710098 -0.612399
H24   H     H_    0.089690 0.581398 0.775436 0.247651
H25   H     H_    0.043500 0.507028 0.690667 0.215031
H26   H     H_    0.005379 0.615917 0.690101 0.224616
N10   N     N_2   0.810270 0.402080 0.315808 -0.383963
H27   H     H_    0.797642 0.461134 0.342551 0.240923
C56   C     C_3   0.917154 0.400011 0.273052 -0.624277
H28   H     H_    0.912166 0.448311 0.230593 0.214864
H29   H     H_    0.922237 0.337211 0.239648 0.250826
H30   H     H_    0.001108 0.413982 0.314108 0.201062
C57   C     C_2   0.100088 0.718691 0.427262 0.392192
H31   H     H_    0.066485 0.658383 0.396416 0.083597
O17   O     O_2   0.093489 0.781374 0.391605 -0.535103
C58   C     C_2   0.902131 0.285046 0.573783 0.382862
H32   H     H_    0.936310 0.346034 0.602878 0.082851
O18   O     O_2   0.909031 0.223770 0.611350 -0.541078
C59   C     C_2   0.891393 0.661476 0.525202 0.475717
H33   H     H_    0.912367 0.700805 0.580455 0.085967
O19   O     O_2   0.833512 0.690198 0.470471 -0.530038
C60   C     C_2   0.107098 0.339158 0.466820 0.480637
H34   H     H_    0.084857 0.302971 0.410007 0.088819
O20   O     O_2   0.164840 0.306798 0.519333 -0.527810
N11   N     N_2   0.394329 0.371146 0.726574 -0.384760
H35   H     H_    0.411964 0.313287 0.746058 0.280493
C61   C     C_3   0.266317 0.380235 0.704184 -0.610992
H36   H     H_    0.217857 0.396953 0.756982 0.200483
H37   H     H_    0.224839 0.319758 0.673780 0.270547
H38   H     H_    0.254838 0.429365 0.662909 0.245746
N12   N     N_2   0.677186 0.593051 0.281343 -0.430469
H39   H     H_    0.765989 0.581293 0.272128 0.254976
C62   C     C_3   0.655200 0.682208 0.292749 -0.538647
H40   H     H_    0.646541 0.700414 0.355862 0.282093
H41   H     H_    0.571210 0.697932 0.257299 0.234505
H42   H     H_    0.733114 0.720256 0.275348 0.203838
N13   N     N_2   0.438509 0.370233 0.892794 -0.398722
H43   H     H_    0.356984 0.339913 0.869288 0.257425
C63   C     C_3   0.534268 0.313290 0.909133 -0.611548
H44   H     H_    0.612998 0.347353 0.945704 0.244562
H45   H     H_    0.499382 0.262301 0.942195 0.227010
H46   H     H_    0.565092 0.284448 0.853336 0.229000
N14   N     N_2   0.668236 0.591965 0.114299 -0.400681
H47   H     H_    0.678474 0.653536 0.139170 0.260299
C64   C     C_3   0.782716 0.555763 0.098797 -0.600525
H48   H     H_    0.845477 0.559545 0.153563 0.192286
H49   H     H_    0.826254 0.591846 0.055726 0.235882
H50   H     H_    0.768222 0.488794 0.073568 0.240004
N15   N     N_2   0.327410 0.376984 0.086756 -0.395722
H51   H     H_    0.310642 0.320424 0.109483 0.252001
C65   C     C_3   0.215795 0.416461 0.063437 -0.651272
H52   H     H_    0.154523 0.370704 0.023497 0.225450
H53   H     H_    0.234922 0.472217 0.031469 0.246827
H54   H     H_    0.168567 0.436406 0.116060 0.214311
N16   N     N_2   0.633876 0.655493 0.911205 -0.412578
H55   H     H_    0.694353 0.688389 0.881533 0.249012
C66   C     C_3   0.554519 0.710863 0.951713 -0.612466
H56   H     H_    0.610382 0.761517 0.989448 0.213692
H57   H     H_    0.499359 0.675753 0.990032 0.253890
H58   H     H_    0.492784 0.740371 0.908432 0.233763

loop_
_geom_bond_atom_site_label_1
_geom_bond_atom_site_label_2
_ccdc_geom_bond_type
C62   H42   S    
C39   H5    S    
C50   H16   S    
N16   H55   S    
C27   C29   A    
N13   C63   S    
C47   H9    S    
C64   H48   S    
C20   N4    A    
C15   N15   S    
C53   H21   S    
C62   H40   S    
C39   C41   A    
Cu1   Cu2   S    
C55   H25   S    
C3    C43   A    
C19   C48   S    
C19   C21   A    
C48   O12   D    
C22   N7    S    
C63   H45   S    
C2    O2    A    
C23   O5    A    
C57   H31   S    
C5    C36   S    
Cu1   O4    S    
C42   C46   S    
C6    C35   S    
C7    C9    A    
C58   H32   S    
N9    H23   S    
N14   C64   S    
C28   H4    S    
C56   H29   S    
C56   H28   S    
Cu1   N4    S    
C57   O17   D    
C50   H17   S    
Cu2   N3    S    
N15   H51   S    
C31   C33   A    
C46   H8    S    
C65   H53   S    
C43   C59   S    
C24   O8    A    
C61   H38   S    
Cu2   O2    S    
C40   C42   A    
C24   O6    A    
C62   H41   S    
N15   C65   S    
C47   O11   D    
C3    C24   S    
C25   N5    S    
C54   O16   D    
C49   H13   S    
N14   H47   S    
C13   N1    S    
N8    C50   S    
C55   H26   S    
C21   N8    S    
C12   N13   S    
Cu2   O3    S    
C27   H3    S    
C45   H7    S    
C64   H50   S    
C48   H10   S    
C41   C45   S    
Cu2   O7    S    
C4    C6    A    
C53   O15   D    
C63   H46   S    
C51   H19   S    
N7    C49   S    
C4    C23   S    
C11   N14   S    
C29   N3    A    
C7    C17   A    
N8    H15   S    
C30   N4    A    
C44   C60   S    
C8    C18   A    
C32   C54   S    
Cu2   O6    S    
C45   O9    D    
C32   C34   A    
N11   C61   S    
C51   O13   D    
C9    C11   A    
C66   H56   S    
C49   H12   S    
C66   H58   S    
N9    C55   S    
C16   C18   A    
C65   H54   S    
C52   O14   D    
C26   N6    S    
C59   H33   S    
C10   C12   A    
C8    C10   A    
C14   N2    S    
C1    O1    A    
C12   C14   A    
C6    C43   A    
C13   C15   A    
N12   H39   S    
C14   C16   A    
C10   N11   S    
C29   C51   S    
C49   H14   S    
C35   C37   A    
C60   O20   D    
C61   H36   S    
C19   N3    A    
C15   C17   A    
C21   C25   A    
Cu1   O1    S    
C31   C41   A    
C64   H49   S    
C16   N16   S    
C33   N9    S    
C5    C44   A    
C2    C8    S    
C17   H1    S    
C20   C22   A    
C3    C5    A    
C1    O3    A    
C18   H2    S    
N13   H43   S    
N1    N2    D    
C37   C57   S    
C25   C27   A    
C4    C44   A    
C55   H24   S    
C26   C28   A    
C23   O7    A    
N10   C56   S    
C66   H57   S    
C37   C39   A    
C40   H6    S    
C63   H44   S    
C36   C38   A    
C38   C40   A    
C11   C13   A    
N5    N6    D    
C28   C30   A    
C54   H22   S    
C33   C35   A    
Cu1   O5    S    
C20   C47   S    
C56   H30   S    
C34   C36   A    
C31   C53   S    
C52   H20   S    
C58   O18   D    
C59   O19   D    
N7    H11   S    
C38   C58   S    
C2    O4    A    
N16   C66   S    
C22   C26   A    
C50   H18   S    
C30   C52   S    
Cu1   O8    S    
N12   C62   S    
C34   N10   S    
C32   C42   A    
C1    C7    S    
C46   O10   D    
C65   H52   S    
N10   H27   S    
N11   H35   S    
C60   H34   S    
C61   H37   S    
C9    N12   S    
