data_mof_unit_30322.cif
_audit_creation_date              2012-12-11T14:44:22-0500
_audit_creation_method            fapswitch 2.2
_symmetry_space_group_name_H-M    P1
_symmetry_Int_Tables_number       1
_space_group_crystal_system       triclinic
_cell_length_a                    24.890299
_cell_length_b                    16.746336
_cell_length_c                    15.593522
_cell_angle_alpha                 90.000012
_cell_angle_beta                  49.919997
_cell_angle_gamma                 90.0
_cell_volume                      4973.229899

loop_
_atom_site_label
_atom_site_type_symbol
_atom_type_description
_atom_site_fract_x
_atom_site_fract_y
_atom_site_fract_z
_atom_type_partial_charge
C1    C     C_R   0.333605 0.111437 0.802340 -0.122943
C2    C     C_3   0.784500 0.827205 0.567896 0.373018
C3    C     C_3   0.205705 0.865853 0.354865 -1.033001
C4    C     C_3   0.762181 0.714814 0.353056 -1.069382
C5    C     C_3   0.294287 0.365848 0.645148 -1.033001
C6    C     C_3   0.237818 0.714815 0.646946 -1.069382
C7    C     C_3   0.705706 0.365852 0.354863 -1.033000
C8    C     C_3   0.729886 0.257166 0.569210 0.391655
C9    C     C_3   0.215500 0.827204 0.432103 0.373017
C10   C     C_3   0.770113 0.757166 0.430791 0.391655
C11   C     C_3   0.284496 0.327201 0.567902 0.373017
C12   C     C_3   0.229887 0.757166 0.569210 0.391655
C13   C     C_3   0.715500 0.327204 0.432103 0.373018
C14   C     C_2   0.696460 0.149403 0.013952 -0.219398
C15   C     C_2   0.362481 0.732599 0.843065 -0.218210
C16   C     C_2   0.303540 0.149403 0.986048 -0.219397
C17   C     C_R   0.646568 0.851864 0.246737 -0.120396
C18   C     C_2   0.637519 0.732599 0.156934 -0.218210
C19   C     C_2   0.196460 0.649403 0.013952 -0.219397
C20   C     C_2   0.862481 0.232599 0.843066 -0.218210
C21   C     C_2   0.803540 0.649403 0.986048 -0.219397
C22   C     C_2   0.137519 0.232599 0.156934 -0.218210
C23   C     C_2   0.765940 0.141059 0.952569 -0.108346
C24   C     C_2   0.312618 0.690777 0.853715 -0.110108
C25   C     C_2   0.234060 0.141059 0.047431 -0.108346
C26   C     C_2   0.687382 0.690777 0.146285 -0.110108
C27   C     C_2   0.265940 0.641059 0.952569 -0.108346
C28   C     C_R   0.666395 0.111437 0.197660 -0.122942
C29   C     C_2   0.812618 0.190777 0.853715 -0.110109
C30   C     C_2   0.734060 0.641059 0.047431 -0.108346
C31   C     C_2   0.187382 0.190777 0.146285 -0.110109
C32   C     C_R   0.586003 0.149258 0.593552 -0.129001
C33   C     C_R   0.386668 0.888569 0.407019 -0.149252
C34   C     C_R   0.413997 0.149258 0.406448 -0.129003
C35   C     C_R   0.613332 0.888569 0.592981 -0.149252
C36   C     C_R   0.086003 0.649258 0.593552 -0.129002
C37   C     C_R   0.886668 0.388568 0.407019 -0.149252
C38   C     C_R   0.913997 0.649258 0.406448 -0.129001
C39   C     C_R   0.353431 0.851864 0.753262 -0.120396
C40   C     C_R   0.113332 0.388568 0.592981 -0.149253
C41   C     C_R   0.661219 0.148899 0.406843 -0.137298
C42   C     C_R   0.310994 0.891254 0.593457 -0.143590
C43   C     C_R   0.338781 0.148899 0.593157 -0.137296
C44   C     C_R   0.689006 0.891254 0.406543 -0.143590
C45   C     C_R   0.161219 0.648899 0.406843 -0.137299
C46   C     C_R   0.810994 0.391254 0.593457 -0.143590
C47   C     C_R   0.838780 0.648899 0.593157 -0.137299
C48   C     C_R   0.189006 0.391253 0.406543 -0.143590
C49   C     C_R   0.578079 0.107763 0.195936 -0.156292
C50   C     C_R   0.833605 0.611437 0.802340 -0.122942
C51   C     C_R   0.442108 0.855178 0.755876 -0.143136
C52   C     C_R   0.421921 0.107763 0.804064 -0.156292
C53   C     C_R   0.557892 0.855178 0.244123 -0.143136
C54   C     C_R   0.078079 0.607763 0.195936 -0.156291
C55   C     C_R   0.942108 0.355177 0.755877 -0.143135
C56   C     C_R   0.921921 0.607763 0.804064 -0.156292
C57   C     C_R   0.057892 0.355177 0.244123 -0.143136
C58   C     C_R   0.351929 0.127980 0.867129 0.148869
C59   C     C_R   0.613741 0.809102 0.216049 0.146296
C60   C     C_R   0.648071 0.127980 0.132871 0.148869
C61   C     C_R   0.146569 0.351864 0.246737 -0.120396
C62   C     C_R   0.386259 0.809102 0.783951 0.146296
C63   C     C_R   0.851929 0.627980 0.867129 0.148869
C64   C     C_R   0.113741 0.309102 0.216049 0.146296
C65   C     C_R   0.148071 0.627980 0.132871 0.148869
C66   C     C_R   0.886259 0.309102 0.783951 0.146296
C67   C     C_R   0.635500 0.194055 0.500371 0.071423
C68   C     C_R   0.319909 0.869526 0.500383 0.084226
C69   C     C_R   0.364500 0.194055 0.499629 0.071422
C70   C     C_R   0.680091 0.869526 0.499617 0.084226
C71   C     C_R   0.135500 0.694055 0.500371 0.071423
C72   C     C_R   0.166395 0.611437 0.197660 -0.122942
C73   C     C_R   0.819909 0.369526 0.500383 0.084226
C74   C     C_R   0.864499 0.694055 0.499629 0.071423
C75   C     C_R   0.180091 0.369524 0.499617 0.084226
C76   C     C_3   0.339621 0.290758 0.393941 -0.245465
C77   C     C_3   0.714828 0.793945 0.604384 -0.250158
C78   C     C_3   0.660380 0.290755 0.606060 -0.245465
C79   C     C_3   0.285172 0.793944 0.395616 -0.250158
C80   C     C_3   0.839620 0.790754 0.393940 -0.245465
C81   C     C_3   0.214826 0.293939 0.604382 -0.250158
C82   C     C_3   0.160380 0.790755 0.606060 -0.245466
C83   C     C_R   0.853431 0.351864 0.753262 -0.120396
C84   C     C_3   0.785172 0.293943 0.395617 -0.250158
C85   C     C_3   0.801059 0.867687 0.463776 -0.230616
C86   C     C_3   0.252854 0.218009 0.534428 -0.221493
C87   C     C_3   0.198941 0.867687 0.536222 -0.230615
C88   C     C_3   0.747149 0.218011 0.465566 -0.221495
C89   C     C_3   0.301056 0.367688 0.463784 -0.230614
C90   C     C_3   0.752851 0.718012 0.534435 -0.221496
C91   C     C_3   0.698941 0.367687 0.536222 -0.230615
C92   C     C_3   0.247149 0.718011 0.465566 -0.221495
C93   C     C_3   0.732241 0.832431 0.499581 0.090437
C94   C     C_3   0.270117 0.257167 0.430785 0.391656
C95   C     C_3   0.322133 0.252095 0.498735 0.097460
C96   C     C_3   0.267758 0.832430 0.500419 0.090437
C97   C     C_3   0.677867 0.252095 0.501266 0.097461
C98   C     C_3   0.232241 0.332429 0.499581 0.090436
C99   C     C_3   0.822133 0.752095 0.498734 0.097461
C100  C     C_3   0.767759 0.332430 0.500419 0.090437
C101  C     C_3   0.177867 0.752095 0.501266 0.097462
C102  C     C_3   0.262190 0.214818 0.353042 -1.069385
C103  C     C_3   0.794296 0.865854 0.645134 -1.033001
C104  C     C_3   0.737817 0.214815 0.646947 -1.069383
H1    H     H_    0.281249 0.109502 0.829664 0.079528
H2    H     H_    0.407644 0.889022 0.321032 0.090662
H3    H     H_    0.441426 0.163972 0.319721 0.097673
H4    H     H_    0.592356 0.889022 0.678967 0.090662
H5    H     H_    0.058574 0.663971 0.680279 0.097672
H6    H     H_    0.907644 0.389022 0.321032 0.090662
H7    H     H_    0.941426 0.663971 0.319721 0.097672
H8    H     H_    0.092356 0.389021 0.678967 0.090663
H9    H     H_    0.704139 0.163985 0.320505 0.102215
H10   H     H_    0.262434 0.893175 0.679261 0.095885
H11   H     H_    0.295861 0.163985 0.679495 0.102215
H12   H     H_    0.692816 0.835893 0.235320 0.093370
H13   H     H_    0.737566 0.893175 0.320738 0.095885
H14   H     H_    0.204139 0.663985 0.320505 0.102215
H15   H     H_    0.762434 0.393175 0.679261 0.095885
H16   H     H_    0.795861 0.663985 0.679495 0.102215
H17   H     H_    0.237565 0.393175 0.320738 0.095886
H18   H     H_    0.550043 0.102755 0.164660 0.093361
H19   H     H_    0.478232 0.839542 0.769387 0.097378
H20   H     H_    0.449957 0.102755 0.835340 0.093361
H21   H     H_    0.521768 0.839542 0.230612 0.097378
H22   H     H_    0.050043 0.602755 0.164660 0.093361
H23   H     H_    0.718751 0.109502 0.170337 0.079527
H24   H     H_    0.978232 0.339542 0.769388 0.097377
H25   H     H_    0.949957 0.602755 0.835340 0.093361
H26   H     H_    0.021768 0.339542 0.230612 0.097378
H27   H     H_    0.818897 0.930169 0.435931 0.132763
H28   H     H_    0.233554 0.155876 0.562665 0.134306
H29   H     H_    0.181103 0.930169 0.564067 0.132762
H30   H     H_    0.766450 0.155879 0.437324 0.134305
H31   H     H_    0.318892 0.430171 0.435945 0.132763
H32   H     H_    0.733549 0.655880 0.562679 0.134305
H33   H     H_    0.681104 0.430169 0.564066 0.132763
H34   H     H_    0.307184 0.835893 0.764680 0.093370
H35   H     H_    0.266450 0.655880 0.437322 0.134305
H36   H     H_    0.391246 0.289087 0.307892 0.127714
H37   H     H_    0.663475 0.795337 0.690785 0.126975
H38   H     H_    0.608756 0.289080 0.692110 0.127714
H39   H     H_    0.336525 0.795336 0.309215 0.126975
H40   H     H_    0.891243 0.789078 0.307889 0.127714
H41   H     H_    0.163472 0.295327 0.690782 0.126974
H42   H     H_    0.108757 0.789079 0.692110 0.127714
H43   H     H_    0.836526 0.295335 0.309215 0.126974
H44   H     H_    0.296206 0.706355 0.806032 0.136291
H45   H     H_    0.781249 0.609502 0.829663 0.079527
H46   H     H_    0.787753 0.110919 0.985677 0.125825
H47   H     H_    0.703793 0.706355 0.193968 0.136291
H48   H     H_    0.212247 0.110919 0.014323 0.125825
H49   H     H_    0.796207 0.206355 0.806032 0.136292
H50   H     H_    0.287753 0.610919 0.985677 0.125826
H51   H     H_    0.203793 0.206354 0.193968 0.136292
H52   H     H_    0.712247 0.610919 0.014323 0.125826
H53   H     H_    0.378134 0.716950 0.891898 0.128958
H54   H     H_    0.675302 0.179915 0.979831 0.131745
H55   H     H_    0.621866 0.716950 0.108101 0.128958
H56   H     H_    0.192816 0.335893 0.235320 0.093370
H57   H     H_    0.324698 0.179915 0.020169 0.131746
H58   H     H_    0.878134 0.216950 0.891899 0.128958
H59   H     H_    0.175302 0.679915 0.979831 0.131745
H60   H     H_    0.121867 0.216950 0.108101 0.128958
H61   H     H_    0.824698 0.679915 0.020169 0.131745
H62   H     H_    0.293088 0.158633 0.321978 0.256439
H63   H     H_    0.206079 0.200495 0.399186 0.261518
H64   H     H_    0.281901 0.253568 0.280359 0.243525
H65   H     H_    0.761172 0.920217 0.683556 0.255041
H66   H     H_    0.778677 0.823288 0.712286 0.249364
H67   H     H_    0.218751 0.609502 0.170337 0.079527
H68   H     H_    0.850221 0.882563 0.596436 0.257563
H69   H     H_    0.706921 0.158629 0.678009 0.256439
H70   H     H_    0.793929 0.200494 0.600799 0.261519
H71   H     H_    0.718106 0.253563 0.719631 0.243526
H72   H     H_    0.238829 0.920215 0.316441 0.255041
H73   H     H_    0.221324 0.823287 0.287713 0.249364
H74   H     H_    0.149780 0.882562 0.403561 0.257563
H75   H     H_    0.793076 0.658628 0.321995 0.256439
H76   H     H_    0.706069 0.700493 0.399205 0.261519
H77   H     H_    0.781891 0.753561 0.280372 0.243526
H78   H     H_    0.807184 0.335893 0.764680 0.093370
H79   H     H_    0.261160 0.420209 0.683573 0.255040
H80   H     H_    0.278668 0.323280 0.712298 0.249363
H81   H     H_    0.350211 0.382560 0.596456 0.257563
H82   H     H_    0.206922 0.658628 0.678007 0.256439
H83   H     H_    0.293930 0.700494 0.600797 0.261519
H84   H     H_    0.218107 0.753562 0.719630 0.243525
H85   H     H_    0.738830 0.420215 0.316440 0.255040
H86   H     H_    0.721325 0.323286 0.287712 0.249364
H87   H     H_    0.649781 0.382562 0.403559 0.257563
H88   H     H_    0.558574 0.163971 0.680279 0.097672
N1    N     N_R   0.389620 0.081040 0.705440 -0.042434
N2    N     N_R   0.417680 0.920160 0.443370 -0.037311
N3    N     N_R   0.417680 0.079840 0.443370 -0.041046
N4    N     N_R   0.582320 0.920160 0.556630 -0.037311
N5    N     N_R   0.082320 0.579840 0.556630 -0.041045
N6    N     N_R   0.917680 0.420160 0.443370 -0.037311
N7    N     N_R   0.917680 0.579840 0.443370 -0.041045
N8    N     N_R   0.082320 0.420160 0.556630 -0.037311
N9    N     N_R   0.627920 0.078930 0.443400 -0.043100
N10   N     N_R   0.372080 0.921070 0.556600 -0.039459
N11   N     N_R   0.372080 0.078930 0.556600 -0.043100
N12   N     N_R   0.610380 0.918960 0.294560 -0.046012
N13   N     N_R   0.627920 0.921070 0.443400 -0.039459
N14   N     N_R   0.127920 0.578930 0.443400 -0.043100
N15   N     N_R   0.872080 0.421070 0.556600 -0.039459
N16   N     N_R   0.872080 0.578930 0.556600 -0.043100
N17   N     N_R   0.127920 0.421070 0.443400 -0.039460
N18   N     N_R   0.555090 0.077730 0.294590 -0.038869
N19   N     N_R   0.444910 0.922270 0.705410 -0.041603
N20   N     N_R   0.444910 0.077730 0.705410 -0.038869
N21   N     N_R   0.555090 0.922270 0.294590 -0.041603
N22   N     N_R   0.055090 0.577730 0.294590 -0.038869
N23   N     N_R   0.610380 0.081040 0.294560 -0.042434
N24   N     N_R   0.944910 0.422270 0.705410 -0.041603
N25   N     N_R   0.944910 0.577730 0.705410 -0.038869
N26   N     N_R   0.055090 0.422270 0.294590 -0.041603
N27   N     N_R   0.389620 0.918960 0.705440 -0.046012
N28   N     N_R   0.889620 0.581040 0.705440 -0.042434
N29   N     N_R   0.110380 0.418960 0.294560 -0.046012
N30   N     N_R   0.110380 0.581040 0.294560 -0.042434
N31   N     N_R   0.889620 0.418960 0.705440 -0.046012
N32   N     N_R   0.582320 0.079840 0.556630 -0.041045
Ni1   Ni    Ni4+2 0.382970 1.000000 0.629840 0.207378
Ni2   Ni    Ni4+2 0.617030 1.000000 0.370160 0.207379
Ni3   Ni    Ni4+2 0.882970 0.500000 0.629840 0.207379
Ni4   Ni    Ni4+2 0.117030 0.500000 0.370160 0.207379
Ni5   Ni    Ni4+2 0.514540 1.000000 0.629840 0.209061
Ni6   Ni    Ni4+2 0.485460 1.000000 0.370160 0.209061
Ni7   Ni    Ni4+2 0.014540 0.500000 0.629840 0.209061
Ni8   Ni    Ni4+2 0.985460 0.500000 0.370160 0.209061

loop_
_geom_bond_atom_site_label_1
_geom_bond_atom_site_label_2
_ccdc_geom_bond_type
C45   H14   S    
C25   C31   S    
C73   C100  S    
C42   C68   A    
C45   N14   A    
C89   H31   S    
N3    N11   A    
C45   C71   A    
C51   H19   S    
N2    Ni6   S    
C18   C26   D    
C24   C27   S    
C5    H81   S    
N22   Ni8   S    
C53   C59   A    
C41   C67   A    
C54   C65   A    
C85   H27   S    
C11   C81   S    
N25   N28   A    
C48   N17   A    
C54   H22   S    
C13   C84   S    
C102  H63   S    
C49   C60   A    
C47   N16   A    
C14   H54   S    
C25   H48   S    
C3    H72   S    
C34   H3    S    
C23   C29   S    
C20   C66   S    
C26   H47   S    
C3    H74   S    
C4    C10   S    
C15   H53   S    
N5    Ni7   S    
C78   H38   S    
N16   Ni3   S    
C6    C12   S    
N6    Ni8   S    
N11   Ni1   S    
C81   C98   S    
C94   C98   S    
N18   N23   A    
N2    N10   A    
C6    H84   S    
C16   C25   D    
N24   Ni7   S    
C21   H61   S    
C32   H88   S    
C2    C85   S    
C9    C79   S    
C50   N28   A    
N4    N13   A    
C87   H29   S    
C44   N13   A    
C18   H55   S    
C86   C94   S    
C43   H11   S    
C66   C83   A    
C91   H33   S    
C85   C93   S    
C42   H10   S    
C79   H39   S    
C35   C70   A    
C80   H40   S    
C49   N18   A    
C46   H15   S    
C103  H66   S    
C102  H64   S    
C7    H86   S    
C44   C70   A    
C35   H4    S    
N8    Ni7   S    
C91   C100  S    
N10   Ni1   S    
C19   C27   D    
C5    H80   S    
C56   H25   S    
C28   H23   S    
C76   C89   S    
C53   H21   S    
C83   N31   A    
C28   N23   A    
C30   H52   S    
C71   C101  S    
C39   H34   S    
C72   N30   A    
C68   C96   S    
C9    C101  S    
C13   C91   S    
C8    C78   S    
C50   C63   A    
C48   C75   A    
C7    H87   S    
N5    N14   A    
N9    Ni2   S    
C51   C62   A    
N28   Ni3   S    
C4    H76   S    
C56   N25   A    
C82   H42   S    
C104  H71   S    
C77   H37   S    
C20   C29   D    
C28   C60   A    
C46   N15   A    
C77   C90   S    
C21   C63   S    
C22   C31   D    
C17   H12   S    
C84   C100  S    
C72   H67   S    
C57   H26   S    
C70   C93   S    
C36   N5    A    
C40   H8    S    
C24   H44   S    
C61   H56   S    
C55   N24   A    
C10   C80   S    
N1    N20   A    
C104  H70   S    
C40   N8    A    
C10   C93   S    
C19   H59   S    
C22   C64   S    
N12   N21   A    
C75   C98   S    
N27   Ni1   S    
N3    Ni6   S    
C8    C88   S    
C14   C23   D    
C17   N12   A    
C1    N1    A    
N7    Ni8   S    
C80   C85   S    
C3    C9    S    
C22   H60   S    
C11   C89   S    
C94   C102  S    
N29   Ni4   S    
N30   Ni4   S    
C16   H57   S    
C20   H58   S    
C87   C96   S    
C78   C97   S    
N18   Ni6   S    
C56   C63   A    
C12   C82   S    
N13   Ni2   S    
C16   C58   S    
C37   N6    A    
N4    Ni5   S    
C8    C104  S    
C34   C69   A    
N26   Ni8   S    
C79   C92   S    
C102  H62   S    
C52   C58   A    
C92   C101  S    
C17   C59   A    
C32   C67   A    
C35   N4    A    
N15   Ni3   S    
C47   H16   S    
N17   Ni4   S    
C23   H46   S    
C33   N2    A    
C26   C30   S    
C81   H41   S    
C80   C99   S    
N14   Ni4   S    
C103  H68   S    
C4    H77   S    
C42   N10   A    
N22   N30   A    
C37   H6    S    
C76   H36   S    
C41   N9    A    
C90   C99   S    
C48   H17   S    
C55   C66   A    
N19   N27   A    
C57   C64   A    
C29   H49   S    
C38   C74   A    
C84   H43   S    
C11   C95   S    
N26   N29   A    
C54   N22   A    
C39   C62   A    
C37   C73   A    
C15   C24   D    
C53   N21   A    
N19   Ni5   S    
N6    N15   A    
C12   C92   S    
C7    H85   S    
C33   H2    S    
C84   C88   S    
C47   C74   A    
C41   H9    S    
C69   C95   S    
C39   N27   A    
C2    C99   S    
C31   H51   S    
C36   C71   A    
C5    C11   S    
C104  H69   S    
C76   C94   S    
C78   C91   S    
C65   C72   A    
C14   C60   S    
C21   C30   D    
C6    H82   S    
C74   C99   S    
N8    N17   A    
C40   C75   A    
C89   C98   S    
C81   C86   S    
N23   Ni2   S    
C82   C101  S    
C3    H73   S    
C88   C97   S    
N1    Ni1   S    
C79   C96   S    
C76   C95   S    
C34   N3    A    
N32   Ni5   S    
N25   Ni7   S    
C61   C64   A    
C43   N11   A    
N20   Ni5   S    
C52   H20   S    
C50   H45   S    
C86   H28   S    
C8    C100  S    
C2    C103  S    
C27   H50   S    
C32   N32   A    
C49   H18   S    
C6    H83   S    
C77   C93   S    
N7    N16   A    
C15   C62   S    
C90   H32   S    
C19   C65   S    
N31   Ni3   S    
C13   C97   S    
C61   N29   A    
N24   N31   A    
C86   C95   S    
C67   C97   S    
C88   H30   S    
C51   N19   A    
C18   C59   S    
C7    C13   S    
C10   C90   S    
C44   H13   S    
C55   H24   S    
C83   H78   S    
C43   C69   A    
C57   N26   A    
C36   H5    S    
C52   N20   A    
C2    C77   S    
C38   N7    A    
C12   C96   S    
C103  H65   S    
C4    H75   S    
N9    N32   A    
C38   H7    S    
C1    C58   A    
C92   H35   S    
N12   Ni2   S    
C5    H79   S    
C46   C73   A    
C9    C87   S    
N21   Ni6   S    
C82   C87   S    
C33   C68   A    
C1    H1    S    
