data_mof_unit_66994.cif
_audit_creation_date              2012-12-11T17:41:04-0500
_audit_creation_method            fapswitch 2.2
_symmetry_space_group_name_H-M    P1
_symmetry_Int_Tables_number       1
_space_group_crystal_system       triclinic
_cell_length_a                    8.234256
_cell_length_b                    12.684362
_cell_length_c                    14.184044
_cell_angle_alpha                 93.33558
_cell_angle_beta                  90.544692
_cell_angle_gamma                 98.733592
_cell_volume                      1461.55983671

loop_
_atom_site_label
_atom_site_type_symbol
_atom_type_description
_atom_site_fract_x
_atom_site_fract_y
_atom_site_fract_z
_atom_type_partial_charge
Ba1   Ba    Ba6+2 0.855630 0.555280 0.454520 1.675973
Ba2   Ba    Ba6+2 0.334200 0.444810 0.545490 1.674154
Br1   Br    Br    0.716896 0.796826 0.926822 -0.705624
Br2   Br    Br    0.369881 0.309747 0.062626 -0.704153
Br3   Br    Br    0.181293 0.879091 0.637935 -0.610388
C1    C     C_3   0.600907 0.942352 0.172896 -0.375897
C2    C     C_R   0.182163 0.498226 0.195764 0.057670
C3    C     C_R   0.337920 0.548729 0.225722 -0.270883
C4    C     C_3   0.145361 0.801609 0.194446 0.333229
C5    C     C_R   0.449469 0.596839 0.162306 0.035687
C6    C     C_R   0.403129 0.601404 0.067850 -0.114703
C7    C     C_R   0.246177 0.553261 0.034927 0.024705
C8    C     C_R   0.135235 0.498037 0.098095 0.019151
C9    C     C_R   0.053597 0.499476 0.900867 -0.019578
C10   C     C_R   0.942604 0.444541 0.964159 0.000033
C11   C     C_R   0.009357 0.496038 0.802388 0.035581
C12   C     C_3   0.647620 0.855117 0.232114 0.371538
C13   C     C_R   0.855748 0.442025 0.771982 -0.294423
C14   C     C_R   0.742813 0.395937 0.835964 0.010964
C15   C     C_R   0.787190 0.394377 0.930950 -0.149026
C16   C     C_3   0.133386 0.838785 0.094895 -0.328693
C17   C     C_R   0.203084 0.555991 0.938661 -0.017325
C18   C     C_R   0.758911 0.177760 0.546034 -0.282118
C19   C     C_R   0.429676 0.812802 0.462225 -0.237130
C20   C     C_R   0.405029 0.994818 0.432936 -0.074469
C21   C     C_R   0.341992 0.887009 0.424784 0.037509
C22   C     C_R   0.575744 0.846173 0.514004 0.049253
C23   C     C_3   0.465371 0.273523 0.251958 0.280572
C24   C     C_R   0.638393 0.957230 0.526603 -0.064404
C25   C     C_R   0.551885 0.031993 0.484399 -0.043238
C26   C     C_R   0.613864 0.142295 0.495194 0.064579
C27   C     C_R   0.849533 0.105361 0.582861 -0.012598
C28   C     C_3   0.278550 0.772498 0.699479 0.513722
C29   C     C_R   0.786624 0.996237 0.577266 -0.095899
C30   C     C_3   0.391339 0.830879 0.776656 -0.299990
C31   C     C_3   0.967411 0.238729 0.346346 0.283133
C32   C     C_3   0.931014 0.118986 0.323507 -0.371995
C33   C     C_3   0.744237 0.686735 0.742017 0.318401
C34   C     C_3   0.488216 0.236777 0.149227 -0.002850
C35   C     C_3   0.844827 0.737845 0.829123 0.058996
C36   C     C_3   0.048472 0.191887 0.806633 0.370468
C37   C     C_3   0.056454 0.149222 0.904328 -0.317150
C38   C     C_3   0.544540 0.141901 0.784438 0.317668
C39   C     C_3   0.614396 0.084249 0.862837 -0.382406
C40   C     C_R   0.984887 0.442710 0.060624 0.002316
H1    H     H_    0.737451 0.891497 0.288114 0.060009
H2    H     H_    0.824844 0.644870 0.695874 0.005786
H3    H     H_    0.640511 0.627422 0.764318 0.022189
H4    H     H_    0.542803 0.999861 0.218231 0.078569
H5    H     H_    0.937591 0.804683 0.807891 0.159801
H6    H     H_    0.907744 0.678017 0.862156 0.033610
H7    H     H_    0.534601 0.818232 0.267109 -0.093168
H8    H     H_    0.512455 0.906570 0.116089 0.137845
H9    H     H_    0.332234 0.269424 0.266114 0.051071
H10   H     H_    0.529995 0.356753 0.265398 0.036682
H11   H     H_    0.441430 0.150043 0.137979 0.109831
H12   H     H_    0.442850 0.770680 0.815999 0.149345
H13   H     H_    0.620851 0.250473 0.132099 0.084920
H14   H     H_    0.711726 0.985163 0.139936 0.145622
H15   H     H_    0.217808 0.914830 0.087942 0.108768
H16   H     H_    0.128155 0.270898 0.806917 0.092739
H17   H     H_    0.919408 0.202040 0.791598 -0.103857
H18   H     H_    0.184272 0.138509 0.921957 0.187093
H19   H     H_    0.014749 0.206192 0.957869 0.096315
H20   H     H_    0.976175 0.070740 0.906345 0.125409
H21   H     H_    0.646579 0.175708 0.739105 -0.060958
H22   H     H_    0.460985 0.082738 0.738858 0.094904
H23   H     H_    0.490005 0.887355 0.746043 0.109421
H24   H     H_    0.690185 0.026069 0.832044 0.120690
H25   H     H_    0.513072 0.041059 0.903348 0.147950
H26   H     H_    0.058539 0.726109 0.199090 0.088452
H27   H     H_    0.692189 0.142859 0.911796 0.110662
H28   H     H_    0.375404 0.546975 0.298879 0.063400
H29   H     H_    0.490791 0.640009 0.019732 0.130778
H30   H     H_    0.699297 0.356009 0.979159 0.120437
H31   H     H_    0.819547 0.441774 0.698434 0.066867
H32   H     H_    0.899133 0.397122 0.105588 0.094632
H33   H     H_    0.289062 0.601508 0.893836 0.094168
H34   H     H_    0.321487 0.876661 0.826845 0.129956
H35   H     H_    0.333804 0.048378 0.400999 0.097055
H36   H     H_    0.857353 0.943459 0.610296 0.154809
H37   H     H_    0.808085 0.262065 0.550489 0.055565
H38   H     H_    0.272631 0.786350 0.207063 -0.076919
H39   H     H_    0.379064 0.728798 0.455519 0.069278
H40   H     H_    0.167184 0.777418 0.042821 0.070888
H41   H     H_    0.005959 0.851912 0.079255 0.193352
H42   H     H_    0.345983 0.727471 0.647807 0.000282
H43   H     H_    0.857094 0.267220 0.375676 0.014078
H44   H     H_    0.068432 0.254611 0.399644 0.076677
H45   H     H_    0.824596 0.100803 0.273855 0.119154
H46   H     H_    0.901702 0.076382 0.388546 0.079572
H47   H     H_    0.039570 0.090434 0.290713 0.149467
O1    O     O_2   0.887370 0.460630 0.272300 -0.465115
O2    O     O_2   0.186494 0.110922 0.563134 -0.437307
O3    O     O_3   0.104098 0.119683 0.740123 -0.559718
O4    O     O_3   0.129410 0.451380 0.388510 -0.501095
O5    O     O_3   0.575400 0.626570 0.547370 -0.492275
O6    O     O_2   0.344320 0.238700 0.455090 -0.479097
O7    O     O_3   0.533095 0.202726 0.307014 -0.681871
O8    O     O_2   0.411920 0.416785 0.835181 -0.451773
O9    O     O_3   0.452252 0.217107 0.825043 -0.556828
O10   O     O_3   0.670210 0.653170 0.329170 -0.489375
O11   O     O_2   0.786322 0.588225 0.164293 -0.481355
O12   O     O_3   0.682829 0.767573 0.696142 -0.646293
O13   O     O_3   0.011432 0.288831 0.263040 -0.624205
O14   O     O_3   0.721043 0.783006 0.173476 -0.562226
O15   O     O_2   0.845380 0.761330 0.544970 -0.420729
O16   O     O_3   0.088930 0.704860 0.376040 -0.484566
O17   O     O_2   0.003647 0.889809 0.433200 -0.449529
O18   O     O_3   0.104426 0.880884 0.259386 -0.612255
O19   O     O_2   0.302330 0.539400 0.727760 -0.481253
O20   O     O_3   0.060300 0.548700 0.611500 -0.471874
O21   O     O_3   0.519500 0.346920 0.670840 -0.475800
O22   O     O_3   0.152383 0.709420 0.743707 -0.662145
O23   O     O_3   0.614310 0.373510 0.452640 -0.473482
O24   O     O_3   0.100780 0.295230 0.623970 -0.499106
P1    P     P_3+3 0.054400 0.427280 0.286870 0.981334
P2    P     P_3+3 0.668300 0.742890 0.573060 0.991713
P3    P     P_3+3 0.135187 0.842624 0.374078 0.993567
P4    P     P_3+3 0.135310 0.572810 0.713130 0.974096
P5    P     P_3+3 0.059453 0.156341 0.626880 1.010371
P6    P     P_3+3 0.656694 0.652732 0.206218 0.997202
P7    P     P_3+3 0.528328 0.239998 0.427356 0.933191
P8    P     P_3+3 0.532777 0.345525 0.793418 1.014234

loop_
_geom_bond_atom_site_label_1
_geom_bond_atom_site_label_2
_ccdc_geom_bond_type
C31   H44   S    
C33   C35   S    
C18   H37   S    
C22   C24   A    
C20   H35   S    
C36   C37   S    
C2    P1    S    
C14   C15   A    
C19   C22   A    
C36   H16   S    
C2    C3    A    
C31   H43   S    
Ba2   O20   S    
C28   O22   S    
C32   H45   S    
C31   C32   S    
C19   C21   A    
C13   C14   A    
C11   P4    S    
Ba1   O20   S    
C25   C26   A    
Ba2   O21   S    
C7    C17   A    
C4    O18   S    
Ba1   Ba2   S    
O5    P2    S    
C33   O12   S    
Ba2   O24   S    
Ba2   O5    S    
Br3   C28   S    
C37   H20   S    
C39   H25   S    
C29   H36   S    
O15   P2    D    
C33   H3    S    
O3    P5    S    
C38   H21   S    
O16   P3    S    
O13   P1    S    
C10   C15   A    
O1    P1    D    
C36   H17   S    
C27   P5    S    
C12   H7    S    
C23   H10   S    
O12   P2    S    
O6    P7    D    
Ba2   O19   S    
C16   H40   S    
C14   P8    S    
O9    P8    S    
O23   P7    S    
O24   P5    S    
C32   H46   S    
O4    P1    S    
C12   H1    S    
C17   H33   S    
C16   H15   S    
Ba1   O5    S    
O20   P4    S    
C23   H9    S    
C23   C34   S    
C20   C21   A    
C34   H13   S    
C24   C29   A    
C15   H30   S    
O19   P4    D    
O8    P8    D    
C27   C29   A    
C38   C39   S    
C38   O9    S    
C38   H22   S    
C24   C25   A    
Ba2   O23   S    
C34   H11   S    
Br2   C34   S    
O14   P6    S    
C39   H24   S    
Ba1   P1    S    
C21   P3    S    
C33   H2    S    
Ba1   O15   S    
C23   O7    S    
Ba1   O1    S    
C4    H38   S    
Br1   C35   S    
C9    C11   A    
C10   C40   A    
C1    H8    S    
C37   H19   S    
O17   P3    D    
O7    P7    S    
C22   P2    S    
C20   C25   A    
C1    C12   S    
C16   H41   S    
C13   H31   S    
C32   H47   S    
C31   O13   S    
C1    H14   S    
C3    C5    A    
C4    H26   S    
C5    P6    S    
C6    H29   S    
O18   P3    S    
C6    C7    A    
C35   H6    S    
C30   H12   S    
C18   C27   A    
C9    C17   A    
Ba2   O4    S    
C19   H39   S    
C26   P7    S    
C12   O14   S    
C8    C40   A    
C4    C16   S    
C36   O3    S    
O21   P8    S    
C30   H23   S    
Ba1   O4    S    
C35   H5    S    
Ba1   O10   S    
C30   H34   S    
C3    H28   S    
C28   C30   S    
C39   H27   S    
Ba1   P2    S    
C1    H4    S    
C28   H42   S    
C5    C6    A    
Ba1   O16   S    
O2    P5    D    
C2    C8    A    
C7    C8    A    
Ba2   O6    S    
C11   C13   A    
C9    C10   A    
C40   H32   S    
Ba1   O23   S    
Ba2   P4    S    
O10   P6    S    
O11   P6    D    
C37   H18   S    
O22   P4    S    
C18   C26   A    
