data_mof_unit_61518.cif
_audit_creation_date              2012-12-10T18:40:01-0500
_audit_creation_method            fapswitch 2.2
_symmetry_space_group_name_H-M    P1
_symmetry_Int_Tables_number       1
_space_group_crystal_system       triclinic
_cell_length_a                    30.186985
_cell_length_b                    30.091222
_cell_length_c                    24.554591
_cell_angle_alpha                 90.200556
_cell_angle_beta                  127.917411
_cell_angle_gamma                 90.018295
_cell_volume                      17595.7584712

loop_
_atom_site_label
_atom_site_type_symbol
_atom_type_description
_atom_site_fract_x
_atom_site_fract_y
_atom_site_fract_z
_atom_type_partial_charge
C1    C     C_R   0.810938 0.810836 0.500317 0.874945
C2    C     C_R   0.188854 0.810847 0.499169 0.874346
C3    C     C_R   0.310939 0.310836 0.500319 0.874944
C4    C     C_R   0.688854 0.310847 0.499170 0.874341
C5    C     C_R   0.645407 0.750109 0.289890 -0.031699
C6    C     C_R   0.355242 0.750155 0.710135 -0.031858
C7    C     C_R   0.145408 0.250110 0.289890 -0.031680
C8    C     C_R   0.855242 0.250155 0.710135 -0.031866
C9    C     C_R   0.466045 0.750268 0.930218 0.282003
C10   C     C_R   0.536127 0.750309 0.069819 0.281440
C11   C     C_R   0.966046 0.250269 0.930218 0.282004
C12   C     C_R   0.036128 0.250310 0.069819 0.281438
C13   C     C_3   0.875552 0.881486 0.554421 -0.153489
C14   C     C_3   0.144320 0.890836 0.467155 -0.147131
C15   C     C_3   0.375546 0.381491 0.554416 -0.153490
C16   C     C_3   0.644329 0.390840 0.467167 -0.147177
C17   C     C_3   0.853505 0.915020 0.495313 -0.161733
C18   C     C_3   0.156086 0.910720 0.533068 -0.180430
C19   C     C_3   0.353500 0.415020 0.495303 -0.161714
C20   C     C_3   0.656089 0.410718 0.533080 -0.180454
C21   C     C_3   0.905249 0.905117 0.499318 -0.017757
C22   C     C_3   0.093807 0.904462 0.499938 -0.018091
C23   C     C_3   0.405249 0.405117 0.499317 -0.017764
C24   C     C_3   0.593807 0.404463 0.499938 -0.018113
C25   C     C_3   0.927808 0.872158 0.558399 -0.177474
C26   C     C_3   0.081549 0.885071 0.433973 -0.190634
C27   C     C_3   0.427806 0.372164 0.558405 -0.177465
C28   C     C_3   0.581556 0.385078 0.433974 -0.190655
C29   C     C_3   0.896369 0.834509 0.504205 -0.199117
C30   C     C_3   0.092804 0.838109 0.465448 -0.219176
C31   C     C_3   0.396374 0.334509 0.504218 -0.199098
C32   C     C_3   0.592802 0.338112 0.465437 -0.219168
C33   C     C_3   0.874067 0.868053 0.445561 0.043593
C34   C     C_3   0.104975 0.858168 0.531280 0.054209
C35   C     C_3   0.374073 0.368048 0.445567 0.043604
C36   C     C_3   0.604967 0.358165 0.531268 0.054214
C37   C     C_3   0.821642 0.877409 0.440946 -0.199874
C38   C     C_3   0.167649 0.863796 0.564799 -0.190940
C39   C     C_3   0.321644 0.377404 0.440943 -0.199867
C40   C     C_3   0.667643 0.363791 0.564799 -0.190911
C41   C     C_3   0.844616 0.844552 0.500172 0.009063
C42   C     C_3   0.155022 0.844595 0.498793 0.022635
C43   C     C_3   0.344617 0.344552 0.500175 0.009038
C44   C     C_3   0.655023 0.344595 0.498794 0.022656
C45   C     C_R   0.682784 0.750006 0.365350 0.858562
C46   C     C_R   0.317359 0.750066 0.634662 0.859912
C47   C     C_R   0.182784 0.250006 0.365350 0.858566
C48   C     C_R   0.817359 0.250066 0.634662 0.859911
C49   C     C_R   0.836266 0.766304 0.746453 -0.197853
C50   C     C_R   0.163459 0.766072 0.253608 -0.197869
C51   C     C_R   0.336263 0.266297 0.746452 -0.197915
C52   C     C_R   0.663457 0.266075 0.253608 -0.197866
C53   C     C_R   0.871965 0.765966 0.818283 -0.164323
C54   C     C_R   0.127635 0.765764 0.181796 -0.164021
C55   C     C_R   0.371961 0.265959 0.818282 -0.164300
C56   C     C_R   0.627633 0.265767 0.181796 -0.164017
C57   C     C_R   0.927082 0.750211 0.854607 0.088683
C58   C     C_R   0.072427 0.749971 0.145384 0.088505
C59   C     C_R   0.427080 0.250209 0.854607 0.088683
C60   C     C_R   0.572426 0.249971 0.145384 0.088504
C61   C     C_R   0.945894 0.734468 0.818188 -0.165232
C62   C     C_R   0.053657 0.734129 0.181715 -0.165022
C63   C     C_R   0.445895 0.234472 0.818188 -0.165227
C64   C     C_R   0.553658 0.234126 0.181715 -0.165020
C65   C     C_R   0.909892 0.734100 0.746373 -0.198090
C66   C     C_R   0.089801 0.733732 0.253547 -0.197279
C67   C     C_R   0.409894 0.234104 0.746372 -0.198048
C68   C     C_R   0.589802 0.233729 0.253547 -0.197279
C69   C     C_R   0.854953 0.750173 0.710110 -0.030038
C70   C     C_R   0.144820 0.749888 0.289881 -0.030332
C71   C     C_R   0.354952 0.250173 0.710110 -0.030051
C72   C     C_R   0.644820 0.249888 0.289881 -0.030325
C73   C     C_R   0.034608 0.750020 0.069797 0.281966
C74   C     C_R   0.964831 0.750180 0.930195 0.281857
C75   C     C_R   0.534607 0.250020 0.069796 0.281968
C76   C     C_R   0.464829 0.250179 0.930194 0.281859
C77   C     C_3   0.595622 0.643868 0.437906 -0.151732
C78   C     C_3   0.408862 0.656743 0.546073 -0.162372
C79   C     C_3   0.095114 0.144645 0.438446 -0.152245
C80   C     C_3   0.908872 0.156646 0.546286 -0.162296
C81   C     C_3   0.578998 0.643527 0.486163 -0.153279
C82   C     C_3   0.404878 0.643098 0.482420 -0.155067
C83   C     C_3   0.079715 0.143688 0.487922 -0.153061
C84   C     C_3   0.905058 0.143134 0.482707 -0.155007
C85   C     C_3   0.595095 0.594395 0.500413 0.023002
C86   C     C_3   0.405408 0.594422 0.500553 0.023683
C87   C     C_3   0.095095 0.094382 0.500391 0.023001
C88   C     C_3   0.905405 0.094420 0.500550 0.023666
C89   C     C_R   0.689308 0.689081 0.500208 0.867399
C90   C     C_R   0.310918 0.689080 0.500231 0.866815
C91   C     C_R   0.189300 0.189080 0.500189 0.867407
C92   C     C_R   0.810916 0.189079 0.500229 0.866814
C93   C     C_3   0.611099 0.594060 0.452159 -0.165715
C94   C     C_3   0.410004 0.607464 0.564196 -0.170423
C95   C     C_3   0.109872 0.094667 0.450915 -0.166097
C96   C     C_3   0.909831 0.107328 0.564120 -0.170410
C97   C     C_3   0.671865 0.605915 0.514676 -0.173327
C98   C     C_3   0.345252 0.606388 0.518654 -0.173750
C99   C     C_3   0.171134 0.105731 0.512860 -0.173531
C100  C     C_3   0.845066 0.106347 0.518359 -0.173805
C101  C     C_3   0.655321 0.605676 0.562991 -0.170007
C102  C     C_3   0.341264 0.592772 0.455075 -0.163586
C103  C     C_3   0.155818 0.104874 0.562393 -0.169794
C104  C     C_3   0.841247 0.092865 0.454854 -0.163667
C105  C     C_3   0.639853 0.655420 0.548751 -0.160329
C106  C     C_3   0.340108 0.642123 0.436935 -0.149188
C107  C     C_3   0.141070 0.154795 0.549934 -0.159563
C108  C     C_3   0.840275 0.142255 0.437004 -0.149200
C109  C     C_3   0.655798 0.655116 0.500437 0.022956
C110  C     C_3   0.344705 0.655127 0.500527 0.022974
C111  C     C_3   0.155787 0.155109 0.500404 0.022929
C112  C     C_3   0.844701 0.155126 0.500523 0.022981
C113  C     C_R   0.439113 0.560748 0.500171 0.860946
C114  C     C_R   0.561034 0.560730 0.500093 0.863857
C115  C     C_R   0.939111 0.060747 0.500171 0.860954
C116  C     C_R   0.061039 0.060722 0.500089 0.863864
C117  C     C_R   0.939138 0.939027 0.499844 0.863573
C118  C     C_R   0.060281 0.938527 0.499936 0.864063
C119  C     C_R   0.439138 0.439027 0.499844 0.863558
C120  C     C_R   0.560281 0.438528 0.499936 0.864050
C121  C     C_R   0.817281 0.750054 0.634644 0.857679
C122  C     C_R   0.182642 0.749946 0.365349 0.857433
C123  C     C_R   0.317280 0.250054 0.634644 0.857674
C124  C     C_R   0.682642 0.249946 0.365349 0.857434
C125  C     C_R   0.611503 0.787119 0.253810 -0.200113
C126  C     C_R   0.389922 0.786999 0.746522 -0.197671
C127  C     C_R   0.111502 0.287119 0.253810 -0.200164
C128  C     C_R   0.889921 0.286999 0.746521 -0.197666
C129  C     C_R   0.576283 0.787378 0.181996 -0.165286
C130  C     C_R   0.425729 0.787199 0.818349 -0.164408
C131  C     C_R   0.076281 0.287378 0.181995 -0.165289
C132  C     C_R   0.925729 0.287200 0.818348 -0.164403
C133  C     C_R   0.573833 0.750315 0.145403 0.088132
C134  C     C_R   0.427985 0.750239 0.854634 0.088131
C135  C     C_R   0.073835 0.250316 0.145402 0.088133
C136  C     C_R   0.927985 0.250240 0.854634 0.088130
C137  C     C_R   0.607498 0.713184 0.181546 -0.164318
C138  C     C_R   0.393587 0.713253 0.818181 -0.163364
C139  C     C_R   0.107502 0.213187 0.181546 -0.164336
C140  C     C_R   0.893589 0.213253 0.818182 -0.163364
C141  C     C_R   0.643436 0.713241 0.253372 -0.195399
C142  C     C_R   0.357081 0.713371 0.746364 -0.194312
C143  C     C_R   0.143440 0.213243 0.253372 -0.195339
C144  C     C_R   0.857082 0.213370 0.746364 -0.194310
H1    H     H_    0.612643 0.816012 0.281091 0.152263
H2    H     H_    0.388950 0.815809 0.719484 0.152823
H3    H     H_    0.112639 0.316010 0.281091 0.152267
H4    H     H_    0.888949 0.315810 0.719483 0.152827
H5    H     H_    0.777121 0.878761 0.394080 0.124813
H6    H     H_    0.203670 0.854136 0.618086 0.130161
H7    H     H_    0.277125 0.378753 0.394073 0.124816
H8    H     H_    0.703659 0.354125 0.618086 0.130161
H9    H     H_    0.793907 0.778698 0.719372 0.151780
H10   H     H_    0.205874 0.778528 0.280728 0.152647
H11   H     H_    0.293902 0.278687 0.719371 0.151793
H12   H     H_    0.705871 0.278534 0.280727 0.152644
H13   H     H_    0.856655 0.778475 0.845353 0.146026
H14   H     H_    0.142929 0.778346 0.154814 0.146477
H15   H     H_    0.356650 0.278464 0.845352 0.146034
H16   H     H_    0.642926 0.278352 0.154813 0.146477
H17   H     H_    0.988188 0.721962 0.845167 0.146040
H18   H     H_    0.011290 0.721588 0.154648 0.145807
H19   H     H_    0.488191 0.221971 0.845167 0.146037
H20   H     H_    0.511292 0.221583 0.154649 0.145809
H21   H     H_    0.925195 0.721682 0.719243 0.151067
H22   H     H_    0.074546 0.721267 0.280637 0.151319
H23   H     H_    0.425198 0.221690 0.719243 0.151063
H24   H     H_    0.574548 0.221261 0.280637 0.151320
H25   H     H_    0.540152 0.657841 0.474581 0.121743
H26   H     H_    0.430216 0.657060 0.467701 0.122561
H27   H     H_    0.041457 0.158141 0.477794 0.121427
H28   H     H_    0.930546 0.157127 0.468226 0.122497
H29   H     H_    0.572290 0.660413 0.386910 0.130319
H30   H     H_    0.435517 0.683757 0.583217 0.138810
H31   H     H_    0.071368 0.161833 0.387912 0.130692
H32   H     H_    0.935537 0.183584 0.583607 0.138726
H33   H     H_    0.598463 0.568080 0.412787 0.138141
H34   H     H_    0.439323 0.592488 0.616208 0.147909
H35   H     H_    0.096246 0.069192 0.410550 0.138825
H36   H     H_    0.939011 0.092241 0.616071 0.147859
H37   H     H_    0.710622 0.591301 0.526390 0.146783
H38   H     H_    0.320139 0.592161 0.533528 0.145655
H39   H     H_    0.209295 0.090965 0.523109 0.146985
H40   H     H_    0.819803 0.092087 0.532995 0.145708
H41   H     H_    0.678938 0.589233 0.614091 0.146327
H42   H     H_    0.314646 0.565715 0.418000 0.135787
H43   H     H_    0.179834 0.087777 0.613019 0.145857
H44   H     H_    0.814615 0.065886 0.417601 0.135919
H45   H     H_    0.550475 0.816316 0.155142 0.146476
H46   H     H_    0.452093 0.816023 0.845441 0.146127
H47   H     H_    0.050471 0.316314 0.155142 0.146478
H48   H     H_    0.952092 0.316024 0.845441 0.146129
H49   H     H_    0.652545 0.681382 0.588166 0.135359
H50   H     H_    0.310611 0.657230 0.385052 0.128247
H51   H     H_    0.154763 0.180259 0.590334 0.134792
H52   H     H_    0.810916 0.157470 0.385180 0.128276
H53   H     H_    0.606485 0.684307 0.154342 0.146360
H54   H     H_    0.394433 0.684460 0.845147 0.146575
H55   H     H_    0.106491 0.184310 0.154342 0.146353
H56   H     H_    0.894435 0.184459 0.845148 0.146572
H57   H     H_    0.669175 0.684282 0.280305 0.152765
H58   H     H_    0.330784 0.684522 0.719202 0.152712
H59   H     H_    0.169181 0.184285 0.280304 0.152748
H60   H     H_    0.830786 0.184522 0.719203 0.152717
H61   H     H_    0.837111 0.948775 0.491818 0.127553
H62   H     H_    0.181021 0.941156 0.560631 0.135416
H63   H     H_    0.337102 0.448774 0.491798 0.127540
H64   H     H_    0.681026 0.441151 0.560652 0.135482
H65   H     H_    0.875167 0.885951 0.599025 0.134955
H66   H     H_    0.161335 0.903290 0.440817 0.140856
H67   H     H_    0.375155 0.385960 0.599016 0.134962
H68   H     H_    0.661352 0.403296 0.440839 0.140862
H69   H     H_    0.971664 0.871307 0.606594 0.162163
H70   H     H_    0.045846 0.894579 0.380461 0.150787
H71   H     H_    0.471661 0.371316 0.606603 0.162157
H72   H     H_    0.545858 0.394591 0.380461 0.150794
H73   H     H_    0.912909 0.800875 0.507463 0.151560
H74   H     H_    0.068196 0.807792 0.436810 0.132686
H75   H     H_    0.412918 0.300875 0.507485 0.151566
H76   H     H_    0.568193 0.307798 0.436790 0.132681
N1    N     N_R   0.518103 0.711450 0.034063 -0.179168
N2    N     N_R   0.483509 0.711431 0.965465 -0.179513
N3    N     N_R   0.018106 0.211451 0.034063 -0.179172
N4    N     N_R   0.983512 0.211431 0.965465 -0.179515
N5    N     N_R   0.484264 0.789129 0.965972 -0.179896
N6    N     N_R   0.518537 0.789150 0.034575 -0.180653
N7    N     N_R   0.984263 0.289129 0.965972 -0.179894
N8    N     N_R   0.018536 0.289150 0.034575 -0.180652
N9    N     N_R   0.021300 0.750094 0.965700 -0.180074
N10   N     N_R   0.978135 0.749946 0.034296 -0.180434
N11   N     N_R   0.521298 0.250099 0.965699 -0.180074
N12   N     N_R   0.478133 0.249940 0.034296 -0.180428
N13   N     N_R   0.055585 0.750177 0.034295 -0.179589
N14   N     N_R   0.943844 0.750183 0.965692 -0.179992
N15   N     N_R   0.555584 0.250182 0.034294 -0.179591
N16   N     N_R   0.443843 0.250176 0.965691 -0.179984
O1    O     O_R   0.822760 0.770240 0.499990 -0.629214
O2    O     O_R   0.177240 0.770240 0.500010 -0.624401
O3    O     O_R   0.322760 0.270240 0.499990 -0.629221
O4    O     O_R   0.677240 0.270240 0.500010 -0.624403
O5    O     O_R   0.482280 0.546460 0.557530 -0.627814
O6    O     O_R   0.517720 0.546460 0.442470 -0.624524
O7    O     O_R   0.982280 0.046460 0.557530 -0.627786
O8    O     O_R   0.017720 0.046460 0.442470 -0.624679
O9    O     O_R   0.924770 0.953450 0.442500 -0.617861
O10   O     O_R   0.075230 0.953450 0.557500 -0.636133
O11   O     O_R   0.424770 0.453450 0.442500 -0.617863
O12   O     O_R   0.575230 0.453450 0.557500 -0.636079
O13   O     O_R   0.982280 0.953430 0.557510 -0.625381
O14   O     O_R   0.017720 0.953430 0.442490 -0.623149
O15   O     O_R   0.482280 0.453430 0.557510 -0.625372
O16   O     O_R   0.517720 0.453430 0.442490 -0.623149
O17   O     O_R   0.770230 0.822760 0.499990 -0.623158
O18   O     O_R   0.229770 0.822760 0.500010 -0.627074
O19   O     O_R   0.270230 0.322760 0.499990 -0.623152
O20   O     O_R   0.729770 0.322760 0.500010 -0.627070
O21   O     O_R   0.725330 0.723740 0.398130 -0.622418
O22   O     O_R   0.274670 0.723740 0.601870 -0.622278
O23   O     O_R   0.225330 0.223740 0.398130 -0.622442
O24   O     O_R   0.774670 0.223740 0.601870 -0.622272
O25   O     O_R   0.672800 0.776260 0.398130 -0.623728
O26   O     O_R   0.327200 0.776260 0.601870 -0.624197
O27   O     O_R   0.172800 0.276260 0.398130 -0.623781
O28   O     O_R   0.827200 0.276260 0.601870 -0.624191
O29   O     O_R   0.729750 0.677220 0.500010 -0.626963
O30   O     O_R   0.270250 0.677220 0.499990 -0.626672
O31   O     O_R   0.229750 0.177220 0.500010 -0.627049
O32   O     O_R   0.770250 0.177220 0.499990 -0.626694
O33   O     O_R   0.677220 0.729740 0.500010 -0.623855
O34   O     O_R   0.322780 0.729740 0.499990 -0.624449
O35   O     O_R   0.177220 0.229740 0.500010 -0.623774
O36   O     O_R   0.822780 0.229740 0.499990 -0.624425
O37   O     O_R   0.827180 0.723730 0.601860 -0.624377
O38   O     O_R   0.172820 0.723730 0.398140 -0.624292
O39   O     O_R   0.327180 0.223730 0.601860 -0.624323
O40   O     O_R   0.672820 0.223730 0.398140 -0.624296
O41   O     O_R   0.774660 0.776250 0.601860 -0.625024
O42   O     O_R   0.225340 0.776250 0.398140 -0.624557
O43   O     O_R   0.274660 0.276250 0.601860 -0.624997
O44   O     O_R   0.725340 0.276250 0.398140 -0.624562
O45   O     O_R   0.424770 0.546480 0.442520 -0.624586
O46   O     O_R   0.575230 0.546480 0.557480 -0.628354
O47   O     O_R   0.924770 0.046480 0.442520 -0.624561
O48   O     O_R   0.075230 0.046480 0.557480 -0.628186
Zn1   Zn    Zn3+2 0.785070 0.714920 0.500000 0.938455
Zn2   Zn    Zn3+2 0.214930 0.714920 0.500000 0.943170
Zn3   Zn    Zn3+2 0.285070 0.214920 0.500000 0.938410
Zn4   Zn    Zn3+2 0.714930 0.214920 0.500000 0.943157
Zn5   Zn    Zn3+2 0.714920 0.785060 0.500000 0.943408
Zn6   Zn    Zn3+2 0.285080 0.785060 0.500000 0.942105
Zn7   Zn    Zn3+2 0.214920 0.285060 0.500000 0.943457
Zn8   Zn    Zn3+2 0.785080 0.285060 0.500000 0.942134
Zn9   Zn    Zn3+2 0.961630 0.999960 0.423200 0.956187
Zn10  Zn    Zn3+2 0.038370 0.999960 0.576800 0.933885
Zn11  Zn    Zn3+2 0.461630 0.499960 0.423200 0.956268
Zn12  Zn    Zn3+2 0.538370 0.499960 0.576800 0.933795
C145  C     C_R   0.875368 0.860058 0.386007 0.123731
C146  C     C_R   0.825473 0.857578 0.317904 -0.145035
C147  C     C_R   0.827450 0.849634 0.263285 -0.134077
C148  C     C_R   0.879102 0.844044 0.276225 -0.118334
C149  C     C_R   0.928865 0.846474 0.343801 -0.138170
C150  C     C_R   0.927062 0.854530 0.398498 -0.123661
H77   H     H_    0.785031 0.861571 0.306742 0.119140
H78   H     H_    0.788903 0.847711 0.210912 0.132798
H79   H     H_    0.880563 0.837824 0.233913 0.126590
H80   H     H_    0.968763 0.842080 0.353703 0.124114
H81   H     H_    0.965851 0.856891 0.450485 0.121133
C151  C     C_R   0.085491 0.840150 0.570501 0.088041
C152  C     C_R   0.051582 0.801912 0.547554 -0.166307
C153  C     C_R   0.035465 0.784672 0.585824 -0.138201
C154  C     C_R   0.053307 0.805227 0.647391 -0.126405
C155  C     C_R   0.087178 0.843171 0.670693 -0.151073
C156  C     C_R   0.103355 0.860527 0.632545 -0.121509
H82   H     H_    0.037424 0.785351 0.500178 0.124686
H83   H     H_    0.009172 0.755313 0.567766 0.126669
H84   H     H_    0.040723 0.791859 0.676899 0.126936
H85   H     H_    0.101039 0.859062 0.718438 0.128965
H86   H     H_    0.130360 0.889516 0.651817 0.141309
C157  C     C_R   0.375377 0.360042 0.386018 0.123693
C158  C     C_R   0.325481 0.357514 0.317920 -0.145062
C159  C     C_R   0.327459 0.349551 0.263306 -0.134059
C160  C     C_R   0.379115 0.343992 0.276246 -0.118342
C161  C     C_R   0.428879 0.346471 0.343815 -0.138199
C162  C     C_R   0.427074 0.354542 0.398507 -0.123581
H87   H     H_    0.285035 0.361479 0.306759 0.119152
H88   H     H_    0.288910 0.347590 0.210938 0.132805
H89   H     H_    0.380577 0.337759 0.233937 0.126603
H90   H     H_    0.468780 0.342101 0.353717 0.124130
H91   H     H_    0.465865 0.356939 0.450490 0.121128
C163  C     C_R   0.585473 0.340143 0.570477 0.088009
C164  C     C_R   0.551562 0.301906 0.547518 -0.166273
C165  C     C_R   0.535438 0.284661 0.585778 -0.138202
C166  C     C_R   0.553274 0.305211 0.647346 -0.126399
C167  C     C_R   0.587147 0.343154 0.670660 -0.151080
C168  C     C_R   0.603332 0.360515 0.632522 -0.121521
H92   H     H_    0.537408 0.285349 0.500140 0.124696
H93   H     H_    0.509144 0.255302 0.567711 0.126663
H94   H     H_    0.540684 0.291839 0.676846 0.126933
H95   H     H_    0.601003 0.359041 0.718406 0.128961
H96   H     H_    0.630337 0.389504 0.651803 0.141320

loop_
_geom_bond_atom_site_label_1
_geom_bond_atom_site_label_2
_ccdc_geom_bond_type
C28   H72   S    
C99   C103  S    
C133  C137  A    
C55   C59   A    
O37   Zn1   S    
N3    N4    A    
C64   H20   S    
O39   Zn3   S    
C156  H86   S    
C166  C167  A    
C135  C139  A    
O13   Zn10  S    
C102  H42   S    
C36   C163  S    
C49   H9    S    
C85   C114  S    
C121  O41   A    
C122  O38   A    
C20   C40   S    
C123  O43   A    
C21   C33   S    
C29   C33   S    
C100  C104  S    
C94   H34   S    
C21   C117  S    
C144  H60   S    
C167  H95   S    
C114  O46   A    
C12   C135  S    
C83   H27   S    
C145  C150  A    
C81   H25   S    
C74   N14   A    
C16   C44   S    
C34   C151  S    
C136  C140  A    
C33   C145  S    
C49   C69   A    
C72   C124  S    
C90   O34   A    
C51   C71   A    
C22   C34   S    
C2    O18   A    
O35   Zn7   S    
C25   C29   S    
C24   C120  S    
C163  C164  A    
C27   C31   S    
C161  C162  A    
C120  O16   A    
C28   C32   S    
C103  H43   S    
C118  O14   A    
C30   C34   S    
C149  C150  A    
O10   Zn10  S    
C17   C21   S    
C19   C23   S    
C12   N3    A    
C52   C72   A    
C78   C82   S    
C15   C27   S    
N7    N8    A    
C36   C40   S    
C16   C20   S    
C80   C112  S    
C14   C26   S    
C87   C103  S    
C1    C41   S    
C137  H53   S    
C125  C129  A    
C146  C147  A    
C148  C149  A    
C67   H23   S    
C22   C118  S    
O3    Zn3   S    
C48   O24   A    
O4    Zn4   S    
O27   Zn7   S    
C84   C88   S    
C118  O10   A    
C57   C61   A    
C59   C63   A    
C60   C64   A    
C1    O1    A    
C25   H69   S    
C18   C38   S    
C11   C136  S    
C66   C70   A    
C78   C94   S    
C49   C53   A    
N10   N14   A    
C95   C99   S    
C140  H56   S    
C127  C131  A    
C151  C156  A    
C92   O32   A    
C61   C65   A    
C159  C160  A    
C126  C130  A    
C103  C107  S    
O18   Zn6   S    
C130  H46   S    
C148  H79   S    
C46   O22   A    
C143  H59   S    
C116  O8    A    
O5    Zn12  S    
C7    C143  A    
C124  O44   A    
O6    Zn11  S    
C106  H50   S    
C51   H11   S    
C24   C36   S    
C31   C43   S    
O15   Zn12  S    
C32   C36   S    
C71   C123  S    
C23   C119  S    
O41   Zn5   S    
C39   H7    S    
N12   N16   A    
C155  C156  A    
C40   H8    S    
C119  O11   A    
O19   Zn7   S    
C85   C93   S    
C9    N2    A    
C8    C128  A    
C129  H45   S    
C19   H63   S    
O38   Zn2   S    
C164  H92   S    
C132  H48   S    
C99   H39   S    
O29   Zn1   S    
C30   H74   S    
O31   Zn3   S    
O14   Zn9   S    
C74   N9    A    
C101  H41   S    
C122  O42   A    
C88   C104  S    
C123  O39   A    
C104  H44   S    
C81   C105  S    
C62   C66   A    
C13   H65   S    
C165  C166  A    
C8    C144  A    
C93   H33   S    
C167  C168  A    
C115  O47   A    
C162  H91   S    
O33   Zn5   S    
N1    N2    A    
C119  O15   A    
C97   C109  S    
C70   C122  S    
C45   O25   A    
O48   Zn10  S    
C132  C136  A    
C99   C111  S    
C54   C58   A    
C76   N16   A    
O24   Zn4   S    
C77   C109  S    
C32   H76   S    
C68   H24   S    
C114  O6    A    
C26   C30   S    
C163  C168  A    
C149  H80   S    
C108  H52   S    
C4    O20   A    
C86   C102  S    
C93   C97   S    
C21   C25   S    
C29   C41   S    
C18   C22   S    
C107  C111  S    
C24   C28   S    
C84   H28   S    
C53   C57   A    
C165  H93   S    
C113  O5    A    
C13   C17   S    
C88   C115  S    
C17   H61   S    
C15   C43   S    
C125  H1    S    
O45   Zn11  S    
O46   Zn12  S    
C50   C70   A    
C2    C42   S    
C96   C100  S    
C89   O29   A    
C146  H77   S    
C82   C106  S    
C37   C41   S    
C75   N12   A    
C40   C44   S    
C11   N7    A    
C3    O3    A    
C20   H64   S    
N11   N15   A    
C120  O12   A    
C7    C127  A    
C59   C76   S    
C81   C85   S    
C58   C62   A    
C83   C87   S    
C88   C96   S    
C98   C110  S    
O16   Zn11  S    
C10   C133  S    
O20   Zn8   S    
C80   C84   S    
O1    Zn1   S    
C13   C41   S    
C130  C134  A    
O7    Zn10  S    
C15   C19   S    
C50   C54   A    
C86   C113  S    
C142  H58   S    
C106  C110  S    
C168  H96   S    
C92   O36   A    
C91   O31   A    
O8    Zn9   S    
C12   N8    A    
C94   C98   S    
C159  H88   S    
C65   H21   S    
C105  C109  S    
C47   O23   A    
O25   Zn5   S    
C6    C142  A    
C63   H19   S    
C73   N13   A    
C55   H15   S    
C160  C161  A    
C27   H71   S    
C1    O17   A    
C31   H75   S    
C153  H83   S    
O42   Zn6   S    
C6    C126  A    
C138  C142  A    
C117  O13   A    
C92   C112  S    
C35   C157  S    
C4    C44   S    
C51   C55   A    
C82   C86   S    
C5    C45   S    
C150  H81   S    
C33   C37   S    
C108  C112  S    
O32   Zn4   S    
C7    C47   S    
C98   H38   S    
C35   C39   S    
C147  C148  A    
C8    C48   S    
C79   C95   S    
O30   Zn2   S    
C77   C81   S    
O21   Zn1   S    
C4    O4    A    
C153  C154  A    
O28   Zn8   S    
C158  H87   S    
O23   Zn3   S    
C87   C116  S    
C100  C112  S    
C23   C35   S    
C89   O33   A    
C116  O48   A    
C46   O26   A    
C64   C68   A    
C104  C108  S    
O40   Zn4   S    
C137  C141  A    
C157  C162  A    
C77   H29   S    
C128  H4    S    
C140  C144  A    
C37   H5    S    
C11   N4    A    
O34   Zn6   S    
C152  H82   S    
C45   O21   A    
C117  O9    A    
C60   C75   S    
C91   O35   A    
O22   Zn2   S    
C26   H70   S    
C98   C102  S    
C79   C83   S    
C62   H18   S    
C166  H94   S    
C65   C69   A    
C77   C93   S    
C84   C108  S    
C67   C71   A    
C100  H40   S    
C121  O37   A    
C157  C158  A    
C56   C60   A    
C22   C26   S    
C30   C42   S    
C113  O45   A    
C16   C28   S    
C154  C155  A    
C82   H26   S    
O11   Zn11  S    
C145  C146  A    
C14   C18   S    
C164  C165  A    
C107  H51   S    
C126  H2    S    
C152  C153  A    
C105  H49   S    
C3    C43   S    
O44   Zn8   S    
C61   H17   S    
C90   O30   A    
O47   Zn9   S    
C38   C42   S    
C131  C135  A    
C139  H55   S    
C89   C109  S    
O12   Zn12  S    
C161  H90   S    
C91   C111  S    
C15   H67   S    
C86   C94   S    
C10   N1    A    
C20   C24   S    
O9    Zn9   S    
C75   N15   A    
C23   C27   S    
C80   C96   S    
O2    Zn2   S    
C68   C72   A    
C14   C42   S    
C9    C134  S    
C29   H73   S    
C154  H84   S    
N9    N13   A    
C13   C25   S    
C139  C143  A    
C128  C132  A    
C73   N10   A    
C101  C105  S    
C63   C67   A    
C14   H66   S    
C79   H31   S    
C16   H68   S    
C80   H32   S    
C2    O2    A    
C39   C43   S    
C47   O27   A    
C48   O28   A    
C96   H36   S    
O26   Zn6   S    
C87   C95   S    
C57   C74   S    
C54   H14   S    
C5    C141  A    
C160  H89   S    
C69   C121  S    
C76   N11   A    
N5    N6    A    
C32   C44   S    
C78   C110  S    
C17   C37   S    
C19   C39   S    
C115  O7    A    
C138  H54   S    
C95   H35   S    
O43   Zn7   S    
C129  C133  A    
C90   C110  S    
C5    C125  A    
C141  H57   S    
C85   C101  S    
C151  C152  A    
C10   N6    A    
C147  H78   S    
C6    C46   S    
C34   C38   S    
O17   Zn5   S    
C66   H22   S    
C134  C138  A    
C9    N5    A    
C97   H37   S    
C131  H47   S    
C52   H12   S    
C53   H13   S    
C79   C111  S    
C18   H62   S    
C158  C159  A    
C56   H16   S    
O36   Zn8   S    
C124  O40   A    
C50   H10   S    
C83   C107  S    
C102  C106  S    
C31   C35   S    
C3    O19   A    
C78   H30   S    
C155  H85   S    
C38   H6    S    
C97   C101  S    
C52   C56   A    
C58   C73   S    
C127  H3    S    
