data_mof_unit_49875.cif
_audit_creation_date              2012-12-11T15:17:39-0500
_audit_creation_method            fapswitch 2.2
_symmetry_space_group_name_H-M    P1
_symmetry_Int_Tables_number       1
_space_group_crystal_system       triclinic
_cell_length_a                    7.08293
_cell_length_b                    19.823401
_cell_length_c                    22.690036
_cell_angle_alpha                 89.998962
_cell_angle_beta                  89.996084
_cell_angle_gamma                 90.000505
_cell_volume                      3185.85715832

loop_
_atom_site_label
_atom_site_type_symbol
_atom_type_description
_atom_site_fract_x
_atom_site_fract_y
_atom_site_fract_z
_atom_type_partial_charge
O1    O     O_R   0.620180 0.810610 0.187990 -0.541116
O2    O     O_R   0.379820 0.189390 0.812010 -0.536192
O3    O     O_R   0.379820 0.189390 0.687990 -0.541128
O4    O     O_R   0.620180 0.810610 0.312010 -0.536179
O5    O     O_R   0.120180 0.689390 0.312010 -0.541122
O6    O     O_R   0.879820 0.310610 0.687990 -0.536209
O7    O     O_R   0.879820 0.310610 0.812010 -0.541127
O8    O     O_R   0.120180 0.689390 0.187990 -0.536179
O9    O     O_R   0.290420 0.818570 0.311590 -0.536195
O10   O     O_R   0.709580 0.181430 0.688410 -0.533094
O11   O     O_R   0.709580 0.181430 0.811590 -0.536222
O12   O     O_R   0.290420 0.818570 0.188410 -0.533034
O13   O     O_R   0.790420 0.681430 0.188410 -0.536209
O14   O     O_R   0.209580 0.318570 0.811590 -0.533084
O15   O     O_R   0.209580 0.318570 0.688410 -0.536211
O16   O     O_R   0.790420 0.681430 0.311590 -0.533043
H1    H     H_    0.860959 0.571702 0.639855 0.226191
H2    H     H_    0.097505 0.430712 0.360274 0.222272
H3    H     H_    0.138267 0.428307 0.139866 0.226184
H4    H     H_    0.902670 0.569395 0.860228 0.222321
H5    H     H_    0.361436 0.928276 0.860108 0.226177
H6    H     H_    0.597068 0.069336 0.139741 0.222296
H7    H     H_    0.638630 0.071681 0.360144 0.226194
H8    H     H_    0.402039 0.930661 0.639740 0.222294
C1    C     C_R   0.459961 0.831911 0.333555 0.789162
C2    C     C_R   0.542705 0.169498 0.665649 0.783622
C3    C     C_R   0.540018 0.168058 0.833539 0.789131
C4    C     C_R   0.457293 0.830485 0.165642 0.783738
C5    C     C_R   0.959969 0.668084 0.166448 0.789158
C6    C     C_R   0.042697 0.330499 0.834352 0.783648
C7    C     C_R   0.040027 0.331945 0.666462 0.789164
C8    C     C_R   0.957287 0.669514 0.334355 0.783676
O17   O     O_3   0.453640 0.707610 0.250000 -0.362813
O18   O     O_3   0.546360 0.292390 0.750000 -0.362783
O19   O     O_3   0.953640 0.792390 0.250000 -0.362818
O20   O     O_3   0.046360 0.207610 0.750000 -0.362784
V1    V     V_3+5 0.178800 0.757860 0.250000 1.529266
V2    V     V_3+5 0.821200 0.242140 0.750000 1.529203
V3    V     V_3+5 0.678800 0.742140 0.250000 1.529263
V4    V     V_3+5 0.321200 0.257860 0.750000 1.529226
C9    C     C_R   0.059888 0.357976 0.555517 0.024427
C10   C     C_R   0.945415 0.646154 0.446085 0.023299
C11   C     C_R   0.940381 0.642109 0.055491 0.024463
C12   C     C_R   0.054573 0.353889 0.946073 0.023170
C13   C     C_R   0.559773 0.142045 0.944488 0.024421
C14   C     C_R   0.445549 0.853837 0.053909 0.023194
C15   C     C_R   0.440231 0.857911 0.444504 0.024594
C16   C     C_R   0.554701 0.146106 0.553926 0.023181
C17   C     C_R   0.022076 0.378177 0.614953 -0.116931
C18   C     C_R   0.961012 0.623673 0.386154 -0.124667
C19   C     C_R   0.977913 0.621869 0.114934 -0.116961
C20   C     C_R   0.038929 0.376357 0.886141 -0.124654
C21   C     C_R   0.522041 0.121833 0.885052 -0.116946
C22   C     C_R   0.461021 0.876325 0.113842 -0.124692
C23   C     C_R   0.477891 0.878134 0.385063 -0.116982
C24   C     C_R   0.538948 0.123641 0.613858 -0.124661
C25   C     C_R   0.942729 0.442201 0.625138 0.215101
C26   C     C_R   0.967274 0.554390 0.374383 0.211471
C27   C     C_R   0.057008 0.557815 0.125135 0.215036
C28   C     C_R   0.032554 0.445644 0.874355 0.211446
C29   C     C_R   0.442726 0.057803 0.874867 0.215104
C30   C     C_R   0.467135 0.945610 0.125614 0.211479
C31   C     C_R   0.557011 0.942182 0.374860 0.215074
C32   C     C_R   0.532404 0.054355 0.625641 0.211441
C33   C     C_R   0.948152 0.492289 0.581361 -0.009963
C34   C     C_R   0.005812 0.508334 0.419520 -0.013596
C35   C     C_R   0.051522 0.507741 0.081353 -0.010002
C36   C     C_R   0.994076 0.491714 0.919493 -0.013610
C37   C     C_R   0.448229 0.007712 0.918637 -0.009962
C38   C     C_R   0.505645 0.991678 0.080481 -0.013589
C39   C     C_R   0.551627 0.992257 0.418644 -0.009983
C40   C     C_R   0.493920 0.008297 0.580497 -0.013584
C41   C     C_R   0.000696 0.476219 0.523395 -0.008937
C42   C     C_R   0.985755 0.527297 0.478732 -0.010780
C43   C     C_R   0.999196 0.523837 0.023372 -0.008919
C44   C     C_R   0.014104 0.472751 0.978712 -0.010787
C45   C     C_R   0.500664 0.023791 0.976609 -0.008938
C46   C     C_R   0.485736 0.972706 0.021266 -0.010757
C47   C     C_R   0.499193 0.976175 0.476619 -0.008945
C48   C     C_R   0.514122 0.027255 0.521282 -0.010777
C49   C     C_R   0.057345 0.408631 0.509334 -0.000505
C50   C     C_R   0.939185 0.595859 0.492729 -0.001226
C51   C     C_R   0.942848 0.591461 0.009297 -0.000590
C52   C     C_R   0.060658 0.404183 0.992717 -0.001260
C53   C     C_R   0.557186 0.091394 0.990677 -0.000532
C54   C     C_R   0.439349 0.904123 0.007255 -0.001331
C55   C     C_R   0.442644 0.908574 0.490684 -0.000508
C56   C     C_R   0.560812 0.095811 0.507285 -0.001236
C57   C     C_R   0.896352 0.558391 0.594990 -0.078005
C58   C     C_R   0.066154 0.443431 0.405643 -0.071190
C59   C     C_R   0.103110 0.441627 0.094993 -0.078010
C60   C     C_R   0.933937 0.556651 0.905605 -0.071309
C61   C     C_R   0.396644 0.941589 0.904987 -0.078061
C62   C     C_R   0.565835 0.056602 0.094368 -0.071221
C63   C     C_R   0.603372 0.058360 0.405013 -0.078010
C64   C     C_R   0.433535 0.943385 0.594373 -0.071221
C65   C     C_R   0.890368 0.609544 0.553063 0.239157
C66   C     C_R   0.103678 0.395473 0.448765 0.240143
C67   C     C_R   0.109325 0.390487 0.053063 0.239070
C68   C     C_R   0.896719 0.604658 0.948712 0.240106
C69   C     C_R   0.390756 0.890413 0.946896 0.239053
C70   C     C_R   0.603365 0.104569 0.051253 0.240128
C71   C     C_R   0.609602 0.109497 0.446945 0.239046
C72   C     C_R   0.396244 0.895407 0.551251 0.240181
Br1   Br    Br    0.786776 0.456563 0.694369 -0.432660
Br2   Br    Br    0.885259 0.521148 0.298583 -0.415778
Br3   Br    Br    0.212828 0.543404 0.194395 -0.432595
Br4   Br    Br    0.114325 0.478875 0.798497 -0.415895
Br5   Br    Br    0.286563 0.043451 0.805678 -0.432642
Br6   Br    Br    0.385083 0.978836 0.201427 -0.415752
Br7   Br    Br    0.712610 0.956601 0.305562 -0.432602
Br8   Br    Br    0.613945 0.021096 0.701504 -0.415912
Br9   Br    Br    0.789754 0.691294 0.587634 -0.432457
Br10  Br    Br    0.238306 0.319493 0.415775 -0.439437
Br11  Br    Br    0.210250 0.308766 0.087663 -0.432337
Br12  Br    Br    0.763179 0.680864 0.915628 -0.438964
Br13  Br    Br    0.290839 0.808541 0.912209 -0.431825
Br14  Br    Br    0.737720 0.180591 0.084273 -0.439312
Br15  Br    Br    0.710661 0.191200 0.412355 -0.432424
Br16  Br    Br    0.261886 0.819366 0.584229 -0.439455
C73   C     C_3   0.076455 0.283640 0.537471 -0.355882
C74   C     C_3   0.037827 0.224740 0.579738 -0.752109
H9    H     H_    0.146537 0.218894 0.613695 0.227222
H10   H     H_    0.901723 0.228941 0.601900 0.229907
H11   H     H_    0.036632 0.176941 0.554168 0.238573
H12   H     H_    0.982077 0.275921 0.499188 0.247671
H13   H     H_    0.219737 0.275960 0.522377 0.237656
C75   C     C_3   0.928789 0.720769 0.462842 -0.359116
C76   C     C_3   0.964427 0.778534 0.419210 -0.744049
H14   H     H_    0.098840 0.773585 0.396256 0.230753
H15   H     H_    0.853637 0.783409 0.385868 0.229449
H16   H     H_    0.967205 0.826991 0.443769 0.242628
H17   H     H_    0.785102 0.728763 0.478503 0.237088
H18   H     H_    0.024353 0.729162 0.500510 0.251676
C77   C     C_3   0.924150 0.716466 0.037465 -0.356115
C78   C     C_3   0.963149 0.775309 0.079747 -0.752293
H19   H     H_    0.854320 0.781283 0.113672 0.227153
H20   H     H_    0.099145 0.770926 0.101913 0.230113
H21   H     H_    0.964887 0.823084 0.054178 0.238572
H22   H     H_    0.018561 0.724144 0.999178 0.247658
H23   H     H_    0.780904 0.724252 0.022381 0.237563
C79   C     C_3   0.071541 0.279293 0.962831 -0.358969
C80   C     C_3   0.036260 0.221469 0.919221 -0.743681
H24   H     H_    0.901658 0.226206 0.896307 0.230665
H25   H     H_    0.146984 0.216736 0.885829 0.229482
H26   H     H_    0.034146 0.172989 0.943790 0.242532
H27   H     H_    0.215311 0.271433 0.978483 0.236959
H28   H     H_    0.975976 0.270835 0.000500 0.251640
C81   C     C_3   0.576312 0.216384 0.962526 -0.355898
C82   C     C_3   0.537717 0.275276 0.920251 -0.752066
H29   H     H_    0.646451 0.281112 0.886295 0.227231
H30   H     H_    0.401616 0.271073 0.898093 0.229916
H31   H     H_    0.536517 0.323080 0.945815 0.238554
H32   H     H_    0.481870 0.224107 0.000797 0.247660
H33   H     H_    0.719580 0.224065 0.977634 0.237632
C83   C     C_3   0.428860 0.779226 0.037165 -0.359147
C84   C     C_3   0.464509 0.721448 0.080789 -0.743930
H34   H     H_    0.598987 0.726401 0.103721 0.230743
H35   H     H_    0.353702 0.716552 0.114139 0.229481
H36   H     H_    0.467262 0.672986 0.056228 0.242503
H37   H     H_    0.285150 0.771268 0.021489 0.236935
H38   H     H_    0.524510 0.770818 0.999511 0.251624
C85   C     C_3   0.424059 0.783553 0.462557 -0.356052
C86   C     C_3   0.463015 0.724714 0.420283 -0.752457
H39   H     H_    0.354187 0.718740 0.386379 0.227147
H40   H     H_    0.598944 0.729091 0.398085 0.230094
H41   H     H_    0.464823 0.676945 0.445863 0.238674
H42   H     H_    0.518399 0.775897 0.500860 0.247672
H43   H     H_    0.280853 0.775730 0.477649 0.237689
C87   C     C_3   0.571680 0.220702 0.537166 -0.358916
C88   C     C_3   0.536368 0.278525 0.580776 -0.743704
H44   H     H_    0.401758 0.273784 0.603691 0.230648
H45   H     H_    0.647067 0.283258 0.614169 0.229474
H46   H     H_    0.534265 0.327006 0.556208 0.242554
H47   H     H_    0.715455 0.228567 0.521518 0.236984
H48   H     H_    0.476152 0.229156 0.499490 0.251664

loop_
_geom_bond_atom_site_label_1
_geom_bond_atom_site_label_2
_ccdc_geom_bond_type
C80   H26   S    
C25   Br1   S    
C88   H44   S    
C84   H34   S    
C28   Br4   S    
O5    V1    S    
C38   C46   A    
C11   C51   A    
C41   C42   A    
C37   C45   A    
C85   C86   S    
C10   C50   A    
C43   C44   A    
C29   Br5   S    
C75   C76   S    
C44   C52   A    
C47   C55   A    
O4    C1    A    
O9    C1    A    
C77   C78   S    
C34   C58   A    
C87   H48   S    
C45   C46   A    
C33   C57   A    
C88   H45   S    
O17   V3    S    
O12   C4    A    
O18   V4    S    
O8    C5    A    
O13   C5    A    
C83   C84   S    
C38   C62   A    
O14   C6    A    
C73   H13   S    
C37   C61   A    
H8    C64   S    
C67   Br11  S    
C32   Br8   S    
C39   C63   A    
C49   C66   A    
C9    C73   S    
C80   H24   S    
C34   C42   A    
C33   C41   A    
C30   C38   A    
C80   H25   S    
C41   C49   A    
O12   V1    S    
O16   C8    A    
C20   C28   A    
C45   C53   A    
C27   C35   A    
C21   C29   A    
C26   C34   A    
C82   H31   S    
C23   C31   A    
O1    C4    A    
C16   C56   A    
O2    C3    A    
C70   Br14  S    
C10   C75   S    
C76   H16   S    
C15   C85   S    
C12   C20   A    
O6    C7    A    
C83   H38   S    
C84   H35   S    
O7    C6    A    
C48   C56   A    
C14   C54   A    
H6    C62   S    
C7    C17   S    
C78   H21   S    
C9    C17   A    
C63   C71   A    
C87   H47   S    
C86   H41   S    
C77   H22   S    
C88   H46   S    
C74   H9    S    
H2    C58   S    
C79   H28   S    
O20   V4    S    
H1    C57   S    
C78   H20   S    
C61   C69   A    
C4    C22   S    
C22   C30   A    
O14   V4    S    
O17   V1    S    
C39   C47   A    
C47   C48   A    
C57   C65   A    
C26   Br2   S    
C18   C26   A    
O11   V2    S    
O19   V3    S    
C81   H32   S    
C75   H18   S    
H4    C60   S    
C30   Br6   S    
O4    V3    S    
O11   C3    A    
C9    C49   A    
C14   C22   A    
C35   C59   A    
O10   C2    A    
C11   C77   S    
C8    C18   S    
C73   C74   S    
C10   C18   A    
C16   C87   S    
C31   C39   A    
C83   H37   S    
C84   H36   S    
C51   C68   A    
C64   C72   A    
C50   C65   A    
C82   H30   S    
C19   C27   A    
O8    V1    S    
C65   Br9   S    
C56   C71   A    
C60   C68   A    
C15   C23   A    
C76   H14   S    
C5    C19   S    
C29   C37   A    
C16   C24   A    
C6    C20   S    
C86   H39   S    
O19   V1    S    
O18   V2    S    
C52   C67   A    
C79   H27   S    
O3    C2    A    
C71   Br15  S    
C1    C23   S    
C25   C33   A    
C78   H19   S    
C12   C52   A    
C2    C24   S    
O3    V4    S    
C17   C25   A    
O9    V1    S    
C3    C21   S    
O15   C7    A    
C36   C44   A    
C14   C83   S    
C82   H29   S    
C13   C53   A    
O10   V2    S    
C69   Br13  S    
C68   Br12  S    
O5    C8    A    
C74   H11   S    
C86   H40   S    
C85   H42   S    
C81   H33   S    
C73   H12   S    
C40   C48   A    
C59   C67   A    
C75   H17   S    
C43   C51   A    
C24   C32   A    
H5    C61   S    
C11   C19   A    
O20   V2    S    
C36   C60   A    
O7    V2    S    
H7    C63   S    
C13   C81   S    
C32   C40   A    
C31   Br7   S    
C85   H43   S    
C27   Br3   S    
O15   V4    S    
O13   V3    S    
C66   Br10  S    
O1    V3    S    
O16   V3    S    
C13   C21   A    
C55   C72   A    
C40   C64   A    
O2    V4    S    
C77   H23   S    
C35   C43   A    
C28   C36   A    
C12   C79   S    
C46   C54   A    
C87   C88   S    
C79   C80   S    
H3    C59   S    
C76   H15   S    
O6    V2    S    
C81   C82   S    
C54   C69   A    
C74   H10   S    
C58   C66   A    
C42   C50   A    
C53   C70   A    
C62   C70   A    
C15   C55   A    
C72   Br16  S    
