data_mof_unit_14970.cif
_audit_creation_date              2013-03-05T15:51:16-0500
_audit_creation_method            fapswitch 2.2
_symmetry_space_group_name_H-M    P1
_symmetry_Int_Tables_number       1
_space_group_crystal_system       triclinic
_cell_length_a                    19.516397
_cell_length_b                    11.06972
_cell_length_c                    18.712263
_cell_angle_alpha                 90.112585
_cell_angle_beta                  89.498348
_cell_angle_gamma                 90.309606
_cell_volume                      4042.39554862

loop_
_atom_site_label
_atom_site_type_symbol
_atom_site_description
_atom_site_fract_x
_atom_site_fract_y
_atom_site_fract_z
_atom_type_partial_charge
O1    O     O_R   0.787520 0.042810 0.170440 -0.456045
O2    O     O_R   0.212480 0.042810 0.829560 -0.473277
O3    O     O_R   0.287520 0.542810 0.170440 -0.440049
O4    O     O_R   0.712480 0.542810 0.829560 -0.432824
O5    O     O_R   0.765640 0.292100 0.175020 -0.457085
O6    O     O_R   0.234360 0.292100 0.824980 -0.389141
O7    O     O_R   0.265640 0.792100 0.175020 -0.433468
O8    O     O_R   0.734360 0.792100 0.824980 -0.445609
C1    C     C_R   0.710233 0.327921 0.139589 0.549842
C2    C     C_R   0.290935 0.324707 0.860316 0.557388
C3    C     C_R   0.211587 0.829856 0.139227 0.531353
C4    C     C_R   0.788681 0.828541 0.860884 0.529105
O9    O     O_R   0.670190 0.408840 0.168540 -0.428665
O10   O     O_R   0.329810 0.408840 0.831460 -0.496036
O11   O     O_R   0.170190 0.908840 0.168540 -0.502425
O12   O     O_R   0.829810 0.908840 0.831460 -0.418594
O13   O     O_R   0.556620 0.251410 0.175160 -0.538873
O14   O     O_R   0.443380 0.251410 0.824840 -0.539513
O15   O     O_R   0.056620 0.751410 0.175160 -0.527887
O16   O     O_R   0.943380 0.751410 0.824840 -0.540276
C5    C     C_R   0.533785 0.152220 0.145745 0.573693
C6    C     C_R   0.468118 0.156778 0.852805 0.589938
C7    C     C_R   0.039020 0.653037 0.142354 0.614694
C8    C     C_R   0.970689 0.656742 0.850494 0.558936
O17   O     O_R   0.545960 0.049620 0.170320 -0.419103
O18   O     O_R   0.454040 0.049620 0.829680 -0.435714
O19   O     O_R   0.045960 0.549620 0.170320 -0.411635
O20   O     O_R   0.954040 0.549620 0.829680 -0.446726
O21   O     O_R   0.681390 0.958010 0.176690 -0.475928
O22   O     O_R   0.318610 0.958010 0.823310 -0.491678
O23   O     O_R   0.181390 0.458010 0.176690 -0.518061
O24   O     O_R   0.818610 0.458010 0.823310 -0.483954
C9    C     C_R   0.741498 0.967873 0.148984 0.584483
C10   C     C_R   0.258757 0.969426 0.851611 0.574966
C11   C     C_R   0.242453 0.470502 0.147853 0.536956
C12   C     C_R   0.758377 0.470137 0.852167 0.567272
O25   O     O_R   0.787510 0.044390 0.330970 -0.483233
O26   O     O_R   0.212490 0.044390 0.669030 -0.467688
O27   O     O_R   0.287510 0.544390 0.330970 -0.486582
O28   O     O_R   0.712490 0.544390 0.669030 -0.468798
O29   O     O_R   0.765630 0.293570 0.323840 -0.436547
O30   O     O_R   0.234370 0.293570 0.676160 -0.455553
O31   O     O_R   0.265630 0.793570 0.323840 -0.434519
O32   O     O_R   0.734370 0.793570 0.676160 -0.458473
C13   C     C_R   0.729567 0.377361 0.352342 0.580848
C14   C     C_R   0.272507 0.374906 0.646578 0.603112
C15   C     C_R   0.229570 0.877373 0.352338 0.572018
C16   C     C_R   0.772519 0.874882 0.646565 0.600935
O33   O     O_R   0.670190 0.410420 0.329080 -0.514635
O34   O     O_R   0.329810 0.410420 0.670920 -0.505401
O35   O     O_R   0.170190 0.910420 0.329080 -0.522106
O36   O     O_R   0.829810 0.910420 0.670920 -0.501576
O37   O     O_R   0.556610 0.252880 0.323980 -0.416641
O38   O     O_R   0.443390 0.252880 0.676020 -0.503152
O39   O     O_R   0.056610 0.752880 0.323980 -0.410295
O40   O     O_R   0.943390 0.752880 0.676020 -0.508363
C17   C     C_R   0.564981 0.153098 0.360441 0.557566
C18   C     C_R   0.469400 0.157159 0.647891 0.564103
C19   C     C_R   0.064966 0.653102 0.360446 0.564065
C20   C     C_R   0.969404 0.657159 0.647898 0.560748
O41   O     O_R   0.545950 0.051210 0.330860 -0.489740
O42   O     O_R   0.454050 0.051210 0.669140 -0.477588
O43   O     O_R   0.045950 0.551210 0.330860 -0.487872
O44   O     O_R   0.954050 0.551210 0.669140 -0.476859
O45   O     O_R   0.681390 0.959480 0.325510 -0.528088
O46   O     O_R   0.318610 0.959480 0.674490 -0.515486
O47   O     O_R   0.181390 0.459480 0.325510 -0.532413
O48   O     O_R   0.818610 0.459480 0.674490 -0.512046
C21   C     C_R   0.740433 0.970996 0.353899 0.557325
C22   C     C_R   0.258438 0.971893 0.646131 0.546840
C23   C     C_R   0.240418 0.471041 0.353915 0.541906
C24   C     C_R   0.758436 0.471887 0.646134 0.543706
Cr1   Cr    Cr6+3 0.772010 0.169670 0.250090 1.173487
Cr2   Cr    Cr6+3 0.227990 0.169670 0.749910 1.205156
Cr3   Cr    Cr6+3 0.272010 0.669670 0.250090 1.192227
Cr4   Cr    Cr6+3 0.727990 0.669670 0.749910 1.202142
Cr5   Cr    Cr6+3 0.615000 0.323260 0.249260 1.131100
Cr6   Cr    Cr6+3 0.385000 0.323260 0.750740 1.091684
Cr7   Cr    Cr6+3 0.115000 0.823260 0.249260 1.108718
Cr8   Cr    Cr6+3 0.885000 0.823260 0.750740 1.110307
Cr9   Cr    Cr6+3 0.616710 0.010760 0.250840 1.133747
Cr10  Cr    Cr6+3 0.383290 0.010760 0.749160 1.127917
Cr11  Cr    Cr6+3 0.116710 0.510760 0.250840 1.100394
Cr12  Cr    Cr6+3 0.883290 0.510760 0.749160 1.142401
O49   O     O_3   0.667900 0.167900 0.250060 -0.385967
O50   O     O_3   0.332100 0.167900 0.749940 -0.362344
O51   O     O_3   0.167900 0.667900 0.250060 -0.373803
O52   O     O_3   0.832100 0.667900 0.749940 -0.359663
C25   C     C_R   0.500278 0.169333 0.923209 -0.011723
C26   C     C_R   0.506781 0.150467 0.072378 0.000148
C27   C     C_R   0.011382 0.668595 0.916045 0.005828
C28   C     C_R   0.021140 0.656853 0.065154 0.006597
C29   C     C_R   0.487450 0.272949 0.967220 -0.087034
C30   C     C_R   0.486131 0.259581 0.041829 -0.075226
C31   C     C_R   0.011977 0.776567 0.955799 -0.084665
C32   C     C_R   0.012082 0.770606 0.030809 -0.076725
C33   C     C_R   0.520613 0.047504 0.027957 0.119995
C34   C     C_R   0.524263 0.061584 0.953639 0.111904
C35   C     C_R   0.025020 0.548520 0.022698 0.141144
C36   C     C_R   0.029192 0.559794 0.947580 0.176227
C37   C     C_R   0.478308 0.391164 0.940034 -0.100364
C38   C     C_R   0.469448 0.359210 0.085403 -0.093917
C39   C     C_R   0.009526 0.890191 0.922190 -0.090567
C40   C     C_R   0.997076 0.877589 0.069191 -0.078594
C41   C     C_R   0.994631 0.995110 0.960744 0.195143
C42   C     C_R   0.988439 0.987686 0.035469 0.198917
C43   C     C_R   0.476429 0.493016 0.985180 0.191673
C44   C     C_R   0.477410 0.475393 0.059510 0.200820
C45   C     C_R   0.774875 0.850761 0.935963 0.009139
C46   C     C_R   0.224431 0.857929 0.065316 0.004716
C47   C     C_R   0.290285 0.337390 0.939229 -0.009772
C48   C     C_R   0.718338 0.344909 0.062681 -0.027127
C49   C     C_R   0.721324 0.926847 0.954442 0.111963
C50   C     C_R   0.271968 0.946473 0.048205 0.022182
C51   C     C_R   0.259620 0.258418 0.989487 -0.015384
C52   C     C_R   0.783287 0.342885 0.033237 -0.008550
C53   C     C_R   0.710201 0.955664 0.025542 0.010112
C54   C     C_R   0.284912 0.976165 0.977951 -0.114547
C55   C     C_R   0.248469 0.297617 0.060278 0.019515
C56   C     C_R   0.796260 0.376134 0.963679 0.022050
C57   C     C_R   0.805156 0.833434 0.062944 0.232138
C58   C     C_R   0.198178 0.834280 0.938752 0.218632
C59   C     C_R   0.303920 0.488172 0.032041 0.191329
C60   C     C_R   0.675237 0.393439 0.944475 0.203038
C61   C     C_R   0.816950 0.803643 0.990008 -0.135376
C62   C     C_R   0.185773 0.803964 0.010844 -0.113807
C63   C     C_R   0.319910 0.443038 0.965914 -0.085865
C64   C     C_R   0.663012 0.366580 0.017056 -0.141865
C65   C     C_3   0.713215 0.057145 0.933121 0.088731
C66   C     C_3   0.345734 0.951249 0.066726 0.149772
C67   C     C_3   0.189180 0.203874 0.989229 0.073733
C68   C     C_3   0.844127 0.402985 0.061230 0.132342
C69   C     C_3   0.701589 0.085178 0.010781 -0.292322
C70   C     C_3   0.359827 0.990891 0.990037 -0.227778
C71   C     C_3   0.182095 0.234107 0.068112 -0.195511
C72   C     C_3   0.857618 0.447773 0.985879 -0.215105
C73   C     C_R   0.750934 0.911375 0.079834 0.051562
C74   C     C_R   0.249506 0.920015 0.922328 0.043380
C75   C     C_R   0.263535 0.417095 0.079930 0.027457
C76   C     C_R   0.743120 0.406892 0.918701 0.057318
H1    H     H_    0.183063 0.106944 0.977836 0.111988
H2    H     H_    0.877283 0.330824 0.081403 0.239189
H3    H     H_    0.668702 0.079606 0.900599 0.195338
H4    H     H_    0.365772 0.861007 0.079525 0.244115
C77   C     C_R   0.509630 0.161787 0.581774 0.032680
C78   C     C_R   0.553360 0.159260 0.437846 0.012084
C79   C     C_R   0.009616 0.661783 0.581778 0.033625
C80   C     C_R   0.053306 0.659273 0.437843 0.011069
C81   C     C_R   0.511987 0.055993 0.542138 0.103994
C82   C     C_R   0.534558 0.053959 0.472839 -0.025714
C83   C     C_R   0.011928 0.556005 0.542127 0.103796
C84   C     C_R   0.034469 0.553986 0.472822 -0.026173
C85   C     C_R   0.559713 0.265717 0.479004 -0.109250
C86   C     C_R   0.538840 0.266455 0.551648 -0.143734
C87   C     C_R   0.059746 0.765682 0.479028 -0.110164
C88   C     C_R   0.038866 0.766429 0.551670 -0.143328
C89   C     C_3   0.455085 0.969581 0.527783 -0.199829
C90   C     C_3   0.480772 0.965701 0.451855 -0.169137
C91   C     C_3   0.955005 0.469633 0.527780 -0.199398
C92   C     C_3   0.980661 0.465785 0.451839 -0.169973
H5    H     H_    0.904037 0.513267 0.533160 0.116552
H6    H     H_    0.003182 0.377571 0.435982 0.225755
H7    H     H_    0.404108 0.013195 0.533129 0.116918
H8    H     H_    0.503308 0.877484 0.436026 0.226845
H9    H     H_    0.460671 0.883188 0.557031 0.240276
H10   H     H_    0.443968 0.006027 0.413817 0.226072
H11   H     H_    0.960597 0.383225 0.557012 0.241070
H12   H     H_    0.943853 0.506164 0.413821 0.226880
C93   C     C_R   0.761196 0.899359 0.571826 -0.004623
C94   C     C_R   0.246390 0.908855 0.425701 0.007614
C95   C     C_R   0.261162 0.399427 0.571853 -0.005218
C96   C     C_R   0.746372 0.408793 0.425715 0.008599
C97   C     C_R   0.817377 0.885300 0.525684 -0.096619
C98   C     C_R   0.192891 0.960807 0.463711 -0.093172
C99   C     C_R   0.317327 0.385337 0.525699 -0.094335
C100  C     C_R   0.692866 0.460725 0.463722 -0.095560
C101  C     C_R   0.810553 0.893094 0.452886 0.028169
C102  C     C_R   0.190327 0.963883 0.536481 0.003133
C103  C     C_R   0.310500 0.393173 0.452913 0.024616
C104  C     C_R   0.690307 0.463821 0.536492 0.002628
C105  C     C_R   0.688526 0.902780 0.467729 -0.170585
C106  C     C_R   0.296287 0.854654 0.540701 -0.154744
C107  C     C_R   0.188481 0.402939 0.467765 -0.168120
C108  C     C_R   0.796267 0.354597 0.540718 -0.154316
C109  C     C_R   0.695216 0.899161 0.542384 0.150541
C110  C     C_R   0.299368 0.850868 0.465289 0.163726
C111  C     C_R   0.195176 0.399271 0.542422 0.150076
C112  C     C_R   0.799350 0.350805 0.465306 0.163433
C113  C     C_3   0.885250 0.948124 0.524115 -0.189450
C114  C     C_3   0.158388 0.078746 0.453741 -0.229509
C115  C     C_3   0.385254 0.447971 0.524123 -0.187774
C116  C     C_3   0.658362 0.578657 0.453737 -0.226214
C117  C     C_3   0.877413 0.956421 0.443544 0.127612
C118  C     C_3   0.154039 0.083609 0.534981 0.126588
C119  C     C_3   0.377415 0.456300 0.443551 0.127951
C120  C     C_3   0.654017 0.583545 0.534975 0.125699
C121  C     C_R   0.747120 0.914345 0.423282 -0.030108
C122  C     C_R   0.245426 0.921076 0.576133 -0.028260
C123  C     C_R   0.247079 0.414470 0.423316 -0.032595
C124  C     C_R   0.745412 0.421037 0.576145 -0.028462
H13   H     H_    0.637895 0.909273 0.445385 0.160561
H14   H     H_    0.337740 0.817252 0.571527 0.177324
H15   H     H_    0.137852 0.409455 0.445420 0.160755
H16   H     H_    0.837718 0.317197 0.571548 0.179049
N1    N     N_R   0.531188 0.928700 0.057724 0.131992
O53   O     O_R   0.486961 0.882575 0.102383 -0.224122
O54   O     O_R   0.582029 0.861937 0.036782 -0.238564
N2    N     N_R   0.546014 0.962441 0.908167 0.100007
O55   O     O_R   0.579749 0.983405 0.849110 -0.295378
O56   O     O_R   0.515856 0.858437 0.913975 -0.175834
N3    N     N_R   0.018411 0.429558 0.054627 0.078039
O57   O     O_R   0.978079 0.411355 0.108924 -0.269157
O58   O     O_R   0.040115 0.334105 0.022094 -0.241383
N4    N     N_R   0.045140 0.460886 0.899916 0.174997
O59   O     O_R   0.003303 0.370268 0.894444 -0.197169
O60   O     O_R   0.085141 0.481969 0.845093 -0.172356
H17   H     H_    0.575207 0.349051 0.453883 0.182945
H18   H     H_    0.539715 0.349547 0.581799 0.193313
H19   H     H_    0.075348 0.848974 0.453939 0.183566
H20   H     H_    0.039796 0.849502 0.581839 0.192850
N5    N     N_R   0.635479 0.900555 0.587375 0.075309
O61   O     O_R   0.583974 0.830162 0.573149 -0.312253
O62   O     O_R   0.632832 0.969778 0.643630 -0.283617
N6    N     N_R   0.358692 0.796345 0.431906 0.051591
O63   O     O_R   0.400345 0.733401 0.470681 -0.395464
O64   O     O_R   0.380509 0.831731 0.369418 -0.294321
N7    N     N_R   0.135442 0.400622 0.587421 0.074999
O65   O     O_R   0.083935 0.330243 0.573175 -0.311426
O66   O     O_R   0.132804 0.469767 0.643710 -0.275550
N8    N     N_R   0.858680 0.296294 0.431929 0.051033
O67   O     O_R   0.900345 0.233392 0.470713 -0.396028
O68   O     O_R   0.880494 0.331675 0.369440 -0.298210
H21   H     H_    0.926456 0.887553 0.541613 0.168677
H22   H     H_    0.109108 0.068313 0.425155 0.220302
H23   H     H_    0.426398 0.387275 0.541617 0.169205
H24   H     H_    0.609080 0.568210 0.425153 0.222129
H25   H     H_    0.883852 0.037203 0.551571 0.195937
H26   H     H_    0.193659 0.147825 0.430676 0.127704
H27   H     H_    0.383940 0.537055 0.551580 0.194334
H28   H     H_    0.693631 0.647728 0.430661 0.132694
H29   H     H_    0.872141 0.048349 0.422388 0.217781
H30   H     H_    0.184115 0.158593 0.558628 0.146787
H31   H     H_    0.372249 0.548260 0.422406 0.219205
H32   H     H_    0.684093 0.658534 0.558615 0.147090
N9    N     N_R   0.927611 0.885463 0.403643 0.089533
O69   O     O_R   0.916022 0.772331 0.388531 -0.310982
O70   O     O_R   0.977438 0.942059 0.371235 -0.291924
N10   N     N_R   0.084191 0.074223 0.564135 0.097702
O71   O     O_R   0.075199 0.061799 0.632684 -0.266864
O72   O     O_R   0.031032 0.094058 0.524392 -0.313532
N11   N     N_R   0.427497 0.385124 0.403629 0.084586
O73   O     O_R   0.416230 0.271514 0.389553 -0.328084
O74   O     O_R   0.476800 0.441591 0.370278 -0.285172
N12   N     N_R   0.584169 0.574166 0.564128 0.097042
O75   O     O_R   0.575178 0.561719 0.632675 -0.265902
O76   O     O_R   0.531010 0.594012 0.524385 -0.314074
H33   H     H_    0.481224 0.410042 0.883906 0.238799
H34   H     H_    0.458754 0.348424 0.141798 0.211141
H35   H     H_    0.018204 0.897726 0.865292 0.216698
H36   H     H_    0.984084 0.877451 0.125225 0.221050
N13   N     N_R   0.981170 0.105180 0.923078 0.154807
O77   O     O_R   0.989022 0.110912 0.853991 -0.246897
O78   O     O_R   0.950161 0.193193 0.955498 -0.194940
N14   N     N_R   0.970673 0.089419 0.078673 0.127423
O79   O     O_R   0.906211 0.112203 0.089808 -0.295973
O80   O     O_R   0.015702 0.132877 0.122783 -0.289166
N15   N     N_R   0.469300 0.611758 0.954723 0.142961
O81   O     O_R   0.463265 0.625250 0.885945 -0.263894
O82   O     O_R   0.457745 0.704433 0.995553 -0.177053
N16   N     N_R   0.496649 0.569488 0.108514 0.142256
O83   O     O_R   0.473594 0.567841 0.174014 -0.264797
O84   O     O_R   0.550510 0.634966 0.094095 -0.196336
N17   N     N_R   0.848448 0.785943 0.118010 0.105849
O85   O     O_R   0.892012 0.702785 0.101921 -0.333941
O86   O     O_R   0.838742 0.810423 0.185361 -0.253959
N18   N     N_R   0.168436 0.762022 0.883589 0.066214
O87   O     O_R   0.177369 0.645876 0.885130 -0.236270
O88   O     O_R   0.143780 0.811343 0.826325 -0.320851
N19   N     N_R   0.320394 0.613967 0.042775 0.053504
O89   O     O_R   0.364277 0.645098 0.091216 -0.258995
O90   O     O_R   0.313008 0.687177 0.989213 -0.351093
N20   N     N_R   0.619361 0.420742 0.899196 0.052103
O91   O     O_R   0.607881 0.351465 0.844275 -0.321692
O92   O     O_R   0.597202 0.531294 0.898432 -0.249108
H37   H     H_    0.860329 0.748742 0.974876 0.112511
H38   H     H_    0.150023 0.732437 0.023879 0.106229
H39   H     H_    0.348789 0.503703 0.932100 0.216979
H40   H     H_    0.611446 0.366539 0.038106 0.139095
N21   N     N_R   0.775881 0.111155 0.904439 0.080560
O93   O     O_R   0.775593 0.162887 0.842089 -0.274825
O94   O     O_R   0.833366 0.097923 0.937688 -0.279973
N22   N     N_R   0.360306 0.040545 0.122367 0.085446
O95   O     O_R   0.377092 0.003849 0.185847 -0.238396
O96   O     O_R   0.353639 0.155507 0.111084 -0.381188
N23   N     N_R   0.146305 0.277614 0.945039 0.133734
O97   O     O_R   0.114918 0.228957 0.891088 -0.197259
O98   O     O_R   0.154744 0.394203 0.948518 -0.285961
N24   N     N_R   0.827144 0.497247 0.113347 0.132953
O99   O     O_R   0.855423 0.495484 0.176065 -0.188596
O100  O     O_R   0.776280 0.570465 0.102215 -0.286071
H41   H     H_    0.744511 0.132116 0.036348 0.162024
H42   H     H_    0.375812 0.086599 0.983919 0.137273
H43   H     H_    0.140505 0.295981 0.083796 0.225782
H44   H     H_    0.850726 0.546120 0.978424 0.119230
H45   H     H_    0.649692 0.117848 0.024335 0.089394
H46   H     H_    0.390543 0.924768 0.958871 0.215921
H47   H     H_    0.186610 0.153727 0.103218 0.163911
H48   H     H_    0.904946 0.411168 0.962821 0.220686

loop_
_geom_bond_atom_site_label_1
_geom_bond_atom_site_label_2
_geom_bond_distance
_ccdc_geom_bond_type
C37   C43   1.407954 A    
O4    C12   1.282289 A    
C89   C90   1.503091 S    
C108  H16   1.082300 S    
O25   C21   1.294114 A    
C53   C69   1.471379 S    
Cr7   O51   2.010811 S    
C103  C119  1.486974 S    
C36   N4    1.444349 S    
N20   O91   1.301360 A    
C101  C117  1.487021 S    
O39   C19   1.311119 A    
C59   N19   1.441524 S    
O21   C9    1.282591 A    
C1    O9    1.305694 A    
O44   Cr12  2.075913 S    
N12   O76   1.301643 A    
C11   C75   1.457643 S    
C78   C82   1.384311 A    
C3    O11   1.309974 A    
C4    O12   1.313032 A    
C9    C73   1.446808 S    
C37   H33   1.072232 S    
C91   H5    1.111830 S    
C27   C36   1.389425 A    
C104  C120  1.506487 S    
O2    C10   1.289038 A    
C113  H25   1.111355 S    
C118  N10   1.467084 S    
N9    O69   1.302359 A    
C68   H2    1.100165 S    
C50   C66   1.484355 S    
C34   N2    1.450425 S    
C66   C70   1.523731 S    
N10   O72   1.301638 A    
C5    C26   1.474904 S    
O31   Cr3   1.947434 S    
C61   H37   1.080250 S    
O16   Cr8   1.973612 S    
C63   H39   1.077192 S    
C64   H40   1.077497 S    
C29   C37   1.417673 A    
O13   C5    1.305311 A    
O28   Cr4   2.073770 S    
O12   Cr8   2.077505 S    
O22   Cr10  1.955550 S    
O15   C7    1.295251 A    
O46   Cr10  1.971802 S    
N7    O65   1.297660 A    
O14   Cr6   1.973612 S    
C42   N14   1.427503 S    
C2    C47   1.482972 S    
C88   H20   1.078263 S    
N8    O68   1.301237 A    
C65   C69   1.500909 S    
C119  H31   1.098356 S    
C32   C40   1.414509 A    
N16   O84   1.300262 A    
N24   O99   1.301485 A    
C13   C96   1.455503 S    
C94   C98   1.385165 A    
O5    Cr1   1.959039 S    
C105  H13   1.079129 S    
Cr12  O52   2.010615 S    
O7    Cr3   1.959039 S    
C17   O41   1.308835 A    
C60   N20   1.420970 S    
C19   O43   1.308832 A    
C20   O44   1.272500 A    
N22   O96   1.297822 A    
C55   C75   1.402390 A    
Cr8   O52   2.001195 S    
O46   C22   1.300962 A    
C6    C25   1.470265 S    
C91   H11   1.109172 S    
N19   O90   1.299645 A    
C16   C93   1.444204 S    
C38   H34   1.080648 S    
C16   O36   1.271264 A    
C30   C38   1.408127 A    
C87   C88   1.415662 A    
O27   C23   1.294095 A    
C54   C74   1.397335 A    
O31   C15   1.280149 A    
O32   C16   1.287893 A    
C83   C91   1.487652 S    
O47   Cr11  1.977303 S    
C105  C121  1.413511 A    
C33   C34   1.400828 A    
N23   O98   1.301766 A    
C35   N3    1.451790 S    
O5    C1    1.335775 A    
C68   N24   1.464161 S    
O24   C12   1.296831 A    
O30   C14   1.287844 A    
N13   O77   1.302132 A    
N4    O60   1.304328 A    
C116  H28   1.111430 S    
C59   C75   1.423734 A    
C28   C32   1.427391 A    
C57   C73   1.402513 A    
O32   Cr4   1.950304 S    
O11   Cr7   2.074902 S    
N14   O79   1.299395 A    
C108  C124  1.399963 A    
C43   C44   1.405189 A    
C56   C76   1.385677 A    
C80   C87   1.411996 A    
O27   Cr3   2.079924 S    
C66   H4    1.102273 S    
C46   C50   1.382090 A    
C85   H17   1.076842 S    
C54   C70   1.489451 S    
O8    C4    1.320911 A    
C1    C48   1.458850 S    
C92   H12   1.111556 S    
Cr5   O49   2.010811 S    
C22   C122  1.448428 S    
C101  C121  1.382195 A    
C3    C46   1.437700 S    
C31   C39   1.408591 A    
N1    O54   1.297792 A    
O22   C10   1.285073 A    
C2    O10   1.312148 A    
C89   H9    1.109167 S    
C41   N13   1.435426 S    
O6    Cr2   1.954285 S    
C10   C74   1.442376 S    
C52   C56   1.374339 A    
C92   H6    1.111763 S    
C79   C83   1.385708 A    
C57   C61   1.420548 A    
N5    O61   1.297653 A    
C104  C124  1.397259 A    
C111  N7    1.432225 S    
C72   H48   1.095394 S    
C59   C63   1.367706 A    
C52   C68   1.458707 S    
O3    C11   1.261152 A    
C68   C72   1.515933 S    
N21   O93   1.300761 A    
C39   C41   1.396621 A    
C87   H19   1.076748 S    
Cr1   O49   2.031846 S    
C46   C62   1.404011 A    
C49   C53   1.383118 A    
C77   C86   1.405353 A    
Cr3   O51   2.031846 S    
N7    O66   1.301632 A    
C51   C55   1.408575 A    
C62   H38   1.079373 S    
C48   C52   1.377977 A    
O26   Cr2   2.073770 S    
C110  N6    1.445112 S    
O29   C13   1.280117 A    
O28   C24   1.277295 A    
O14   C6    1.271353 A    
C117  H29   1.098305 S    
C80   C84   1.384233 A    
N15   O81   1.302365 A    
N20   O92   1.300296 A    
O40   Cr8   1.959057 S    
C25   C34   1.406896 A    
C44   N16   1.436955 S    
O41   Cr9   2.077862 S    
C70   H46   1.110028 S    
C47   C63   1.395272 A    
N17   O86   1.301028 A    
O33   Cr5   2.081643 S    
C25   C29   1.432579 A    
C115  C119  1.519805 S    
C40   H36   1.076589 S    
O29   Cr1   1.947434 S    
C113  C117  1.519740 S    
C100  C104  1.362544 A    
N18   O87   1.298805 A    
C93   C97   1.398809 A    
C7    C28   1.489852 S    
C109  N5    1.432185 S    
Cr9   O49   2.001302 S    
C96   C100  1.385140 A    
C28   C35   1.439161 A    
C18   O42   1.272523 A    
Cr11  O51   2.001302 S    
O26   C22   1.277293 A    
O20   Cr12  2.095054 S    
C114  H26   1.111430 S    
N6    O63   1.300472 A    
C40   C42   1.385298 A    
C18   C77   1.460314 S    
N11   O73   1.302348 A    
C102  C118  1.506485 S    
N24   O100  1.303347 A    
C116  C120  1.522635 S    
C115  H23   1.102111 S    
C120  N12   1.467061 S    
C106  C110  1.412435 A    
C5    O17   1.250893 A    
N2    O55   1.301974 A    
C83   C84   1.365974 A    
C116  H24   1.109988 S    
C98   C102  1.362536 A    
C26   C33   1.434758 A    
C60   C64   1.408921 A    
O42   Cr10  2.075913 S    
O18   Cr10  2.095054 S    
C17   C78   1.465618 S    
C69   H41   1.096325 S    
C112  N8    1.445110 S    
O34   Cr6   2.089743 S    
C26   C30   1.400040 A    
O24   Cr12  1.955550 S    
O30   Cr2   1.950304 S    
O1    C9    1.285697 A    
O48   Cr12  1.971802 S    
C8    O20   1.288279 A    
C58   C74   1.408588 A    
N23   O97   1.299862 A    
O37   C17   1.311144 A    
C15   O35   1.296251 A    
Cr10  O50   2.010615 S    
C55   C71   1.476833 S    
O40   C20   1.287006 A    
O43   Cr11  2.077862 S    
O48   C24   1.300973 A    
C56   C72   1.494183 S    
O37   Cr5   1.956342 S    
O21   Cr9   1.957994 S    
N12   O75   1.300581 A    
C107  C111  1.404923 A    
O39   Cr7   1.956342 S    
O45   Cr9   1.977303 S    
C91   C92   1.503127 S    
C13   O33   1.296261 A    
C94   C110  1.432584 A    
O13   Cr5   1.966441 S    
O15   Cr7   1.966441 S    
C79   C88   1.405330 A    
C98   C114  1.485043 S    
N9    O70   1.300197 A    
O23   C11   1.310631 A    
N10   O71   1.300591 A    
C90   H10   1.111535 S    
C82   C90   1.484987 S    
C106  H14   1.082296 S    
C39   H35   1.079935 S    
C60   C76   1.413122 A    
C71   H43   1.102331 S    
O6    C2    1.339453 A    
C72   H44   1.106916 S    
C23   C123  1.450015 S    
C65   H3    1.095011 S    
C41   C42   1.404953 A    
O1    Cr1   2.067258 S    
O19   Cr11  2.099329 S    
N19   O89   1.297332 A    
C81   C82   1.366060 A    
N15   O82   1.297469 A    
C78   C85   1.412014 A    
C103  C123  1.382022 A    
O45   C21   1.278714 A    
O47   C23   1.278637 A    
N8    O67   1.300475 A    
C57   N17   1.440180 S    
C48   C64   1.404298 A    
C100  C116  1.485025 S    
N14   O80   1.300605 A    
C6    O18   1.290883 A    
C66   N22   1.462914 S    
C117  N9    1.458578 S    
N16   O83   1.302068 A    
C33   N1    1.445768 S    
O36   Cr8   2.089743 S    
C81   C89   1.487663 S    
C77   C81   1.385732 A    
O38   Cr6   1.959057 S    
C84   C92   1.484887 S    
C29   C30   1.404214 A    
C31   C32   1.405299 A    
C106  C122  1.399988 A    
O8    Cr4   1.954285 S    
C71   H47   1.111383 S    
C51   C67   1.498530 S    
N1    O53   1.299366 A    
O7    C3    1.324526 A    
C49   C65   1.506807 S    
C120  H32   1.107762 S    
N22   O95   1.301347 A    
C67   C71   1.518190 S    
C99   C115  1.492818 S    
N11   O74   1.300224 A    
O23   Cr11  1.957994 S    
C14   C95   1.444106 S    
N3    O57   1.295214 A    
C119  N11   1.458564 S    
C38   C44   1.382735 A    
C114  H22   1.109971 S    
C20   C79   1.460182 S    
C7    O19   1.268075 A    
C86   H18   1.078240 S    
Cr4   O52   2.032055 S    
O2    Cr2   2.069014 S    
C45   C49   1.386818 A    
C19   C80   1.465588 S    
Cr6   O50   2.001195 S    
C102  C122  1.397235 A    
C65   N21   1.457111 S    
C21   C121  1.450164 S    
C4    C45   1.448977 S    
O35   Cr7   2.081643 S    
C115  H27   1.111359 S    
O9    Cr5   2.074902 S    
O16   C8    1.274829 A    
N13   O78   1.296577 A    
C105  C109  1.404857 A    
N4    O59   1.294452 A    
C99   C103  1.372622 A    
C95   C99   1.398737 A    
C107  C123  1.413558 A    
C108  C112  1.412436 A    
C58   C62   1.409321 A    
C58   N18   1.429847 S    
C24   C124  1.448451 S    
C35   C36   1.412988 A    
C97   C101  1.372807 A    
N17   O85   1.289868 A    
C67   N23   1.439597 S    
Cr2   O50   2.032055 S    
C12   C76   1.457222 S    
C69   H45   1.104571 S    
C50   C54   1.376603 A    
C45   C61   1.410804 A    
N3    O58   1.290072 A    
N18   O88   1.300775 A    
C43   N15   1.441608 S    
C8    C27   1.472341 S    
C15   C94   1.455515 S    
C113  H21   1.102185 S    
O3    Cr3   2.067258 S    
O38   C18   1.287031 A    
O25   Cr1   2.079924 S    
C118  H30   1.107771 S    
C53   C73   1.387352 A    
C89   H7    1.111827 S    
O17   Cr9   2.099329 S    
N6    O64   1.301247 A    
C90   H8    1.111765 S    
C14   O34   1.271300 A    
C95   C111  1.405044 A    
C107  H15   1.079116 S    
C93   C109  1.404996 A    
N5    O62   1.301627 A    
C96   C112  1.432605 A    
C97   C113  1.492854 S    
N21   O94   1.296746 A    
O10   Cr6   2.077505 S    
O4    Cr4   2.069014 S    
C67   H1    1.099623 S    
C114  C118  1.522670 S    
C27   C31   1.406620 A    
N2    O56   1.294512 A    
C47   C51   1.412294 A    
C70   H42   1.108674 S    
C85   C86   1.415672 A    
