data_mof_unit_28597.cif
_audit_creation_date              2013-03-05T16:18:09-0500
_audit_creation_method            fapswitch 2.2
_symmetry_space_group_name_H-M    P1
_symmetry_Int_Tables_number       1
_space_group_crystal_system       triclinic
_cell_length_a                    11.074961
_cell_length_b                    10.196996
_cell_length_c                    15.697242
_cell_angle_alpha                 89.927169
_cell_angle_beta                  92.274937
_cell_angle_gamma                 89.241726
_cell_volume                      1771.15532746

loop_
_atom_site_label
_atom_site_type_symbol
_atom_site_description
_atom_site_fract_x
_atom_site_fract_y
_atom_site_fract_z
_atom_type_partial_charge
O1    O     O_R   0.314910 0.616040 0.499980 -0.520158
O2    O     O_R   0.314910 0.383960 0.499980 -0.536445
C1    C     C_R   0.258448 0.500032 0.496941 1.016698
O3    O     O_R   0.500120 0.616090 0.377110 -0.539480
O4    O     O_R   0.500120 0.383910 0.377110 -0.546661
C2    C     C_R   0.496519 0.500168 0.339419 0.960337
Zn1   Zn    Zn3+2 0.500150 0.654960 0.499960 1.138561
Zn2   Zn    Zn3+2 0.500150 0.345040 0.499960 1.105190
O5    O     O_R   0.685320 0.616040 0.499960 -0.546835
O6    O     O_R   0.685320 0.383960 0.499960 -0.588975
O7    O     O_R   0.500110 0.615990 0.622830 -0.599369
O8    O     O_R   0.500110 0.384010 0.622830 -0.617687
C3    C     C_R   0.740412 0.499170 0.493885 0.925531
C4    C     C_R   0.499472 0.499961 0.660489 0.885484
C5    C     C_3   0.449745 0.638561 0.047905 0.237048
C6    C     C_3   0.401130 0.395858 0.045137 0.244832
C7    C     C_3   0.402616 0.399868 0.945977 0.245393
C8    C     C_3   0.454487 0.638946 0.948789 0.231681
H1    H     H_    0.359009 0.652812 0.923671 0.051534
H2    H     H_    0.312036 0.438219 0.922297 0.056410
H3    H     H_    0.353391 0.654252 0.065057 0.052267
H4    H     H_    0.307730 0.425297 0.063274 0.055357
C9    C     C_1   0.497229 0.500137 0.749506 -0.071032
C10   C     C_3   0.488762 0.500793 0.082774 -0.105567
C11   C     C_3   0.498422 0.501117 0.917212 -0.167131
C12   C     C_3   0.628874 0.464048 0.957465 0.493715
C13   C     C_3   0.619514 0.469496 0.057008 -0.368875
C14   C     C_1   0.496749 0.500888 0.825025 0.150876
C15   C     C_1   0.486510 0.500692 0.174668 0.111325
C16   C     C_1   0.489985 0.500524 0.250232 0.052603
H5    H     H_    0.679131 0.546655 0.084871 0.259319
H6    H     H_    0.652680 0.378213 0.089200 0.263810
C17   C     C_3   0.069541 0.609768 0.548869 0.045547
C18   C     C_3   0.072910 0.369200 0.535865 0.089230
H7    H     H_    0.096439 0.696274 0.517143 0.186089
H8    H     H_    0.110597 0.286488 0.501521 0.239866
C19   C     C_3   0.930278 0.609160 0.545963 -0.013726
C20   C     C_3   0.932523 0.365398 0.525844 -0.020739
H9    H     H_    0.898793 0.578235 0.609088 0.176534
H10   H     H_    0.895119 0.365737 0.590427 0.149704
C21   C     C_3   0.068420 0.509198 0.393765 0.197968
C22   C     C_3   0.120164 0.497776 0.493593 -0.419350
C23   C     C_3   0.876612 0.498024 0.483685 -0.370852
C24   C     C_3   0.920437 0.517881 0.386847 0.361246
C25   C     C_3   0.373011 0.086669 0.499087 0.486702
C26   C     C_3   0.371530 0.923702 0.485512 0.432824
C27   C     C_3   0.572045 0.077937 0.428003 0.015473
C28   C     C_3   0.583776 0.922966 0.434377 0.021878
C29   C     C_3   0.561852 0.077610 0.577991 0.186004
C30   C     C_3   0.545658 0.918117 0.582082 0.239239
N1    N     N_3   0.499750 0.138610 0.498180 -0.226264
N2    N     N_3   0.499750 0.861390 0.498180 -0.199916
H11   H     H_    0.520985 0.119905 0.633738 0.114314
H12   H     H_    0.478754 0.891997 0.628804 0.105262
H13   H     H_    0.665508 0.110405 0.440132 0.249177
H14   H     H_    0.676984 0.904559 0.461510 0.239562
N3    N     N_R   0.886531 0.745991 0.537539 0.253324
O9    O     O_R   0.893364 0.810239 0.466623 -0.280748
O10   O     O_R   0.892420 0.815834 0.606653 -0.351562
N4    N     N_R   0.897840 0.236003 0.491287 0.267362
O11   O     O_R   0.844852 0.219846 0.417330 -0.239823
O12   O     O_R   0.933417 0.131232 0.533076 -0.320292
N5    N     N_R   0.117059 0.627547 0.351616 0.245423
O13   O     O_R   0.156033 0.622204 0.274405 -0.251402
O14   O     O_R   0.088628 0.743673 0.378161 -0.322051
N6    N     N_R   0.112959 0.391248 0.348096 0.234857
O15   O     O_R   0.056694 0.280620 0.350688 -0.237627
O16   O     O_R   0.207343 0.395888 0.301522 -0.336279
N7    N     N_R   0.873696 0.642235 0.348569 0.270585
O17   O     O_R   0.913192 0.679615 0.275392 -0.198311
O18   O     O_R   0.760848 0.669777 0.358416 -0.314874
N8    N     N_R   0.867058 0.421849 0.326265 0.272703
O19   O     O_R   0.912817 0.410832 0.251275 -0.245394
O20   O     O_R   0.751177 0.405037 0.327550 -0.335659
N9    N     N_R   0.297692 0.143408 0.429760 0.260855
O21   O     O_R   0.183681 0.115674 0.424680 -0.325421
O22   O     O_R   0.336936 0.226347 0.375924 -0.280476
N10   N     N_R   0.322306 0.880337 0.399466 0.251514
O23   O     O_R   0.320076 0.757329 0.382159 -0.271085
O24   O     O_R   0.285334 0.955103 0.336512 -0.243337
O25   O     O_3   0.316328 0.145605 0.572249 -0.573507
C31   C     C_3   0.312499 0.094652 0.656873 -0.292569
H15   H     H_    0.365955 0.156791 0.701782 0.183487
H16   H     H_    0.334574 0.991735 0.667174 0.148570
H17   H     H_    0.219117 0.105682 0.678627 0.238743
O26   O     O_3   0.296057 0.868034 0.547448 -0.629985
C32   C     C_3   0.173165 0.912525 0.542362 -0.039711
H18   H     H_    0.129040 0.895595 0.479938 0.252112
H19   H     H_    0.155443 0.015542 0.555353 0.213434
H20   H     H_    0.124209 0.866192 0.594100 0.198824
N11   N     N_R   0.546594 0.128418 0.340613 0.278294
O27   O     O_R   0.463453 0.078657 0.290604 -0.323591
O28   O     O_R   0.631122 0.191567 0.303518 -0.240609
N12   N     N_R   0.592714 0.864542 0.348792 0.288174
O29   O     O_R   0.499402 0.830192 0.302305 -0.306594
O30   O     O_R   0.688514 0.894147 0.307542 -0.224193
O31   O     O_3   0.687776 0.107639 0.583270 -0.553992
C33   C     C_3   0.723775 0.171767 0.660109 -0.003764
H21   H     H_    0.822657 0.159412 0.670844 0.226949
H22   H     H_    0.682145 0.130804 0.717319 0.127129
H23   H     H_    0.703427 0.278148 0.655288 0.155102
O32   O     O_3   0.655710 0.855559 0.609639 -0.519940
C34   C     C_3   0.666094 0.847244 0.700083 -0.007891
H24   H     H_    0.761749 0.855703 0.722186 0.233361
H25   H     H_    0.633653 0.750916 0.721440 0.177074
H26   H     H_    0.616196 0.926133 0.733006 0.042065
O33   O     O_3   0.436424 0.269045 0.075790 -0.533004
C35   C     C_3   0.343434 0.211842 0.121559 -0.029171
H27   H     H_    0.257020 0.208538 0.083131 0.128598
H28   H     H_    0.330463 0.265371 0.182145 0.221106
H29   H     H_    0.369678 0.109371 0.137339 0.192161
O34   O     O_3   0.527292 0.735351 0.084504 -0.523647
C36   C     C_3   0.461407 0.849776 0.104579 0.027539
H30   H     H_    0.393775 0.829216 0.153175 0.181426
H31   H     H_    0.415586 0.893545 0.047025 0.110258
H32   H     H_    0.525293 0.923132 0.131546 0.240796
O35   O     O_3   0.427466 0.273378 0.912063 -0.509021
C37   C     C_3   0.320343 0.213126 0.881442 -0.195909
H33   H     H_    0.280384 0.267353 0.825416 0.193922
H34   H     H_    0.253229 0.206161 0.931939 0.166230
H35   H     H_    0.342607 0.112104 0.860690 0.150754
O36   O     O_3   0.531156 0.740116 0.921205 -0.490612
C38   C     C_3   0.466073 0.833866 0.870725 -0.217863
H36   H     H_    0.383081 0.869410 0.901506 0.135289
H37   H     H_    0.441935 0.792636 0.806888 0.151260
H38   H     H_    0.523968 0.920404 0.862584 0.203638
N13   N     N_R   0.723256 0.556687 0.932414 0.259085
O37   O     O_R   0.826229 0.556814 0.975483 -0.305721
O38   O     O_R   0.721276 0.606552 0.856022 -0.356173
N14   N     N_R   0.666320 0.331907 0.928577 0.252941
O39   O     O_R   0.699513 0.315700 0.850632 -0.389157
O40   O     O_R   0.668505 0.230171 0.978881 -0.286512
N15   N     N_R   0.121988 0.617055 0.637518 0.240139
O41   O     O_R   0.056630 0.600115 0.703733 -0.322275
O42   O     O_R   0.232741 0.654606 0.651476 -0.357790
N16   N     N_R   0.113623 0.348913 0.626381 0.247641
O43   O     O_R   0.223857 0.374329 0.652170 -0.351322
O44   O     O_R   0.049795 0.278643 0.676803 -0.399392

loop_
_geom_bond_atom_site_label_1
_geom_bond_atom_site_label_2
_geom_bond_distance
_ccdc_geom_bond_type
C5    C8    1.558823 S    
N6    O16   1.300485 A    
C32   H18   1.092443 S    
N5    O14   1.294900 A    
C1    C22   1.530776 S    
C21   C22   1.650459 S    
C18   C22   1.573749 S    
C10   C13   1.548198 S    
C28   H14   1.114457 S    
N9    O21   1.296990 A    
C29   C30   1.640022 S    
O31   C33   1.418482 S    
C38   H36   1.111975 S    
C25   C26   1.675864 S    
C11   C14   1.446467 S    
Zn1   O7    1.968753 S    
C12   C13   1.571088 S    
C30   H12   1.098052 S    
C28   N12   1.476683 S    
C17   C22   1.547750 S    
Zn1   N2    2.105061 S    
O2    C1    1.331196 A    
O4    C2    1.323670 A    
O7    C4    1.322160 A    
N10   O24   1.297369 A    
C38   H37   1.111364 S    
C25   N1    1.507366 S    
C33   H21   1.106875 S    
C26   N2    1.553429 S    
C7    H2    1.121205 S    
C35   H27   1.111750 S    
N4    O12   1.301338 A    
C8    H1    1.120886 S    
N7    O18   1.292632 A    
O5    C3    1.336870 A    
C37   H33   1.111949 S    
C6    O33   1.423571 S    
C10   C15   1.443687 S    
C6    C7    1.557763 S    
C29   N1    1.532251 S    
C30   N2    1.511363 S    
O33   C35   1.410874 S    
C12   N14   1.481519 S    
C7    O35   1.423636 S    
C36   H32   1.109207 S    
N6    O15   1.297305 A    
C6    C10   1.555476 S    
C18   C20   1.557496 S    
O32   C34   1.422142 S    
C8    C11   1.568612 S    
O3    Zn1   1.969199 S    
O34   C36   1.410596 S    
O25   C31   1.428147 S    
O2    Zn2   2.084408 S    
C13   H5    1.112645 S    
N16   O44   1.302295 A    
N11   O27   1.295197 A    
C26   N10   1.505492 S    
O26   C32   1.428121 S    
N8    O19   1.304338 A    
C38   H38   1.107849 S    
C27   N1    1.515235 S    
C11   C12   1.594339 S    
C17   C19   1.541293 S    
N4    O11   1.291601 A    
O1    C1    1.345352 A    
C37   H35   1.108414 S    
C4    C9    1.398537 S    
C19   C23   1.602411 S    
N14   O40   1.302314 A    
C23   C24   1.627159 S    
N13   O38   1.301165 A    
C15   C16   1.185238 T    
N11   O28   1.299363 A    
C27   C28   1.586561 S    
C18   N16   1.486880 S    
Zn2   O8    1.969740 S    
C24   N7    1.480847 S    
C34   H25   1.106519 S    
C9    C14   1.185688 T    
N12   O30   1.303307 A    
N9    O22   1.286620 A    
Zn2   N1    2.105249 S    
C8    O36   1.422658 S    
C20   N4    1.476959 S    
N8    O20   1.297969 A    
C5    C10   1.556602 S    
C2    C16   1.398985 S    
O8    C4    1.322629 A    
C30   O32   1.420011 S    
N12   O29   1.293650 A    
C33   H22   1.109293 S    
C32   H19   1.087122 S    
N15   O41   1.302578 A    
C21   C24   1.639404 S    
O3    C2    1.322894 A    
C21   N5    1.492563 S    
N13   O37   1.302489 A    
C31   H17   1.106288 S    
C3    C23   1.523080 S    
C27   H13   1.100400 S    
C36   H30   1.111744 S    
Zn1   O5    2.083637 S    
C6    H4    1.120950 S    
C13   H6    1.109826 S    
O1    Zn1   2.094721 S    
C27   N11   1.479828 S    
C5    O34   1.423536 S    
C25   O25   1.457107 S    
N16   O43   1.300351 A    
O6    C3    1.335975 A    
O4    Zn2   1.968210 S    
C21   N6    1.489414 S    
C33   H23   1.106887 S    
C31   H16   1.084842 S    
C35   H29   1.105997 S    
C25   N9    1.458886 S    
C7    C11   1.568911 S    
N14   O39   1.301572 A    
C20   C23   1.610389 S    
C19   H9    1.110154 S    
O35   C37   1.410952 S    
C20   H10   1.110243 S    
N10   O23   1.284074 A    
N3    O9    1.296248 A    
C5    H3    1.120361 S    
C29   H11   1.088041 S    
C17   H7    1.064174 S    
C35   H28   1.110475 S    
C24   N8    1.478449 S    
C34   H26   1.109746 S    
C18   H8    1.088984 S    
C12   N13   1.482364 S    
N7    O17   1.303545 A    
C37   H34   1.110801 S    
N3    O10   1.298477 A    
C29   O31   1.430987 S    
N5    O13   1.303568 A    
C17   N15   1.488803 S    
C28   N2    1.533349 S    
Zn2   O6    2.093950 S    
C31   H15   1.107645 S    
C32   H20   1.103408 S    
C34   H24   1.106081 S    
N15   O42   1.300178 A    
C26   O26   1.428912 S    
O36   C38   1.412735 S    
C19   N3    1.474970 S    
C36   H31   1.108837 S    
