data_mof_unit_57614.cif
_audit_creation_date              2012-12-11T16:29:34-0500
_audit_creation_method            fapswitch 2.2
_symmetry_space_group_name_H-M    P1
_symmetry_Int_Tables_number       1
_space_group_crystal_system       triclinic
_cell_length_a                    6.952624
_cell_length_b                    17.302361
_cell_length_c                    18.791361
_cell_angle_alpha                 106.296
_cell_angle_beta                  89.51058
_cell_angle_gamma                 90.292947
_cell_volume                      2169.63545743

loop_
_atom_site_label
_atom_site_type_symbol
_atom_type_description
_atom_site_fract_x
_atom_site_fract_y
_atom_site_fract_z
_atom_type_partial_charge
O1    O     O_R   0.494360 0.415680 0.413760 -0.537530
O2    O     O_R   0.818810 0.432910 0.557230 -0.534661
O3    O     O_R   0.994290 0.584320 0.586240 -0.540261
C1    C     C_R   0.649832 0.415985 0.580652 0.687316
O4    O     O_R   0.823740 0.406440 0.412520 -0.515640
O5    O     O_R   0.999250 0.557660 0.440500 -0.493157
C2    C     C_R   0.655283 0.384163 0.384437 0.832080
O6    O     O_R   0.489400 0.442340 0.559500 -0.529091
O7    O     O_3   0.662500 0.549650 0.509350 -0.353748
V1    V     V_3+5 0.935340 0.490790 0.498270 1.487319
O8    O     O_R   0.329270 0.567090 0.442770 -0.525652
C3    C     C_R   0.161172 0.584083 0.419422 0.746973
O9    O     O_R   0.324340 0.593560 0.587480 -0.537688
C4    C     C_R   0.154222 0.617030 0.614352 0.679337
V2    V     V_3+5 0.435970 0.509210 0.501730 1.466764
O10   O     O_3   0.158940 0.450350 0.490650 -0.369238
H1    H     H_    0.185931 0.877000 0.557388 0.114180
C5    C     C_R   0.082973 0.587980 0.755634 -0.148175
C6    C     C_R   0.075994 0.569939 0.823114 -0.123841
C7    C     C_R   0.120340 0.628889 0.887867 -0.125047
C8    C     C_R   0.159776 0.707801 0.886374 -0.049042
C9    C     C_R   0.133670 0.730669 0.819931 0.028120
C10   C     C_R   0.116840 0.667661 0.752510 0.066560
C11   C     C_R   0.129029 0.812580 0.817771 -0.185112
C12   C     C_R   0.139518 0.829490 0.748058 0.070325
C13   C     C_R   0.151388 0.765427 0.681185 0.068147
C14   C     C_R   0.140155 0.684506 0.683518 -0.170772
C15   C     C_R   0.142373 0.909790 0.743489 -0.139923
C16   C     C_R   0.159011 0.926352 0.675262 -0.121278
C17   C     C_R   0.172904 0.863767 0.610215 -0.116362
C18   C     C_R   0.168874 0.784089 0.612810 -0.131006
H2    H     H_    0.061305 0.538764 0.706106 0.108494
H3    H     H_    0.049520 0.508679 0.824573 0.136272
H4    H     H_    0.136926 0.611512 0.938606 0.130590
H5    H     H_    0.133115 0.960669 0.792457 0.101623
H6    H     H_    0.161650 0.988148 0.672898 0.117149
H7    H     H_    0.178043 0.737399 0.560695 0.082784
C19   C     C_1   0.110970 0.865076 0.133669 -0.184071
C20   C     C_1   0.118445 0.822424 0.177160 0.007367
C21   C     C_1   0.127958 0.771984 0.228852 0.003409
C22   C     C_1   0.136112 0.729478 0.272463 0.004403
C23   C     C_1   0.145673 0.679010 0.324132 0.016023
C24   C     C_1   0.153294 0.636252 0.367532 -0.162391
C25   C     C_1   0.641311 0.364157 0.632778 -0.211286
C26   C     C_1   0.637225 0.321663 0.676436 -0.002245
C27   C     C_1   0.633965 0.271509 0.728401 0.002646
C28   C     C_1   0.631516 0.229215 0.772242 0.012527
C29   C     C_1   0.628152 0.178945 0.824103 0.016819
C30   C     C_1   0.623924 0.136272 0.867601 -0.206635
H8    H     H_    0.381165 0.147264 0.441373 0.113008
C31   C     C_R   0.779829 0.401571 0.239418 0.580856
C32   C     C_R   0.842284 0.409720 0.171194 -0.208208
C33   C     C_R   0.832985 0.344992 0.107745 -0.079543
C34   C     C_R   0.759823 0.271319 0.112053 -0.183533
C35   C     C_R   0.697010 0.260419 0.180458 0.001888
C36   C     C_R   0.708412 0.326542 0.246003 -0.047881
C37   C     C_R   0.619523 0.185366 0.183555 -0.143647
C38   C     C_R   0.553636 0.175981 0.252212 0.076183
C39   C     C_R   0.567333 0.241189 0.318003 0.054367
C40   C     C_R   0.644981 0.316392 0.315198 -0.192125
C41   C     C_R   0.476903 0.101626 0.257048 -0.150237
C42   C     C_R   0.414439 0.091893 0.324627 -0.120541
C43   C     C_R   0.428591 0.155300 0.388880 -0.112538
C44   C     C_R   0.504775 0.228992 0.386009 -0.140632
H9    H     H_    0.896553 0.467450 0.167846 0.153601
H10   H     H_    0.751140 0.223027 0.061043 0.119750
H11   H     H_    0.465103 0.050002 0.208910 0.104691
H12   H     H_    0.355899 0.034625 0.327190 0.116085
H13   H     H_    0.514865 0.275881 0.437855 0.088220
O11   O     O_R   0.775690 0.057750 0.940570 -0.525808
O12   O     O_R   0.441200 0.093570 0.087490 -0.538104
O13   O     O_R   0.265840 0.942320 0.059480 -0.511588
C45   C     C_R   0.609645 0.116356 0.115209 0.687567
O14   O     O_R   0.446270 0.067110 0.942790 -0.526750
O15   O     O_R   0.270950 0.915660 0.913750 -0.527766
C46   C     C_R   0.615282 0.084187 0.919497 0.706499
O16   O     O_R   0.770580 0.084400 0.086300 -0.536569
O17   O     O_3   0.602640 0.950400 0.990690 -0.344944
V3    V     V_3+5 0.329740 0.009200 0.001730 1.453776
O18   O     O_R   0.940900 0.906360 0.912450 -0.533254
C47   C     C_R   0.111809 0.880809 0.886956 0.706888
O19   O     O_R   0.935830 0.932820 0.057160 -0.527611
C48   C     C_R   0.103561 0.916877 0.081413 0.729936
V4    V     V_3+5 0.829130 0.990680 0.998180 1.449192
O20   O     O_3   0.106100 0.049590 0.009310 -0.364929
F1    F     F_    0.786612 0.468743 0.297730 -0.704547
C49   C     C_1   0.896046 0.354451 0.037435 0.328168
N1    N     N_1   0.946623 0.361980 0.980918 -0.352919
C50   C     C_1   0.278407 0.753825 0.945775 0.259380
N2    N     N_1   0.380162 0.787743 0.992621 -0.329753

loop_
_geom_bond_atom_site_label_1
_geom_bond_atom_site_label_2
_ccdc_geom_bond_type
C39   C40   A    
C35   C36   A    
H8    C43   S    
C19   C48   S    
C22   C23   S    
C6    C7    A    
O18   V4    S    
O12   V3    S    
C8    C50   S    
C33   C34   A    
C25   C26   T    
C12   C15   A    
C16   H6    S    
C39   C44   A    
C16   C17   A    
O14   C46   A    
C15   C16   A    
C5    C6    A    
O13   V3    S    
O5    C3    A    
C17   C18   A    
V2    O10   S    
C31   C36   A    
C37   C45   S    
C27   C28   T    
O8    V2    S    
C15   H5    S    
O1    V2    S    
C10   C14   A    
C4    C14   S    
O11   V4    S    
O7    V1    S    
C1    O6    A    
C7    H4    S    
C38   C41   A    
C13   C18   A    
C8    C9    A    
H1    C17   S    
C31   F1    S    
C5    C10   A    
C11   C12   A    
C6    H3    S    
C20   C21   S    
O4    C2    A    
O17   V3    S    
O15   C47   A    
C1    C25   S    
O16   V4    S    
C38   C39   A    
C26   C27   S    
C36   C40   A    
C18   H7    S    
O2    C1    A    
C11   C47   S    
C42   C43   A    
C41   H11   S    
C28   C29   S    
C13   C14   A    
C30   C46   S    
C33   C49   S    
C44   H13   S    
V4    O20   S    
O3    C4    A    
C29   C30   T    
O6    V2    S    
O19   V4    S    
O14   V3    S    
C35   C37   A    
O11   C46   A    
C9    C11   A    
C5    H2    S    
C23   C24   T    
O2    V1    S    
C2    C40   S    
V3    O20   S    
C32   C33   A    
O12   C45   A    
C34   C35   A    
C21   C22   T    
O1    C2    A    
O18   C47   A    
O5    V1    S    
O8    C3    A    
C34   H10   S    
C3    C24   S    
C42   H12   S    
O9    V2    S    
C12   C13   A    
C31   C32   A    
O3    V1    S    
V1    O10   S    
C37   C38   A    
C19   C20   T    
O7    V2    S    
C41   C42   A    
O13   C48   A    
C43   C44   A    
O17   V4    S    
O4    V1    S    
C7    C8    A    
C49   N1    T    
O19   C48   A    
C45   O16   A    
C9    C10   A    
C50   N2    T    
O9    C4    A    
O15   V3    S    
C32   H9    S    
