data_mof_unit_54206.cif
_audit_creation_date              2012-12-11T15:54:37-0500
_audit_creation_method            fapswitch 2.2
_symmetry_space_group_name_H-M    P1
_symmetry_Int_Tables_number       1
_space_group_crystal_system       triclinic
_cell_length_a                    6.97152
_cell_length_b                    14.702889
_cell_length_c                    15.952414
_cell_angle_alpha                 90.174481
_cell_angle_beta                  88.953057
_cell_angle_gamma                 90.597892
_cell_volume                      1634.77747361

loop_
_atom_site_label
_atom_site_type_symbol
_atom_type_description
_atom_site_fract_x
_atom_site_fract_y
_atom_site_fract_z
_atom_type_partial_charge
O1    O     O_R   0.638180 0.333920 0.163320 -0.517066
O2    O     O_R   0.361820 0.666080 0.836680 -0.528361
O3    O     O_R   0.308470 0.344960 0.336080 -0.539987
O4    O     O_R   0.691530 0.655040 0.663920 -0.530016
O5    O     O_R   0.138140 0.166110 0.336680 -0.534219
O6    O     O_R   0.861860 0.833890 0.663320 -0.531842
C1    C     C_R   0.477247 0.368280 0.363940 0.718061
C2    C     C_R   0.522848 0.632049 0.635744 0.767552
O7    O     O_R   0.308460 0.344950 0.163930 -0.530710
O8    O     O_R   0.691540 0.655050 0.836070 -0.543236
O9    O     O_R   0.138140 0.166100 0.163310 -0.542873
O10   O     O_R   0.861860 0.833900 0.836690 -0.554969
C3    C     C_R   0.480776 0.368468 0.136160 0.740427
C4    C     C_R   0.522061 0.637455 0.868562 0.746345
O11   O     O_R   0.638180 0.333930 0.336700 -0.520942
O12   O     O_R   0.361820 0.666070 0.663300 -0.514974
O13   O     O_3   0.471670 0.191340 0.250000 -0.384200
O14   O     O_3   0.528330 0.808660 0.750000 -0.386419
V1    V     V_3+5 0.196830 0.260900 0.250000 1.526547
V2    V     V_3+5 0.803170 0.739100 0.750000 1.506861
O15   O     O_R   0.808420 0.155070 0.163920 -0.547782
O16   O     O_R   0.191580 0.844930 0.836080 -0.556448
C5    C     C_R   0.977843 0.133123 0.134874 0.702487
C6    C     C_R   0.022048 0.868223 0.863932 0.656076
O17   O     O_R   0.808420 0.155080 0.336070 -0.532507
O18   O     O_R   0.191580 0.844920 0.663930 -0.530434
C7    C     C_R   0.975115 0.134814 0.366298 0.762939
C8    C     C_R   0.024954 0.865215 0.633760 0.773101
V3    V     V_3+5 0.696830 0.239130 0.250000 1.524014
V4    V     V_3+5 0.303170 0.760870 0.750000 1.496423
O19   O     O_3   0.971850 0.308690 0.250010 -0.343237
O20   O     O_3   0.028150 0.691310 0.749990 -0.343148
H1    H     H_    0.865661 0.837703 0.247657 0.150641
H2    H     H_    0.153711 0.160986 0.750590 0.177857
C9    C     C_R   0.018259 0.188253 0.548345 0.169153
C10   C     C_R   0.990367 0.811586 0.451378 0.196392
C11   C     C_R   0.074435 0.210966 0.630223 0.342044
C12   C     C_R   0.941862 0.788464 0.368703 0.332400
C13   C     C_R   0.112965 0.143333 0.687348 -0.170213
C14   C     C_R   0.901604 0.855735 0.311395 -0.208572
C15   C     C_R   0.092490 0.052823 0.665358 -0.219084
C16   C     C_R   0.914664 0.946492 0.333981 -0.206027
C17   C     C_R   0.043214 0.026239 0.583075 0.035054
C18   C     C_R   0.960066 0.973436 0.416658 0.035813
C19   C     C_R   0.014280 0.094880 0.521215 -0.017618
C20   C     C_R   0.989319 0.904900 0.478605 -0.024096
C21   C     C_R   0.022013 0.932344 0.563421 -0.124511
C22   C     C_R   0.978802 0.067510 0.436536 -0.122000
H3    H     H_    0.118441 0.004090 0.714322 0.125559
H4    H     H_    0.887869 0.995150 0.285032 0.115478
C23   C     C_R   0.178493 0.972235 0.968630 -0.158238
C24   C     C_R   0.821345 0.031486 0.028114 -0.144289
H5    H     H_    0.318603 0.949889 0.947245 0.114526
H6    H     H_    0.681210 0.053400 0.049871 0.119224
C25   C     C_R   0.167727 0.035172 0.034511 -0.135124
C26   C     C_R   0.832100 0.968726 0.962063 -0.149237
H7    H     H_    0.299969 0.059810 0.061444 0.118962
H8    H     H_    0.699882 0.943727 0.935376 0.115463
C27   C     C_R   0.989012 0.065484 0.065348 -0.043536
C28   C     C_R   0.010828 0.937866 0.931703 -0.033050
C29   C     C_R   0.323615 0.461507 0.478989 -0.079696
C30   C     C_R   0.676546 0.539603 0.519977 -0.072473
H9    H     H_    0.185229 0.432824 0.464180 0.177514
H10   H     H_    0.814845 0.568465 0.534679 0.179947
C31   C     C_R   0.336188 0.522178 0.546468 -0.024231
C32   C     C_R   0.664065 0.478708 0.452619 -0.049069
H11   H     H_    0.207074 0.536871 0.582494 0.178178
H12   H     H_    0.793219 0.463787 0.416694 0.175322
C33   C     C_R   0.512390 0.563187 0.567196 -0.076195
C34   C     C_R   0.487832 0.437620 0.432016 -0.082309
C35   C     C_R   0.341996 0.498842 0.057646 0.124266
C36   C     C_R   0.683583 0.551968 0.985819 0.057284
C37   C     C_R   0.339772 0.542259 0.977975 0.181111
C38   C     C_R   0.677238 0.471360 0.035251 0.228602
C39   C     C_R   0.513876 0.578277 0.945519 -0.175803
C40   C     C_R   0.499438 0.443064 0.072391 -0.152248
Br1   Br    Br    0.188722 0.484607 0.892838 -0.439694
Br2   Br    Br    0.905590 0.400368 0.046361 -0.500343
Br3   Br    Br    0.919345 0.287440 0.484766 -0.557915
Br4   Br    Br    0.085329 0.712775 0.516530 -0.564849
Br5   Br    Br    0.094485 0.334475 0.669552 -0.444260
Br6   Br    Br    0.936798 0.664733 0.329103 -0.636938
C41   C     C_3   0.252958 0.543757 0.136125 -0.320840
C42   C     C_3   0.348280 0.634874 0.159256 -0.399629
C43   C     C_3   0.531219 0.622799 0.209072 -0.647957
H13   H     H_    0.640739 0.584656 0.172659 0.230188
H14   H     H_    0.499171 0.586099 0.268566 0.243788
H15   H     H_    0.591094 0.690903 0.224585 0.242624
H16   H     H_    0.248372 0.673637 0.200307 0.245019
H17   H     H_    0.376647 0.676463 0.102399 0.182427
H18   H     H_    0.097892 0.552834 0.131607 0.185344
H19   H     H_    0.260635 0.499752 0.192079 0.197821
C44   C     C_3   0.857100 0.615252 0.986854 -0.283971
C45   C     C_3   0.805632 0.709899 0.021959 -0.378128
C46   C     C_3   0.977305 0.758019 0.060342 -0.774961
H20   H     H_    0.013721 0.723419 0.119168 0.243467
H21   H     H_    0.102553 0.758014 0.016314 0.221827
H22   H     H_    0.939525 0.829054 0.076672 0.231168
H23   H     H_    0.747596 0.752882 0.971714 0.195828
H24   H     H_    0.693248 0.704279 0.071303 0.208237
H25   H     H_    0.966257 0.585809 0.025183 0.203272
H26   H     H_    0.929039 0.622194 0.925054 0.227836

loop_
_geom_bond_atom_site_label_1
_geom_bond_atom_site_label_2
_ccdc_geom_bond_type
C7    C22   S    
C29   C34   A    
C32   H12   S    
C8    C21   S    
C44   C45   S    
C25   C27   A    
O13   V3    S    
C46   H20   S    
O4    C2    A    
V1    O19   S    
C1    C34   S    
C46   H22   S    
C13   C15   A    
C43   H13   S    
C5    C27   S    
C41   H19   S    
O9    V1    S    
C2    C33   S    
C42   H17   S    
C9    C11   A    
O3    C1    A    
C35   C40   A    
C43   H15   S    
O12   V4    S    
O9    C5    A    
C29   H9    S    
O7    C3    A    
C30   H10   S    
O5    C7    A    
O7    V1    S    
O6    C8    A    
O8    V2    S    
C31   H11   S    
O3    V1    S    
O14   V4    S    
V4    O20   S    
C23   C25   A    
C24   H6    S    
C14   C16   A    
C2    O12   A    
C12   Br6   S    
C15   C17   A    
C11   Br5   S    
C16   C18   A    
C36   C39   A    
C15   H3    S    
C18   C20   A    
O11   V3    S    
C35   C41   S    
C43   H14   S    
O17   V3    S    
H1    C14   S    
C30   C32   A    
H2    C13   S    
C42   C43   S    
C36   C38   A    
C10   Br4   S    
C44   H25   S    
C35   C37   A    
C1    O11   A    
O15   V3    S    
C26   C28   A    
C30   C33   A    
C23   H5    S    
C24   C27   A    
C41   C42   S    
C3    C40   S    
C45   H24   S    
C6    C28   S    
O10   V2    S    
O1    V3    S    
C10   C20   A    
C17   C19   A    
C38   C40   A    
C16   H4    S    
C36   C44   S    
O18   V4    S    
C25   H7    S    
O8    C4    A    
O16   C6    A    
O1    C3    A    
C42   H16   S    
C37   C39   A    
C10   C12   A    
C9    C19   A    
C41   H18   S    
V2    O20   S    
C19   C22   A    
C20   C21   A    
O16   V4    S    
C44   H26   S    
C46   H21   S    
O5    V1    S    
O17   C7    A    
O6    V2    S    
O10   C6    A    
O18   C8    A    
O2    V4    S    
C4    C39   S    
O15   C5    A    
V3    O19   S    
C18   C22   A    
C12   C14   A    
C32   C34   A    
C45   H23   S    
C31   C33   A    
C9    Br3   S    
O13   V1    S    
C26   H8    S    
O14   V2    S    
C45   C46   S    
O2    C4    A    
O4    V2    S    
C29   C31   A    
C11   C13   A    
C38   Br2   S    
C37   Br1   S    
C23   C28   A    
C17   C21   A    
C24   C26   A    
