data_mof_unit_12495.cif
_audit_creation_date              2012-12-10T19:48:43-0500
_audit_creation_method            fapswitch 2.2
_symmetry_space_group_name_H-M    P1
_symmetry_Int_Tables_number       1
_space_group_crystal_system       triclinic
_cell_length_a                    25.913421
_cell_length_b                    25.918081
_cell_length_c                    22.235371
_cell_angle_alpha                 89.776415
_cell_angle_beta                  54.28753
_cell_angle_gamma                 90.077647
_cell_volume                      12125.4282098

loop_
_atom_site_label
_atom_site_type_symbol
_atom_type_description
_atom_site_fract_x
_atom_site_fract_y
_atom_site_fract_z
_atom_type_partial_charge
C1    C     C_R   0.849289 0.750012 0.301242 0.559001
C2    C     C_R   0.448498 0.253354 0.494251 0.016780
C3    C     C_R   0.293257 0.974161 0.441869 -0.017854
C4    C     C_R   0.750460 0.553680 0.507931 -0.040546
C5    C     C_R   0.753661 0.445415 0.506157 -0.032750
C6    C     C_R   0.250465 0.053680 0.507928 -0.040650
C7    C     C_R   0.253662 0.945415 0.506153 -0.032743
C8    C     C_R   0.713822 0.525650 0.576866 0.211829
C9    C     C_R   0.721623 0.470888 0.575323 0.217239
C10   C     C_R   0.213860 0.025652 0.576866 0.211684
C11   C     C_R   0.221655 0.970888 0.575318 0.217243
C12   C     C_3   0.810839 0.470836 0.364465 -0.061137
C13   C     C_R   0.944133 0.253220 0.503508 -0.014133
C14   C     C_3   0.811340 0.531117 0.364971 -0.076961
C15   C     C_3   0.310785 0.970836 0.364470 -0.061186
C16   C     C_3   0.311286 0.031116 0.364975 -0.076950
C17   C     C_R   0.749216 0.889942 0.500450 0.586148
C18   C     C_R   0.747786 0.109957 0.502254 0.616914
C19   C     C_R   0.249219 0.389942 0.500447 0.586170
C20   C     C_R   0.247787 0.609957 0.502253 0.616906
C21   C     C_R   0.890453 0.750713 0.499001 0.529473
C22   C     C_R   0.889960 0.250279 0.500306 0.508198
C23   C     C_R   0.390446 0.250705 0.499010 0.529397
C24   C     C_R   0.948523 0.753394 0.494200 0.016612
C25   C     C_R   0.389953 0.750291 0.500320 0.507800
C26   C     C_R   0.609904 0.750072 0.500070 0.536314
C27   C     C_R   0.610321 0.250362 0.499371 0.516722
C28   C     C_R   0.109906 0.250073 0.500068 0.536278
C29   C     C_R   0.110338 0.750380 0.499340 0.516424
C30   C     C_R   0.557672 0.748016 0.437517 -0.031152
C31   C     C_R   0.528672 0.206916 0.494505 -0.012766
C32   C     C_R   0.057678 0.247934 0.437514 -0.031014
C33   C     C_R   0.028974 0.706963 0.493905 -0.012830
C34   C     C_R   0.552571 0.752894 0.503189 -0.005195
C35   C     C_R   0.504567 0.748781 0.437708 -0.008049
C36   C     C_R   0.556630 0.252774 0.495177 -0.025443
C37   C     C_R   0.052579 0.252896 0.503175 -0.005182
C38   C     C_R   0.056679 0.752814 0.495088 -0.025580
C39   C     C_R   0.492540 0.763788 0.570127 -0.000104
C40   C     C_R   0.536116 0.300234 0.483238 -0.000723
C41   C     C_R   0.992562 0.263891 0.570075 -0.000255
C42   C     C_R   0.035933 0.800328 0.483601 -0.000563
C43   C     C_2   0.488071 0.771036 0.639419 0.337154
C44   C     C_2   0.575492 0.347729 0.463960 0.311450
C45   C     C_2   0.988100 0.271354 0.639337 0.336465
C46   C     C_R   0.475730 0.207584 0.495047 -0.035038
C47   C     C_2   0.075097 0.847916 0.464694 0.311415
C48   C     C_2   0.552607 0.850563 0.915422 0.338284
C49   C     C_2   0.489707 0.162900 0.926544 0.331840
C50   C     C_2   0.052922 0.350543 0.915427 0.338259
C51   C     C_2   0.989715 0.662904 0.926545 0.331815
C52   C     C_2   0.459398 0.847958 0.075188 0.405911
C53   C     C_2   0.418768 0.158154 0.081106 0.331978
C54   C     C_2   0.959706 0.347972 0.075196 0.405915
C55   C     C_2   0.918775 0.658158 0.081106 0.332003
C56   C     C_2   0.466554 0.651217 0.085392 0.307521
C57   C     C_R   0.004582 0.248702 0.437686 -0.007985
C58   C     C_2   0.511596 0.333801 0.081552 0.337012
C59   C     C_2   0.966282 0.151190 0.085378 0.307553
C60   C     C_2   0.011602 0.833807 0.081553 0.337023
C61   C     C_2   0.548988 0.698195 0.080742 0.402439
C62   C     C_2   0.564205 0.258765 0.078777 0.387781
C63   C     C_2   0.048851 0.197934 0.080733 0.402351
C64   C     C_2   0.064212 0.758770 0.078778 0.387798
C65   C     C_2   0.374752 0.782539 0.636051 0.338062
C66   C     C_2   0.452978 0.349685 0.479818 0.351321
C67   C     C_2   0.874790 0.282535 0.635961 0.338189
C68   C     C_R   0.976012 0.707631 0.494505 -0.034978
C69   C     C_2   0.952580 0.849792 0.480621 0.351409
C70   C     C_2   0.793545 0.056958 0.324960 0.280257
C71   C     C_2   0.797647 0.945556 0.321631 0.217501
C72   C     C_2   0.293640 0.556948 0.324898 0.280373
C73   C     C_2   0.297742 0.445545 0.321588 0.217418
C74   C     C_2   0.884047 0.057579 0.338427 0.319168
C75   C     C_2   0.886003 0.946976 0.337041 0.283876
C76   C     C_2   0.384078 0.557577 0.338477 0.319142
C77   C     C_2   0.386040 0.446978 0.337098 0.283832
C78   C     C_2   0.875245 0.446063 0.310324 0.334698
C79   C     C_3   0.530335 0.709937 0.377083 0.115234
C80   C     C_2   0.876289 0.555751 0.311211 0.343917
C81   C     C_2   0.375185 0.946061 0.310304 0.334711
C82   C     C_2   0.376231 0.055750 0.311188 0.343896
C83   C     C_2   0.758474 0.446006 0.362960 0.216954
C84   C     C_2   0.759983 0.556907 0.362545 0.253322
C85   C     C_2   0.258401 0.946004 0.363002 0.216918
C86   C     C_2   0.259909 0.056907 0.362589 0.253438
C87   C     C_2   0.362636 0.774437 0.081644 0.344724
C88   C     C_2   0.362174 0.258513 0.081762 0.193337
C89   C     C_2   0.862725 0.274739 0.081644 0.344688
C90   C     C_3   0.449779 0.157721 0.536800 0.122200
C91   C     C_2   0.862181 0.758518 0.081762 0.193340
C92   C     C_2   0.453694 0.792842 0.919467 0.214326
C93   C     C_2   0.440403 0.264858 0.919632 0.265265
C94   C     C_2   0.953834 0.293118 0.919470 0.214325
C95   C     C_2   0.940409 0.764863 0.919634 0.265186
C96   C     C_2   0.628520 0.806432 0.918075 0.369296
C97   C     C_2   0.585370 0.155318 0.919663 0.417092
C98   C     C_2   0.128702 0.306176 0.918075 0.369286
C99   C     C_2   0.085378 0.655324 0.919664 0.417051
C100  C     C_3   0.030333 0.209810 0.377123 0.115075
C101  C     C_R   0.849528 0.250019 0.301207 0.561421
C102  C     C_3   0.950409 0.657492 0.535560 0.122340
C103  C     C_3   0.590287 0.708514 0.376628 0.338774
C104  C     C_3   0.510612 0.155895 0.535006 0.347290
C105  C     C_3   0.090274 0.208386 0.376694 0.338667
C106  C     C_3   0.011313 0.655646 0.533625 0.347188
C107  C     C_3   0.470075 0.752009 0.955656 -0.155771
C108  C     C_3   0.474379 0.275046 0.956172 -0.157144
C109  C     C_3   0.970093 0.252178 0.955655 -0.155781
C110  C     C_3   0.974386 0.775051 0.956173 -0.157076
C111  C     C_3   0.557360 0.802563 0.952883 -0.058628
C112  C     C_R   0.349288 0.250011 0.301242 0.558993
C113  C     C_3   0.525377 0.188570 0.955130 -0.079190
C114  C     C_3   0.057530 0.302470 0.952884 -0.058655
C115  C     C_3   0.025384 0.688575 0.955131 -0.079163
C116  C     C_3   0.509027 0.804216 0.043635 0.156137
C117  C     C_3   0.482319 0.187350 0.045791 0.111907
C118  C     C_3   0.009204 0.304129 0.043637 0.156151
C119  C     C_3   0.982326 0.687354 0.045792 0.111889
C120  C     C_1   0.389886 0.749821 0.222388 0.143607
C121  C     C_1   0.388848 0.249766 0.222417 0.106209
C122  C     C_1   0.889894 0.249815 0.222387 0.143511
C123  C     C_R   0.349527 0.750020 0.301207 0.561440
C124  C     C_1   0.888852 0.749769 0.222418 0.106223
C125  C     C_3   0.542477 0.750095 0.925950 -0.124762
C126  C     C_3   0.540335 0.248203 0.925900 -0.050718
C127  C     C_3   0.042489 0.250090 0.925948 -0.124760
C128  C     C_3   0.040342 0.748208 0.925901 -0.050710
C129  C     C_R   0.650595 0.749935 0.698804 0.549733
C130  C     C_R   0.650608 0.249832 0.698755 0.569215
C131  C     C_R   0.150594 0.249937 0.698804 0.549458
C132  C     C_R   0.150609 0.749833 0.698755 0.568960
C133  C     C_3   0.426414 0.746771 0.042228 -0.108159
C134  C     C_R   0.437625 0.765510 0.569848 -0.001618
C135  C     C_3   0.431681 0.274108 0.042947 -0.201312
C136  C     C_3   0.926418 0.246938 0.042226 -0.108178
C137  C     C_3   0.931688 0.774113 0.042948 -0.201311
C138  C     C_3   0.468068 0.750706 0.073924 -0.123869
C139  C     C_3   0.467016 0.246664 0.073956 -0.095727
C140  C     C_3   0.968085 0.250696 0.073922 -0.123884
C141  C     C_3   0.967023 0.746669 0.073957 -0.095735
C142  C     C_3   0.511047 0.699184 0.047602 -0.069979
C143  C     C_3   0.530470 0.279984 0.045642 -0.041177
C144  C     C_3   0.010912 0.199084 0.047594 -0.069973
C145  C     C_R   0.480060 0.300676 0.485080 -0.006438
C146  C     C_3   0.030477 0.779990 0.045643 -0.041196
C147  C     C_3   0.554306 0.696791 0.956921 0.350579
C148  C     C_3   0.574537 0.283242 0.954843 0.311028
C149  C     C_3   0.054159 0.196701 0.956913 0.350628
C150  C     C_3   0.074544 0.783247 0.954844 0.310956
C151  C     C_1   0.424686 0.750219 0.155921 0.005673
C152  C     C_1   0.423483 0.248536 0.155980 -0.015162
C153  C     C_1   0.924700 0.250211 0.155919 0.005561
C154  C     C_1   0.923489 0.748541 0.155980 -0.015161
C155  C     C_1   0.580883 0.748956 0.844105 -0.033784
C156  C     C_R   0.937656 0.265536 0.569782 -0.001512
C157  C     C_1   0.579453 0.249389 0.844104 0.169151
C158  C     C_1   0.080888 0.248959 0.844104 -0.033776
C159  C     C_1   0.079459 0.749393 0.844104 0.169168
C160  C     C_1   0.612173 0.749168 0.777640 0.100757
C161  C     C_1   0.611556 0.249715 0.777572 0.208285
C162  C     C_1   0.112174 0.249172 0.777639 0.100701
C163  C     C_1   0.111560 0.749718 0.777572 0.208281
C164  C     C_R   0.775271 0.974528 0.441851 -0.059915
C165  C     C_R   0.774082 0.026352 0.442729 -0.053261
C166  C     C_R   0.275282 0.474528 0.441845 -0.059902
C167  C     C_R   0.979868 0.800758 0.485460 -0.006408
C168  C     C_R   0.274087 0.526352 0.442721 -0.052898
C169  C     C_R   0.741714 0.945189 0.505917 0.004057
C170  C     C_R   0.742250 0.054194 0.507792 0.033247
C171  C     C_R   0.241721 0.445189 0.505910 0.004117
C172  C     C_R   0.242256 0.554194 0.507787 0.033362
C173  C     C_R   0.700583 0.970989 0.574706 0.176108
C174  C     C_R   0.705122 0.026317 0.576758 0.213804
C175  C     C_R   0.200590 0.470988 0.574698 0.176084
C176  C     C_R   0.205135 0.526315 0.576753 0.213726
C177  C     C_R   0.749863 0.609768 0.502062 0.567497
C178  C     C_R   0.444115 0.753256 0.503542 -0.014266
C179  C     C_R   0.750503 0.390028 0.500343 0.550369
C180  C     C_R   0.249864 0.109768 0.502062 0.567480
C181  C     C_R   0.250502 0.890028 0.500341 0.550427
C182  C     C_3   0.822514 0.031878 0.360461 -0.023148
C183  C     C_3   0.823928 0.971186 0.359428 -0.031918
C184  C     C_3   0.322560 0.531875 0.360459 -0.023186
C185  C     C_3   0.323978 0.471183 0.359430 -0.032034
C186  C     C_R   0.793406 0.526837 0.442925 -0.014921
C187  C     C_R   0.793278 0.474161 0.441879 -0.017782
C188  C     C_R   0.293387 0.026837 0.442913 -0.014978
H1    H     H_    0.460749 0.718093 0.934171 0.199145
H2    H     H_    0.448428 0.127977 0.501854 0.178393
H3    H     H_    0.001733 0.173623 0.397763 0.131189
H4    H     H_    0.949195 0.628003 0.500235 0.178550
H5    H     H_    0.526473 0.789854 0.637463 0.100168
H6    H     H_    0.599061 0.356051 0.490073 0.128533
H7    H     H_    0.026671 0.289973 0.637234 0.100397
H8    H     H_    0.098609 0.856183 0.490886 0.128995
H9    H     H_    0.552052 0.847323 0.867285 0.127166
H10   H     H_    0.439352 0.169195 0.954473 0.207306
H11   H     H_    0.052353 0.347381 0.867291 0.127245
H12   H     H_    0.484310 0.315671 0.939927 0.199623
H13   H     H_    0.939360 0.669200 0.954473 0.207299
H14   H     H_    0.436362 0.859743 0.132328 0.166008
H15   H     H_    0.375427 0.172321 0.130799 0.169132
H16   H     H_    0.936700 0.359732 0.132340 0.165993
H17   H     H_    0.875434 0.672325 0.130799 0.169132
H18   H     H_    0.634129 0.803148 0.080867 0.401081
H19   H     H_    0.602863 0.135339 0.075341 0.402954
H20   H     H_    0.134341 0.302665 0.080806 0.401154
H21   H     H_    0.102869 0.635349 0.075348 0.403002
H22   H     H_    0.458316 0.602303 0.926354 0.396495
H23   H     H_    0.960664 0.218323 0.934168 0.199110
H24   H     H_    0.528205 0.420620 0.945121 0.405501
H25   H     H_    0.957872 0.102568 0.926345 0.396566
H26   H     H_    0.028211 0.920625 0.945121 0.405557
H27   H     H_    0.697812 0.619211 0.900341 0.404669
H28   H     H_    0.737754 0.297448 0.906376 0.400942
H29   H     H_    0.197434 0.118761 0.900283 0.404705
H30   H     H_    0.237763 0.797457 0.906369 0.401032
H31   H     H_    0.435876 0.637833 0.070898 0.190078
H32   H     H_    0.462578 0.346387 0.115715 0.124525
H33   H     H_    0.935526 0.137943 0.070925 0.190022
H34   H     H_    0.984317 0.815676 0.939928 0.199624
H35   H     H_    0.962584 0.846391 0.115717 0.124503
H36   H     H_    0.535382 0.722596 0.126884 0.172535
H37   H     H_    0.614247 0.251276 0.046639 0.225990
H38   H     H_    0.035311 0.222300 0.126882 0.172463
H39   H     H_    0.114255 0.751284 0.046640 0.225998
H40   H     H_    0.606909 0.885948 0.601432 0.332202
H41   H     H_    0.708460 0.111402 0.704468 0.395923
H42   H     H_    0.106891 0.386001 0.601394 0.332265
H43   H     H_    0.208508 0.611209 0.704646 0.396001
H44   H     H_    0.330970 0.766897 0.647719 0.146602
H45   H     H_    0.407618 0.707257 0.052528 0.105072
H46   H     H_    0.429123 0.350261 0.452782 0.132624
H47   H     H_    0.831049 0.266329 0.648178 0.146962
H48   H     H_    0.928783 0.850500 0.453521 0.132900
H49   H     H_    0.746863 0.044841 0.341279 0.138689
H50   H     H_    0.749477 0.930369 0.353879 0.147117
H51   H     H_    0.247001 0.544791 0.341118 0.139648
H52   H     H_    0.249575 0.430355 0.353805 0.147257
H53   H     H_    0.924853 0.056962 0.280831 0.173637
H54   H     H_    0.927057 0.949391 0.279677 0.159292
H55   H     H_    0.424906 0.556963 0.280893 0.173644
H56   H     H_    0.425933 0.315319 0.058490 0.133791
H57   H     H_    0.427113 0.449384 0.279744 0.159299
H58   H     H_    0.582677 0.543827 0.777338 0.396087
H59   H     H_    0.698651 0.450029 0.752630 0.408939
H60   H     H_    0.082775 0.043837 0.777357 0.396253
H61   H     H_    0.198796 0.950009 0.752558 0.408910
H62   H     H_    0.896254 0.447446 0.251469 0.147976
H63   H     H_    0.897583 0.555086 0.252270 0.171782
H64   H     H_    0.396173 0.947446 0.251454 0.148025
H65   H     H_    0.397501 0.055084 0.252252 0.171757
H66   H     H_    0.709019 0.454203 0.406564 0.121272
H67   H     H_    0.907501 0.207467 0.052525 0.105046
H68   H     H_    0.710231 0.549620 0.406409 0.149003
H69   H     H_    0.208950 0.954189 0.406637 0.121386
H70   H     H_    0.210163 0.049589 0.406446 0.149106
H71   H     H_    0.599564 0.727683 0.179916 0.387559
H72   H     H_    0.277987 0.173813 0.652250 0.383396
H73   H     H_    0.099480 0.227280 0.179927 0.387573
H74   H     H_    0.778532 0.672990 0.651435 0.383454
H75   H     H_    0.581968 0.600763 0.338865 0.361908
H76   H     H_    0.663216 0.120177 0.412419 0.366001
H77   H     H_    0.082004 0.100698 0.338913 0.361902
H78   H     H_    0.925940 0.815324 0.058491 0.133789
H79   H     H_    0.164128 0.620755 0.410573 0.366313
H80   H     H_    0.653107 0.814533 0.314761 0.350889
H81   H     H_    0.493412 0.237557 0.654947 0.353011
H82   H     H_    0.153248 0.314361 0.314736 0.350906
H83   H     H_    0.993613 0.736415 0.654558 0.352724
H84   H     H_    0.334092 0.769465 0.060799 0.171856
H85   H     H_    0.326351 0.276147 0.134474 0.181371
H86   H     H_    0.834167 0.269890 0.060797 0.171853
H87   H     H_    0.826358 0.776153 0.134474 0.181414
H88   H     H_    0.476319 0.790555 0.860279 0.138389
H89   H     H_    0.501765 0.673734 0.397674 0.131164
H90   H     H_    0.393849 0.281554 0.943821 0.197356
H91   H     H_    0.976446 0.290851 0.860283 0.138464
H92   H     H_    0.893856 0.781560 0.943822 0.197316
H93   H     H_    0.661910 0.784491 0.869068 0.164714
H94   H     H_    0.585473 0.120567 0.946455 0.220355
H95   H     H_    0.162025 0.284211 0.869064 0.164763
H96   H     H_    0.085483 0.620573 0.946456 0.220341
O1    O     O_3   0.750020 0.750020 0.500000 -0.496975
O2    O     O_R   0.741140 0.134170 0.457020 -0.517766
O3    O     O_3   0.191751 0.805369 0.938318 -0.450544
O4    O     O_2   0.462790 0.626720 0.135044 -0.417177
O5    O     O_2   0.551278 0.363215 0.075709 -0.364868
O6    O     O_2   0.962501 0.126591 0.134969 -0.417046
O7    O     O_2   0.051285 0.863221 0.075710 -0.364858
O8    O     O_2   0.585808 0.663342 0.067709 -0.329946
O9    O     O_2   0.535987 0.254231 0.145793 -0.437772
O10   O     O_2   0.085576 0.162996 0.067688 -0.329996
O11   O     O_2   0.035993 0.754235 0.145794 -0.437687
O12   O     O_2   0.656338 0.925147 0.705230 -0.167769
O13   O     O_R   0.241140 0.365830 0.457020 -0.571722
O14   O     O_2   0.577299 0.964319 0.691973 -0.162960
O15   O     O_3   0.625653 0.877463 0.628362 -0.548074
O16   O     O_2   0.630594 0.104182 0.664354 -0.214921
O17   O     O_2   0.629806 0.028699 0.730783 -0.114970
O18   O     O_3   0.729290 0.085842 0.663886 -0.462952
O19   O     O_2   0.156357 0.425104 0.705193 -0.167843
O20   O     O_2   0.077313 0.464338 0.691995 -0.162873
O21   O     O_3   0.125623 0.377486 0.628328 -0.548067
O22   O     O_2   0.130619 0.604167 0.664416 -0.214976
O23   O     O_2   0.129900 0.528667 0.730771 -0.115260
O24   O     O_R   0.241140 0.634170 0.457020 -0.516965
O25   O     O_3   0.229371 0.585828 0.663830 -0.462952
O26   O     O_2   0.371061 0.816237 0.676602 -0.389181
O27   O     O_2   0.454701 0.389290 0.508163 -0.387829
O28   O     O_2   0.871066 0.316774 0.675869 -0.388809
O29   O     O_2   0.954083 0.889262 0.509371 -0.388071
O30   O     O_2   0.821582 0.090941 0.278265 -0.442714
O31   O     O_2   0.829981 0.942548 0.254194 -0.467120
O32   O     O_2   0.321669 0.590970 0.278265 -0.443082
O33   O     O_2   0.330110 0.442536 0.254151 -0.467203
O34   O     O_2   0.888731 0.078951 0.383909 -0.464480
O35   O     O_R   0.862350 0.719680 0.336040 -0.490221
O36   O     O_2   0.890915 0.924739 0.381999 -0.484569
O37   O     O_2   0.388727 0.578947 0.383988 -0.464492
O38   O     O_2   0.390921 0.424755 0.382088 -0.484434
O39   O     O_2   0.686438 0.601202 0.673732 -0.217439
O40   O     O_2   0.606332 0.580864 0.651929 -0.230535
O41   O     O_3   0.614721 0.520869 0.737180 -0.405110
O42   O     O_2   0.632550 0.419601 0.699391 -0.189457
O43   O     O_2   0.741232 0.387194 0.633230 -0.280563
O44   O     O_3   0.715242 0.470942 0.707365 -0.398365
O45   O     O_2   0.186578 0.101215 0.673681 -0.216916
O46   O     O_R   0.862350 0.280320 0.336040 -0.477231
O47   O     O_2   0.106385 0.080881 0.652018 -0.230647
O48   O     O_3   0.114861 0.020894 0.737210 -0.405027
O49   O     O_2   0.132597 0.919629 0.699424 -0.189348
O50   O     O_2   0.241261 0.887169 0.633193 -0.281066
O51   O     O_3   0.215378 0.970919 0.707293 -0.398575
O52   O     O_2   0.904069 0.424723 0.331425 -0.393289
O53   O     O_2   0.905232 0.576198 0.332730 -0.397064
O54   O     O_2   0.404028 0.924720 0.331378 -0.393272
O55   O     O_2   0.405194 0.076198 0.332678 -0.397106
O56   O     O_2   0.770785 0.416608 0.313434 -0.435322
O57   O     O_R   0.362350 0.219680 0.336040 -0.490199
O58   O     O_2   0.773483 0.585825 0.311719 -0.393457
O59   O     O_2   0.270692 0.916622 0.313469 -0.435449
O60   O     O_2   0.273385 0.085864 0.311809 -0.393408
O61   O     O_2   0.471801 0.725818 0.311548 -0.263624
O62   O     O_2   0.547524 0.792416 0.290637 -0.179571
O63   O     O_3   0.590995 0.704896 0.220683 -0.419012
O64   O     O_2   0.361420 0.121305 0.676110 -0.128964
O65   O     O_2   0.366245 0.215406 0.659018 -0.213906
O66   O     O_3   0.317235 0.159748 0.607412 -0.514396
O67   O     O_2   0.971810 0.225709 0.311577 -0.263710
O68   O     O_R   0.362350 0.780320 0.336040 -0.477130
O69   O     O_2   0.047704 0.292208 0.290465 -0.179215
O70   O     O_3   0.090953 0.204584 0.220754 -0.419219
O71   O     O_2   0.862373 0.620210 0.674445 -0.128775
O72   O     O_2   0.866634 0.714408 0.658580 -0.214108
O73   O     O_3   0.817810 0.659133 0.606414 -0.514435
O74   O     O_2   0.651356 0.648821 0.417395 -0.217195
O75   O     O_2   0.538505 0.630588 0.478310 -0.272095
O76   O     O_3   0.618794 0.602179 0.341502 -0.399751
O77   O     O_2   0.531521 0.053639 0.511628 -0.179832
O78   O     O_2   0.572888 0.107878 0.402125 -0.285187
O79   O     O_R   0.698420 0.780360 0.663960 -0.504830
O80   O     O_3   0.632455 0.108098 0.464091 -0.469905
O81   O     O_2   0.151239 0.148732 0.417638 -0.217220
O82   O     O_2   0.038393 0.130527 0.478477 -0.272099
O83   O     O_3   0.118740 0.102031 0.341723 -0.399796
O84   O     O_2   0.032820 0.553564 0.508532 -0.180438
O85   O     O_2   0.073951 0.608712 0.399926 -0.284685
O86   O     O_3   0.133434 0.608171 0.461987 -0.469934
O87   O     O_2   0.713772 0.731724 0.312971 -0.261951
O88   O     O_2   0.688220 0.697656 0.231623 -0.119786
O89   O     O_3   0.658963 0.792885 0.274601 -0.451368
O90   O     O_R   0.698420 0.219640 0.663960 -0.524299
O91   O     O_2   0.470979 0.109470 0.665017 -0.097157
O92   O     O_2   0.568410 0.159920 0.604484 -0.246214
O93   O     O_3   0.461881 0.209324 0.672391 -0.422386
O94   O     O_2   0.213785 0.231501 0.313024 -0.261937
O95   O     O_2   0.188195 0.197458 0.231696 -0.119809
O96   O     O_3   0.159046 0.292707 0.274611 -0.451320
O97   O     O_2   0.972141 0.608221 0.662864 -0.097588
O98   O     O_2   0.069214 0.659081 0.603014 -0.246449
O99   O     O_3   0.962329 0.708004 0.671833 -0.421849
O100  O     O_2   0.340556 0.799702 0.137806 -0.451304
O101  O     O_R   0.198420 0.280360 0.663960 -0.505014
O102  O     O_2   0.345283 0.225903 0.057069 -0.455713
O103  O     O_2   0.840722 0.299983 0.137809 -0.451221
O104  O     O_2   0.845291 0.725907 0.057070 -0.455718
O105  O     O_2   0.415948 0.827623 0.953507 -0.384592
O106  O     O_2   0.465538 0.242558 0.860603 -0.444674
O107  O     O_2   0.916200 0.327964 0.953512 -0.384487
O108  O     O_2   0.965543 0.742561 0.860607 -0.445017
O109  O     O_2   0.651205 0.840930 0.933286 -0.325661
O110  O     O_2   0.631052 0.161582 0.855388 -0.429843
O111  O     O_2   0.151492 0.340579 0.933289 -0.325668
O112  O     O_3   0.750020 0.249980 0.500000 -0.498729
O113  O     O_R   0.198420 0.719640 0.663960 -0.524006
O114  O     O_2   0.131060 0.661588 0.855388 -0.429845
O115  O     O_R   0.801620 0.780400 0.336040 -0.519284
O116  O     O_R   0.801620 0.219600 0.336040 -0.525107
O117  O     O_R   0.301620 0.280400 0.336040 -0.519401
O118  O     O_R   0.301620 0.719600 0.336040 -0.525260
O119  O     O_R   0.637700 0.719640 0.663960 -0.501900
O120  O     O_R   0.637700 0.280360 0.663960 -0.493624
O121  O     O_R   0.137700 0.219640 0.663960 -0.501803
O122  O     O_R   0.137700 0.780360 0.663960 -0.493779
O123  O     O_R   0.801870 0.634220 0.457010 -0.481144
O124  O     O_3   0.250020 0.250020 0.500000 -0.496954
O125  O     O_R   0.801870 0.365780 0.457010 -0.485424
O126  O     O_R   0.301870 0.134220 0.457010 -0.481331
O127  O     O_R   0.301870 0.865780 0.457010 -0.485445
O128  O     O_R   0.758890 0.865820 0.542980 -0.468368
O129  O     O_R   0.758890 0.134180 0.542980 -0.465637
O130  O     O_R   0.258890 0.365820 0.542980 -0.468289
O131  O     O_R   0.258890 0.634180 0.542980 -0.465505
O132  O     O_R   0.887320 0.719660 0.457000 -0.507034
O133  O     O_R   0.887320 0.280340 0.457000 -0.470845
O134  O     O_R   0.387320 0.219660 0.457000 -0.507320
O135  O     O_3   0.250020 0.749980 0.500000 -0.498810
O136  O     O_R   0.387320 0.780340 0.457000 -0.470973
O137  O     O_R   0.655700 0.780400 0.457020 -0.525763
O138  O     O_R   0.655700 0.219600 0.457020 -0.503716
O139  O     O_R   0.155700 0.280400 0.457020 -0.525840
O140  O     O_R   0.155700 0.719600 0.457020 -0.503479
O141  O     O_R   0.844340 0.780370 0.542980 -0.528128
O142  O     O_R   0.844340 0.219630 0.542980 -0.549129
O143  O     O_R   0.344340 0.280370 0.542980 -0.527606
O144  O     O_R   0.344340 0.719630 0.542980 -0.548857
O145  O     O_R   0.612730 0.719670 0.543000 -0.502694
O146  O     O_R   0.698170 0.634220 0.542990 -0.464431
O147  O     O_R   0.612730 0.280330 0.543000 -0.567365
O148  O     O_R   0.112730 0.219670 0.543000 -0.502694
O149  O     O_R   0.112730 0.780330 0.543000 -0.567525
O150  O     O_2   0.442990 0.754042 0.698632 -0.406110
O151  O     O_2   0.584104 0.377333 0.416004 -0.404923
O152  O     O_2   0.942803 0.254787 0.698727 -0.406775
O153  O     O_2   0.083586 0.877683 0.416955 -0.405259
O154  O     O_2   0.557524 0.894058 0.932852 -0.326670
O155  O     O_2   0.516508 0.136175 0.870857 -0.360511
O156  O     O_2   0.057975 0.393996 0.932857 -0.326751
O157  O     O_R   0.698170 0.365780 0.542990 -0.516344
O158  O     O_2   0.016515 0.636175 0.870862 -0.360619
O159  O     O_2   0.440963 0.868617 0.041675 -0.365687
O160  O     O_2   0.416227 0.115150 0.060490 -0.393045
O161  O     O_2   0.941339 0.368746 0.041682 -0.365691
O162  O     O_2   0.916235 0.615154 0.060491 -0.393007
O163  O     O_2   0.567257 0.877959 0.071947 -0.161924
O164  O     O_2   0.506366 0.814391 0.169306 -0.291760
O165  O     O_3   0.617146 0.788622 0.054514 -0.473779
O166  O     O_2   0.479692 0.158513 0.167541 -0.222362
O167  O     O_2   0.507284 0.091805 0.077719 -0.215906
O168  O     O_R   0.198170 0.134220 0.542990 -0.464341
O169  O     O_3   0.593321 0.157102 0.046275 -0.517535
O170  O     O_2   0.067654 0.377652 0.071952 -0.161888
O171  O     O_2   0.006576 0.314118 0.169307 -0.291610
O172  O     O_3   0.117276 0.288192 0.054513 -0.473807
O173  O     O_2   0.979698 0.658518 0.167543 -0.222357
O174  O     O_2   0.007293 0.591810 0.077719 -0.215909
O175  O     O_3   0.093328 0.657109 0.046278 -0.517507
O176  O     O_2   0.576790 0.638260 0.840289 -0.213119
O177  O     O_2   0.548061 0.590748 0.950231 -0.167304
O178  O     O_3   0.459100 0.633458 0.951479 -0.608708
O179  O     O_R   0.198170 0.865780 0.542990 -0.516337
O180  O     O_2   0.632514 0.380041 0.925761 -0.104977
O181  O     O_2   0.607501 0.352987 0.841456 -0.257003
O182  O     O_3   0.516896 0.386539 0.970167 -0.563499
O183  O     O_2   0.076444 0.138290 0.840283 -0.213367
O184  O     O_2   0.047601 0.090686 0.950206 -0.167433
O185  O     O_3   0.958750 0.133665 0.951496 -0.608688
O186  O     O_2   0.132521 0.880046 0.925761 -0.105048
O187  O     O_2   0.107508 0.852991 0.841457 -0.256998
O188  O     O_3   0.016903 0.886543 0.970167 -0.563462
O189  O     O_2   0.679125 0.691774 0.831541 -0.261115
O190  O     O_R   0.741140 0.865830 0.457020 -0.571707
O191  O     O_2   0.667440 0.718458 0.943900 -0.221232
O192  O     O_3   0.651112 0.623485 0.929781 -0.352363
O193  O     O_2   0.668667 0.211793 0.926597 -0.243205
O194  O     O_2   0.695829 0.271222 0.827144 -0.219929
O195  O     O_3   0.691743 0.305363 0.938321 -0.450566
O196  O     O_2   0.178959 0.191497 0.831526 -0.261203
O197  O     O_2   0.167364 0.218042 0.943881 -0.220984
O198  O     O_3   0.150747 0.123141 0.929761 -0.352401
O199  O     O_2   0.168674 0.711798 0.926599 -0.243101
O200  O     O_2   0.195835 0.771225 0.827144 -0.219729
S1    S     S_3+6 0.549955 0.821593 0.086670 0.020113
S2    S     S_3+6 0.658852 0.265370 0.909799 0.081810
S3    S     S_3+6 0.139901 0.184437 0.914166 0.123181
S4    S     S_3+6 0.158859 0.765375 0.909799 0.081943
S5    S     S_3+6 0.638612 0.934805 0.652760 0.106901
S6    S     S_3+6 0.670259 0.060894 0.662035 0.150670
S7    S     S_3+6 0.138614 0.434806 0.652748 0.106932
S8    S     S_3+6 0.170312 0.560879 0.662033 0.150547
S9    S     S_3+6 0.654856 0.558281 0.660973 0.134771
S10   S     S_3+6 0.701438 0.435063 0.655174 0.133951
S11   S     S_3+6 0.154950 0.058295 0.660990 0.134853
S12   S     S_3+6 0.515524 0.148238 0.086016 0.021943
S13   S     S_3+6 0.201498 0.935058 0.655154 0.133722
S14   S     S_3+6 0.534677 0.735318 0.298789 0.100202
S15   S     S_3+6 0.372664 0.164113 0.623970 0.109362
S16   S     S_3+6 0.034717 0.235130 0.298776 0.100210
S17   S     S_3+6 0.873304 0.663349 0.622885 0.109265
S18   S     S_3+6 0.599397 0.646506 0.406495 0.088222
S19   S     S_3+6 0.562198 0.104646 0.476227 0.081527
S20   S     S_3+6 0.099320 0.146401 0.406672 0.088168
S21   S     S_3+6 0.063220 0.604816 0.474005 0.081490
S22   S     S_3+6 0.665085 0.732221 0.296710 0.131657
S23   S     S_3+6 0.050184 0.321315 0.086672 0.020178
S24   S     S_3+6 0.503318 0.157753 0.621010 0.168132
S25   S     S_3+6 0.165100 0.232036 0.296760 0.131723
S26   S     S_3+6 0.004107 0.656827 0.619597 0.167877
S27   S     S_3+6 0.015531 0.648243 0.086017 0.021965
S28   S     S_3+6 0.534869 0.638923 0.923535 0.041493
S29   S     S_3+6 0.584313 0.351692 0.921137 0.078710
S30   S     S_3+6 0.034541 0.138945 0.923529 0.041434
S31   S     S_3+6 0.084320 0.851697 0.921138 0.078693
S32   S     S_3+6 0.640083 0.684724 0.914181 0.123029
Zn1   Zn    Zn3+2 0.675940 0.706640 0.561420 1.094205
Zn2   Zn    Zn3+2 0.762700 0.206610 0.561410 1.068603
Zn3   Zn    Zn3+2 0.262700 0.293390 0.561410 1.055230
Zn4   Zn    Zn3+2 0.262700 0.706610 0.561410 1.068763
Zn5   Zn    Zn3+2 0.737340 0.793410 0.438590 0.999910
Zn6   Zn    Zn3+2 0.737340 0.206590 0.438590 1.043320
Zn7   Zn    Zn3+2 0.237340 0.293410 0.438590 0.999836
Zn8   Zn    Zn3+2 0.237340 0.706590 0.438590 1.043532
Zn9   Zn    Zn3+2 0.675940 0.293360 0.561420 1.040706
Zn10  Zn    Zn3+2 0.175940 0.206640 0.561420 1.094305
Zn11  Zn    Zn3+2 0.175940 0.793360 0.561420 1.040398
Zn12  Zn    Zn3+2 0.824100 0.706650 0.438580 1.078083
Zn13  Zn    Zn3+2 0.824100 0.293350 0.438580 1.095365
Zn14  Zn    Zn3+2 0.324100 0.206650 0.438580 1.078008
Zn15  Zn    Zn3+2 0.324100 0.793350 0.438580 1.095219
Zn16  Zn    Zn3+2 0.762700 0.793390 0.561410 1.055073

loop_
_geom_bond_atom_site_label_1
_geom_bond_atom_site_label_2
_ccdc_geom_bond_type
C49   C113  S    
O136  Zn15  S    
O47   S11   D    
C83   O56   D    
C4    C177  S    
C136  C140  S    
O73   S17   S    
C55   C119  S    
C135  C139  S    
O80   S19   S    
O189  S32   D    
C40   C145  A    
C66   H46   S    
C25   O144  A    
O192  S32   S    
C69   H48   S    
O40   S9    D    
H60   O48   S    
O14   S5    D    
C141  C154  S    
C98   C114  S    
O198  S3    S    
C6    C188  A    
C139  C152  S    
H71   O63   S    
H74   O73   S    
C4    C186  A    
O126  Zn14  S    
C182  C183  S    
C5    C179  S    
C146  C150  S    
C58   C143  S    
C109  C127  S    
O179  Zn11  S    
C80   H63   S    
C119  S27   S    
C84   H68   S    
C63   C144  S    
C70   H49   S    
C92   H88   S    
O175  S27   S    
C65   H44   S    
O67   S16   D    
C15   C85   S    
C41   C156  A    
C35   C178  A    
O199  S4    D    
H28   O195  S    
C89   C136  S    
O137  Zn5   S    
C111  C125  S    
H40   O15   S    
H41   O18   S    
C117  C139  S    
C60   C146  S    
C32   C57   A    
C118  C140  S    
O149  Zn11  S    
C18   C170  S    
O132  Zn12  S    
C27   O138  A    
C71   C183  S    
O167  S12   D    
H22   O178  S    
C72   C184  S    
C16   C188  S    
C30   C34   A    
C25   C178  S    
O173  S27   D    
C17   O128  A    
O39   S9    D    
C19   O13   A    
C67   C156  S    
C50   C114  S    
C123  O68   A    
C106  S26   S    
C175  C176  A    
O90   Zn2   S    
C76   H55   S    
O117  Zn7   S    
C8    S9    S    
O143  Zn3   S    
O79   Zn16  S    
C90   C104  S    
H72   O66   S    
C128  C150  S    
O24   Zn8   S    
H75   O76   S    
C78   H62   S    
O186  S31   D    
C147  S28   S    
C42   C167  A    
C170  C174  A    
O82   S20   D    
H30   O3    S    
C28   O139  A    
C64   C146  S    
C49   O155  D    
O120  Zn9   S    
C73   O33   D    
C33   C106  S    
C101  C122  S    
C117  S12   S    
O122  Zn11  S    
C39   C43   S    
C18   O2    A    
C138  C151  S    
C62   H37   S    
C94   C109  S    
C33   C38   A    
C23   O134  A    
C1    C124  S    
O21   S7    S    
C1    O35   A    
O64   S15   D    
C85   O59   D    
C132  C163  S    
C103  S18   S    
C131  O121  A    
C180  O126  A    
C74   H53   S    
C60   O7    D    
H73   O70   S    
O183  S30   D    
C93   O106  D    
C76   O37   D    
C21   C24   S    
C41   C45   S    
C31   C36   A    
O125  Zn13  S    
C91   O104  D    
O188  S31   S    
C108  C126  S    
C186  C187  A    
O101  Zn3   S    
H58   O41   S    
C110  C128  S    
C39   C134  A    
H77   O83   S    
C1    O115  A    
C123  O118  A    
O66   S15   S    
O178  S28   S    
O87   S22   D    
O182  S29   S    
C53   H15   S    
C78   O52   D    
C177  O146  A    
O45   S11   D    
C87   H84   S    
C21   O132  A    
C13   C57   A    
O190  Zn5   S    
C184  C185  S    
H79   O86   S    
C58   O5    D    
C139  C143  S    
O124  Zn10  S    
C31   C46   A    
C29   C38   S    
C82   H65   S    
C179  O157  A    
H25   O185  S    
O70   S16   S    
O163  S1    D    
O129  Zn2   S    
C130  O90   A    
H83   O99   S    
C166  C168  A    
C79   C103  S    
O141  Zn16  S    
H76   O80   S    
O19   S7    D    
C101  O46   A    
O124  Zn7   S    
O164  S1    D    
C96   C111  S    
C149  S30   S    
O75   S18   D    
C7    C181  S    
C83   H66   S    
C34   C39   A    
C71   H50   S    
C69   O29   D    
C24   C167  A    
C107  C125  S    
C108  C135  S    
O127  Zn15  S    
C82   O55   D    
C9    S10   S    
O131  Zn4   S    
C113  C126  S    
C131  C162  S    
C12   C187  S    
C130  O120  A    
C115  C128  S    
O144  Zn4   S    
C88   H85   S    
C13   C156  A    
C5    C9    A    
O16   S6    D    
C116  S1    S    
C132  O122  A    
C137  H78   S    
C99   O114  D    
C109  H23   S    
C92   O105  D    
C88   O102  D    
C148  S29   S    
C81   O54   D    
C72   H51   S    
C56   O4    D    
C32   C37   A    
C113  C117  S    
C106  S21   S    
O171  S23   D    
C181  O179  A    
C84   O58   D    
C115  C119  S    
C32   C105  S    
C122  C153  T    
C86   O60   D    
O185  S30   S    
C25   O136  A    
C60   H35   S    
C130  C161  S    
C90   H2    S    
C126  C157  S    
C147  S32   S    
C120  C151  T    
C95   H92   S    
C6    C180  S    
C142  C147  S    
O116  Zn6   S    
O12   S5    D    
C20   O131  A    
C73   C185  S    
C50   H11   S    
C74   C182  S    
C52   O159  D    
C98   O111  D    
C96   H93   S    
C180  O168  A    
H29   O198  S    
C43   H5    S    
C85   H69   S    
C31   C104  S    
C61   H36   S    
C112  C121  S    
C164  C183  S    
O124  Zn14  S    
O91   S24   D    
C127  C149  S    
O134  Zn14  S    
C135  H56   S    
C28   C37   S    
C129  O79   A    
C174  S6    S    
C44   O151  D    
O184  S30   D    
C52   H14   S    
O51   S13   S    
C37   C41   A    
O139  Zn7   S    
O128  Zn16  S    
C10   C11   A    
H80   O89   S    
C55   O162  D    
C40   C44   S    
C96   O109  D    
O68   Zn15  S    
C169  C173  A    
O191  S32   D    
C26   O145  A    
O166  S12   D    
C74   O34   D    
O41   S9    S    
C64   H39   S    
C172  C176  A    
C128  C159  S    
C48   O154  D    
O135  Zn8   S    
O99   S26   S    
O1    Zn5   S    
C136  H67   S    
O74   S18   D    
C14   C84   S    
O94   S25   D    
C75   O36   D    
O84   S21   D    
C2    C145  A    
C70   O30   D    
C165  C182  S    
O18   S6    S    
C164  C165  A    
C68   C102  S    
O121  Zn10  S    
C3    C7    A    
C93   C108  S    
C99   C115  S    
O176  S28   D    
C21   O141  A    
O123  Zn12  S    
C79   S14   S    
C67   O28   D    
C97   O110  D    
O85   S21   D    
O112  Zn9   S    
O187  S31   D    
C86   H70   S    
O72   S17   D    
O170  S23   D    
C70   C182  S    
C50   O156  D    
O81   S20   D    
O83   S20   S    
H18   O165  S    
O193  S2    D    
C102  H4    S    
O168  Zn10  S    
C111  C116  S    
C159  C163  T    
O78   S19   D    
O119  Zn1   S    
O147  Zn9   S    
O145  Zn1   S    
C65   C134  S    
C120  C123  S    
O157  Zn9   S    
C140  C153  S    
C56   C142  S    
C99   H96   S    
C133  C138  S    
C20   O24   A    
C18   O129  A    
O112  Zn2   S    
H27   O192  S    
C150  S31   S    
C16   C86   S    
C176  S8    S    
O140  Zn8   S    
C52   C116  S    
C55   H17   S    
H82   O96   S    
O43   S10   D    
C47   H8    S    
O17   S6    D    
C73   H52   S    
C138  C142  S    
H42   O21   S    
C126  C148  S    
O96   S25   S    
C131  O101  A    
O86   S21   S    
C51   C115  S    
C12   C83   S    
O135  Zn11  S    
O115  Zn5   S    
O112  Zn13  S    
C69   C167  S    
C43   O150  D    
C54   O161  D    
O1    Zn16  S    
H81   O93   S    
C105  S25   S    
C107  H1    S    
O197  S3    D    
C134  C178  A    
O118  Zn8   S    
C127  C158  S    
C93   H90   S    
O177  S28   D    
O133  Zn13  S    
C141  C146  S    
O124  Zn3   S    
O76   S18   S    
O62   S14   D    
O15   S5    S    
C89   H86   S    
O113  Zn4   S    
H26   O188  S    
O13   Zn7   S    
C5    C187  A    
C81   H64   S    
C110  H34   S    
C157  C161  T    
C150  S4    S    
C88   C135  S    
C165  C170  A    
C137  C141  S    
O180  S29   D    
C98   H95   S    
C110  C137  S    
C72   O32   D    
C140  C144  S    
C95   C110  S    
C6    C10   A    
O89   S22   S    
C46   C90   S    
C27   C36   S    
C61   O8    D    
O46   Zn13  S    
C100  S16   S    
C91   H87   S    
C10   S11   S    
C107  C133  S    
C75   H54   S    
C29   O149  A    
C112  O57   A    
O69   S16   D    
C114  C127  S    
C54   H16   S    
O169  S12   S    
C13   C22   S    
C64   O11   D    
C53   C117  S    
O20   S7    D    
C24   C68   A    
H59   O44   S    
C168  C172  A    
C22   O133  A    
O61   S14   D    
O23   S8    D    
O65   S15   D    
C79   H89   S    
C90   S15   S    
C56   H31   S    
C51   H13   S    
C45   H7    S    
C105  S20   S    
C124  C154  T    
C166  C185  S    
C77   C185  S    
C87   C133  S    
O165  S1    S    
C62   C143  S    
C4    C8    A    
C104  S19   S    
C75   C183  S    
C3    C188  A    
C94   O107  D    
O148  Zn10  S    
C15   C81   S    
C59   O6    D    
O135  Zn15  S    
C173  C174  A    
C2    C46   A    
C7    C11   A    
O200  S4    D    
C67   H47   S    
C100  C105  S    
C22   O142  A    
C30   C35   A    
O48   S11   S    
O49   S13   D    
C19   C171  S    
C38   C42   A    
C175  S7    S    
C65   O26   D    
O172  S23   S    
C14   C186  S    
C17   C169  S    
C148  S2    S    
C177  O123  A    
C15   C16   S    
C62   O9    D    
O57   Zn14  S    
C35   C79   S    
C132  O113  A    
O77   S19   D    
C66   C145  S    
C59   H33   S    
C94   H91   S    
H43   O25   S    
C19   O130  A    
C26   C34   S    
C8    C9    A    
C168  C184  S    
C12   C78   S    
O135  Zn4   S    
O1    Zn1   S    
C77   O38   D    
C14   C80   S    
O71   S17   D    
C77   H57   S    
C89   O103  D    
O195  S2    S    
O92   S24   D    
C166  C171  A    
C51   O158  D    
C91   C137  S    
C30   C103  S    
C103  S22   S    
C164  C169  A    
C58   H32   S    
C95   O108  D    
C181  O127  A    
C63   H38   S    
C116  C138  S    
C49   H10   S    
C129  O119  A    
O50   S13   D    
C36   C40   A    
C23   O143  A    
O196  S3    D    
C179  O125  A    
O93   S24   S    
C133  H45   S    
C57   C100  S    
C171  C175  A    
C63   O10   D    
C17   O190  A    
H20   O172  S    
C108  H12   S    
O35   Zn12  S    
C26   O137  A    
C144  C149  S    
C104  S24   S    
C125  C147  S    
C92   C107  S    
O181  S29   D    
O174  S27   D    
O63   S14   S    
C47   O153  D    
O3    S4    S    
C16   C82   S    
O138  Zn6   S    
O98   S26   D    
O22   S8    D    
O25   S8    S    
O194  S2    D    
C114  C118  S    
O2    Zn6   S    
C29   O140  A    
C53   O160  D    
C12   C14   S    
C59   C144  S    
C118  S23   S    
C54   C118  S    
C101  O116  A    
O44   S10   S    
C100  H3    S    
C97   C113  S    
C2    C23   S    
C3    C15   S    
C112  O117  A    
C45   O152  D    
C20   C172  S    
C155  C160  T    
O1    Zn12  S    
C66   O27   D    
H19   O169  S    
C44   H6    S    
C121  C152  T    
C48   H9    S    
O142  Zn2   S    
H21   O175  S    
C97   H94   S    
O146  Zn1   S    
C102  S17   S    
O88   S22   D    
C119  C141  S    
C80   O53   D    
C87   O100  D    
C173  S5    S    
C102  C106  S    
O112  Zn6   S    
C42   C47   S    
C129  C160  S    
C11   S13   S    
O97   S26   D    
H24   O182  S    
C143  C148  S    
O95   S25   D    
C158  C162  T    
C149  S3    S    
C61   C142  S    
C48   C111  S    
C33   C68   A    
O130  Zn3   S    
C27   O147  A    
H61   O51   S    
C28   O148  A    
O42   S10   D    
C76   C184  S    
C125  C155  S    
C71   O31   D    
C109  C136  S    
