data_mof_unit_59403.cif
_audit_creation_date              2012-12-10T19:48:24-0500
_audit_creation_method            fapswitch 2.2
_symmetry_space_group_name_H-M    P1
_symmetry_Int_Tables_number       1
_space_group_crystal_system       triclinic
_cell_length_a                    18.254765
_cell_length_b                    18.254764
_cell_length_c                    30.162879
_cell_angle_alpha                 89.998667
_cell_angle_beta                  89.998651
_cell_angle_gamma                 90.000018
_cell_volume                      10051.370019

loop_
_atom_site_label
_atom_site_type_symbol
_atom_type_description
_atom_site_fract_x
_atom_site_fract_y
_atom_site_fract_z
_atom_type_partial_charge
C1    C     C_R   0.141267 0.500000 0.000000 0.996412
C2    C     C_1   0.500000 0.217771 0.000001 -0.111691
C3    C     C_R   0.097244 0.593614 0.773311 -0.055587
C4    C     C_R   0.406375 0.902767 0.226689 -0.055587
C5    C     C_R   0.902763 0.593619 0.226686 -0.055566
C6    C     C_R   0.593602 0.097257 0.226684 -0.055595
C7    C     C_R   0.097244 0.406382 0.226686 -0.055569
C8    C     C_R   0.850956 0.642553 0.296946 0.175438
C9    C     C_R   0.854969 0.719490 0.296031 -0.075303
C10   C     C_R   0.801416 0.761517 0.317258 -0.108875
C11   C     C_R   0.743659 0.727184 0.339481 -0.094255
C12   C     C_R   0.739326 0.650744 0.340514 -0.126558
C13   C     C_1   0.782229 0.500000 0.999999 -0.111694
C14   C     C_R   0.792679 0.608447 0.319280 -0.123576
C15   C     C_R   0.357423 0.850972 0.296948 0.175472
C16   C     C_R   0.280487 0.855008 0.296036 -0.075297
C17   C     C_R   0.238444 0.801460 0.317257 -0.108869
C18   C     C_R   0.272760 0.743684 0.339471 -0.094249
C19   C     C_R   0.349200 0.739328 0.340500 -0.126569
C20   C     C_R   0.391512 0.792677 0.319273 -0.123578
C21   C     C_R   0.149054 0.357451 0.296947 0.175432
C22   C     C_R   0.145041 0.280514 0.296036 -0.075300
C23   C     C_R   0.198591 0.238489 0.317266 -0.108869
C24   C     C_1   0.500000 0.782229 0.999999 -0.111696
C25   C     C_R   0.256346 0.272823 0.339487 -0.094254
C26   C     C_R   0.260680 0.349264 0.340515 -0.126555
C27   C     C_R   0.207329 0.391559 0.319278 -0.123578
C28   C     C_R   0.642545 0.149057 0.296942 0.175467
C29   C     C_R   0.719481 0.145035 0.296025 -0.075286
C30   C     C_R   0.761514 0.198589 0.317246 -0.108871
C31   C     C_R   0.727189 0.256355 0.339462 -0.094255
C32   C     C_R   0.650748 0.260696 0.340495 -0.126568
C33   C     C_R   0.608445 0.207342 0.319269 -0.123587
C34   C     C_R   0.850928 0.357471 0.703059 0.175467
C35   C     C_1   0.717771 1.000000 0.500001 -0.111704
C36   C     C_R   0.854942 0.280534 0.703974 -0.075281
C37   C     C_R   0.801384 0.238507 0.682754 -0.108869
C38   C     C_R   0.743620 0.272839 0.660538 -0.094261
C39   C     C_R   0.739287 0.349279 0.659506 -0.126571
C40   C     C_R   0.792646 0.391577 0.680732 -0.123590
C41   C     C_R   0.357478 0.149073 0.703052 0.175432
C42   C     C_R   0.280540 0.145075 0.703968 -0.075295
C43   C     C_R   0.238525 0.198635 0.682738 -0.108871
C44   C     C_R   0.272869 0.256382 0.660513 -0.094263
C45   C     C_R   0.349311 0.260700 0.659481 -0.126558
C46   C     C_1   1.000000 0.717771 0.500001 -0.111698
C47   C     C_R   0.391596 0.207341 0.680717 -0.123579
C48   C     C_R   0.149044 0.642560 0.703052 0.175471
C49   C     C_R   0.145015 0.719497 0.703964 -0.075292
C50   C     C_R   0.198567 0.761533 0.682742 -0.108867
C51   C     C_R   0.256339 0.727212 0.660528 -0.094253
C52   C     C_R   0.260687 0.650772 0.659499 -0.126569
C53   C     C_R   0.207334 0.608465 0.680727 -0.123580
C54   C     C_R   0.642532 0.850929 0.703054 0.175431
C55   C     C_R   0.719469 0.854934 0.703964 -0.075297
C56   C     C_R   0.761488 0.801378 0.682734 -0.108867
C57   C     C_1   0.282229 0.000000 0.499999 -0.111701
C58   C     C_R   0.727147 0.743627 0.660513 -0.094259
C59   C     C_R   0.650706 0.739302 0.659486 -0.126555
C60   C     C_R   0.608417 0.792658 0.680723 -0.123578
C61   C     C_R   0.350979 0.142578 0.796946 0.175441
C62   C     C_R   0.355006 0.219515 0.796031 -0.075309
C63   C     C_R   0.301460 0.261550 0.817258 -0.108876
C64   C     C_R   0.243697 0.227228 0.839481 -0.094248
C65   C     C_R   0.239351 0.150788 0.840513 -0.126556
C66   C     C_R   0.292696 0.108482 0.819279 -0.123576
C67   C     C_R   0.857398 0.350995 0.796948 0.175475
C68   C     C_1   1.000000 0.282229 0.499999 -0.111703
C69   C     C_R   0.780462 0.355045 0.796036 -0.075302
C70   C     C_R   0.738411 0.301504 0.817257 -0.108872
C71   C     C_R   0.772717 0.243722 0.839470 -0.094241
C72   C     C_R   0.849155 0.239353 0.840500 -0.126567
C73   C     C_R   0.891477 0.292695 0.819272 -0.123577
C74   C     C_R   0.649030 0.857425 0.796947 0.175435
C75   C     C_R   0.645002 0.780489 0.796036 -0.075306
C76   C     C_R   0.698545 0.738453 0.817266 -0.108871
C77   C     C_R   0.756306 0.772777 0.839487 -0.094245
C78   C     C_R   0.760655 0.849217 0.840514 -0.126553
C79   C     C_R   0.000000 0.499999 0.086781 1.048419
C80   C     C_R   0.707311 0.891522 0.819277 -0.123577
C81   C     C_R   0.142571 0.649032 0.796941 0.175470
C82   C     C_R   0.219507 0.644996 0.796026 -0.075290
C83   C     C_R   0.261550 0.698542 0.817246 -0.108873
C84   C     C_R   0.227235 0.756315 0.839461 -0.094246
C85   C     C_R   0.150795 0.760671 0.840494 -0.126567
C86   C     C_R   0.108483 0.707324 0.819268 -0.123586
C87   C     C_R   0.350952 0.857446 0.203059 0.175467
C88   C     C_R   0.354979 0.780510 0.203974 -0.075285
C89   C     C_R   0.301428 0.738473 0.182754 -0.108871
C90   C     C_R   0.499999 1.000000 0.086781 1.048426
C91   C     C_R   0.243658 0.772795 0.160539 -0.094254
C92   C     C_R   0.239311 0.849235 0.159506 -0.126569
C93   C     C_R   0.292663 0.891541 0.180732 -0.123588
C94   C     C_R   0.857453 0.649049 0.203052 0.175435
C95   C     C_R   0.780516 0.645038 0.203968 -0.075300
C96   C     C_R   0.738491 0.698591 0.182738 -0.108874
C97   C     C_R   0.772826 0.756344 0.160514 -0.094255
C98   C     C_R   0.849267 0.760675 0.159482 -0.126557
C99   C     C_R   0.891561 0.707323 0.180718 -0.123578
C100  C     C_R   0.649018 0.142587 0.203052 0.175474
C101  C     C_R   1.000000 0.500001 0.913219 1.048433
C102  C     C_R   0.644975 0.219523 0.203964 -0.075299
C103  C     C_R   0.698519 0.261570 0.182743 -0.108868
C104  C     C_R   0.756298 0.227259 0.160529 -0.094245
C105  C     C_R   0.760661 0.150820 0.159500 -0.126568
C106  C     C_R   0.707316 0.108503 0.180728 -0.123579
C107  C     C_R   0.142558 0.350953 0.203054 0.175433
C108  C     C_R   0.219495 0.354972 0.203964 -0.075303
C109  C     C_R   0.261523 0.301424 0.182734 -0.108869
C110  C     C_R   0.227192 0.243666 0.160514 -0.094250
C111  C     C_R   0.150752 0.239327 0.159487 -0.126554
C112  C     C_R   0.500000 0.141267 0.000000 0.996419
C113  C     C_R   0.500001 0.000000 0.913219 1.048429
C114  C     C_R   0.108454 0.292675 0.180723 -0.123576
C115  C     C_R   0.500000 0.999999 0.586781 1.048408
C116  C     C_R   0.999999 0.500000 0.586781 1.048415
C117  C     C_R   0.500000 0.000001 0.413219 1.048422
C118  C     C_R   0.000001 0.500000 0.413219 1.048419
C119  C     C_1   0.282590 0.500000 0.000001 -0.148230
C120  C     C_1   0.500000 0.282590 0.000001 -0.148229
C121  C     C_1   0.717410 0.500000 0.999999 -0.148231
C122  C     C_1   0.500000 0.717410 0.999999 -0.148230
C123  C     C_1   0.782590 1.000000 0.500001 -0.148230
C124  C     C_R   0.858733 0.500000 1.000000 0.996416
C125  C     C_1   0.000000 0.782590 0.500001 -0.148230
C126  C     C_1   0.217410 0.000000 0.499999 -0.148230
C127  C     C_1   1.000000 0.217410 0.499999 -0.148230
C128  C     C_R   0.500000 0.359108 0.000000 0.917080
C129  C     C_R   0.640892 0.500000 1.000000 0.917080
C130  C     C_R   0.500000 0.640892 1.000000 0.917080
C131  C     C_R   0.359108 0.500000 0.000000 0.917081
C132  C     C_R   1.000000 0.859108 0.500000 0.917080
C133  C     C_R   0.140892 0.000000 0.499999 0.917079
C134  C     C_R   1.000000 0.140892 0.499999 0.917080
C135  C     C_R   0.500000 0.858733 1.000000 0.996413
C136  C     C_R   0.859108 1.000000 0.500000 0.917080
C137  C     C_R   0.033537 0.442417 0.342964 0.260692
C138  C     C_R   0.557578 0.033540 0.342962 0.260688
C139  C     C_R   0.966470 0.557585 0.342963 0.260689
C140  C     C_R   0.442411 0.966471 0.342966 0.260685
C141  C     C_R   0.033535 0.557585 0.657034 0.260690
C142  C     C_R   0.557580 0.966456 0.657036 0.260697
C143  C     C_R   0.966454 0.442425 0.657038 0.260693
C144  C     C_R   0.442422 0.033540 0.657037 0.260696
C145  C     C_R   0.533528 0.942412 0.842964 0.260686
C146  C     C_R   0.641267 0.000000 0.500000 0.996400
C147  C     C_R   0.057584 0.533531 0.842962 0.260682
C148  C     C_R   0.466479 0.057591 0.842963 0.260683
C149  C     C_R   0.942405 0.466480 0.842966 0.260678
C150  C     C_R   0.533525 0.057591 0.157034 0.260682
C151  C     C_R   0.057586 0.466465 0.157036 0.260690
C152  C     C_R   0.466463 0.942420 0.157038 0.260687
C153  C     C_R   0.942416 0.533531 0.157037 0.260690
C154  C     C_R   0.000003 0.500001 0.365457 -0.235612
C155  C     C_R   0.499997 0.000003 0.365457 -0.235605
C156  C     C_R   0.999997 0.500003 0.634543 -0.235610
C157  C     C_R   1.000000 0.641267 0.500000 0.996406
C158  C     C_R   0.500000 0.999997 0.634543 -0.235619
C159  C     C_R   0.500003 0.000001 0.865457 -0.235603
C160  C     C_R   0.999997 0.500003 0.865457 -0.235597
C161  C     C_R   0.499997 0.000003 0.134543 -0.235601
C162  C     C_R   0.000000 0.499998 0.134543 -0.235610
C163  C     C_R   0.956539 0.552036 0.296709 -0.001264
C164  C     C_R   0.447956 0.956544 0.296711 -0.001258
C165  C     C_R   0.043469 0.447966 0.296710 -0.001263
C166  C     C_R   0.552026 0.043473 0.296708 -0.001259
C167  C     C_R   0.956521 0.447978 0.703292 -0.001260
C168  C     C_R   0.358733 0.000000 0.500000 0.996404
C169  C     C_R   0.447974 0.043472 0.703291 -0.001265
C170  C     C_R   0.043462 0.552038 0.703289 -0.001259
C171  C     C_R   0.552030 0.956526 0.703290 -0.001265
C172  C     C_R   0.456547 0.052043 0.796709 -0.001262
C173  C     C_R   0.947949 0.456552 0.796712 -0.001256
C174  C     C_R   0.543460 0.947959 0.796710 -0.001261
C175  C     C_R   0.052034 0.543465 0.796708 -0.001257
C176  C     C_R   0.456529 0.947971 0.203292 -0.001258
C177  C     C_R   0.947967 0.543464 0.203291 -0.001264
C178  C     C_R   0.543453 0.052046 0.203289 -0.001257
C179  C     C_R   1.000000 0.358733 0.500000 0.996400
C180  C     C_R   0.052038 0.456535 0.203290 -0.001263
C181  C     C_R   0.000004 0.500001 0.273298 -0.028599
C182  C     C_R   0.499991 0.000009 0.273298 -0.028595
C183  C     C_R   0.999991 0.500009 0.726702 -0.028595
C184  C     C_R   0.500003 0.999999 0.726702 -0.028600
C185  C     C_R   0.500004 0.000000 0.773298 -0.028598
C186  C     C_R   0.999991 0.500008 0.773298 -0.028594
C187  C     C_R   0.499991 0.000009 0.226702 -0.028595
C188  C     C_R   0.000003 0.500000 0.226702 -0.028599
C189  C     C_R   0.906385 0.597241 0.273313 -0.055568
C190  C     C_1   0.217771 0.500000 0.000001 -0.111696
C191  C     C_R   0.402749 0.906392 0.273316 -0.055593
C192  C     C_R   0.093624 0.402761 0.273314 -0.055566
C193  C     C_R   0.597228 0.093630 0.273311 -0.055587
C194  C     C_R   0.906359 0.402782 0.726689 -0.055587
C195  C     C_R   0.402779 0.093635 0.726686 -0.055566
C196  C     C_R   0.093619 0.597240 0.726684 -0.055594
C197  C     C_R   0.597228 0.906365 0.726686 -0.055568
C198  C     C_R   0.406401 0.097256 0.773313 -0.055568
C199  C     C_R   0.902733 0.406408 0.773316 -0.055593
C200  C     C_R   0.593607 0.902745 0.773314 -0.055567
Cl1   Cl    Cl    0.052455 0.361244 0.373566 -0.641100
Cl2   Cl    Cl    0.138759 0.552440 0.873562 -0.641115
Cl3   Cl    Cl    0.447573 0.138766 0.873564 -0.641116
Cl4   Cl    Cl    0.861235 0.447569 0.873573 -0.641120
Cl5   Cl    Cl    0.552444 0.138760 0.126428 -0.641114
Cl6   Cl    Cl    0.138758 0.447548 0.126433 -0.641104
Cl7   Cl    Cl    0.447545 0.861246 0.126439 -0.641107
Cl8   Cl    Cl    0.861242 0.552446 0.126438 -0.641106
Cl9   Cl    Cl    0.638751 0.052461 0.373561 -0.641102
Cl10  Cl    Cl    0.947553 0.638758 0.373563 -0.641103
Cl11  Cl    Cl    0.361242 0.947549 0.373572 -0.641107
Cl12  Cl    Cl    0.052465 0.638753 0.626429 -0.641100
Cl13  Cl    Cl    0.638750 0.947527 0.626434 -0.641092
Cl14  Cl    Cl    0.947525 0.361254 0.626439 -0.641094
Cl15  Cl    Cl    0.361250 0.052466 0.626438 -0.641093
Cl16  Cl    Cl    0.552434 0.861237 0.873567 -0.641113
H1    H     H_    0.899542 0.746627 0.278955 0.123806
H2    H     H_    0.450687 0.788550 0.320023 0.124105
H3    H     H_    0.100468 0.253376 0.278962 0.123806
H4    H     H_    0.195334 0.179305 0.316482 0.137474
H5    H     H_    0.297770 0.240191 0.355892 0.135585
H6    H     H_    0.305501 0.375746 0.357680 0.126861
H7    H     H_    0.211439 0.450735 0.320028 0.124107
H8    H     H_    0.746612 0.100455 0.278954 0.123801
H9    H     H_    0.820698 0.195327 0.316456 0.137470
H10   H     H_    0.759827 0.297783 0.355857 0.135586
H11   H     H_    0.624273 0.305527 0.357656 0.126862
H12   H     H_    0.804672 0.820701 0.316470 0.137475
H13   H     H_    0.549269 0.211458 0.320022 0.124102
H14   H     H_    0.899519 0.253398 0.721045 0.123804
H15   H     H_    0.804639 0.179322 0.683543 0.137471
H16   H     H_    0.702189 0.240204 0.644143 0.135578
H17   H     H_    0.694458 0.375760 0.642345 0.126859
H18   H     H_    0.788535 0.450753 0.679979 0.124101
H19   H     H_    0.253394 0.100509 0.721044 0.123810
H20   H     H_    0.179340 0.195391 0.683527 0.137478
H21   H     H_    0.240244 0.297813 0.644110 0.135576
H22   H     H_    0.375801 0.305516 0.642313 0.126859
H23   H     H_    0.702233 0.759818 0.355883 0.135587
H24   H     H_    0.450774 0.211438 0.679964 0.124105
H25   H     H_    0.100431 0.746624 0.721034 0.123801
H26   H     H_    0.195300 0.820717 0.683529 0.137473
H27   H     H_    0.297766 0.759853 0.644132 0.135587
H28   H     H_    0.305523 0.624299 0.642340 0.126861
H29   H     H_    0.211456 0.549289 0.679976 0.124103
H30   H     H_    0.746612 0.899503 0.721038 0.123807
H31   H     H_    0.820673 0.804628 0.683519 0.137476
H32   H     H_    0.759774 0.702199 0.644108 0.135577
H33   H     H_    0.624218 0.694483 0.642321 0.126858
H34   H     H_    0.694503 0.624263 0.357681 0.126863
H35   H     H_    0.549240 0.788555 0.679972 0.124105
H36   H     H_    0.399584 0.246643 0.778955 0.123803
H37   H     H_    0.304726 0.320734 0.816469 0.137472
H38   H     H_    0.202277 0.259869 0.855883 0.135598
H39   H     H_    0.194523 0.124315 0.857680 0.126867
H40   H     H_    0.288577 0.049306 0.820033 0.124112
H41   H     H_    0.753347 0.399637 0.778966 0.123796
H42   H     H_    0.679228 0.304788 0.816470 0.137469
H43   H     H_    0.740063 0.202304 0.855866 0.135606
H44   H     H_    0.875615 0.194510 0.857659 0.126868
H45   H     H_    0.788570 0.549271 0.320033 0.124109
H46   H     H_    0.950651 0.288556 0.820023 0.124108
H47   H     H_    0.600424 0.753359 0.778962 0.123803
H48   H     H_    0.695277 0.679270 0.816481 0.137471
H49   H     H_    0.797724 0.740137 0.855891 0.135596
H50   H     H_    0.805481 0.875691 0.857679 0.126865
H51   H     H_    0.711432 0.950697 0.820028 0.124109
H52   H     H_    0.246630 0.600411 0.778954 0.123798
H53   H     H_    0.320734 0.695269 0.816456 0.137467
H54   H     H_    0.259881 0.797737 0.855856 0.135597
H55   H     H_    0.124328 0.805507 0.857655 0.126866
H56   H     H_    0.253364 0.899595 0.278966 0.123799
H57   H     H_    0.049307 0.711451 0.820021 0.124105
H58   H     H_    0.399561 0.753382 0.221045 0.123801
H59   H     H_    0.304694 0.679289 0.183543 0.137468
H60   H     H_    0.202233 0.740153 0.144143 0.135589
H61   H     H_    0.194478 0.875707 0.142346 0.126863
H62   H     H_    0.288542 0.950717 0.179980 0.124104
H63   H     H_    0.753378 0.600467 0.221044 0.123807
H64   H     H_    0.679307 0.695337 0.183527 0.137476
H65   H     H_    0.740194 0.797770 0.144110 0.135587
H66   H     H_    0.875749 0.805496 0.142314 0.126863
H67   H     H_    0.179261 0.804733 0.316470 0.137471
H68   H     H_    0.950738 0.711431 0.179964 0.124108
H69   H     H_    0.600386 0.246642 0.221034 0.123797
H70   H     H_    0.695241 0.320753 0.183530 0.137469
H71   H     H_    0.797719 0.259909 0.144133 0.135599
H72   H     H_    0.805502 0.124356 0.142341 0.126865
H73   H     H_    0.711449 0.049328 0.179977 0.124106
H74   H     H_    0.246629 0.399547 0.221038 0.123805
H75   H     H_    0.320707 0.304685 0.183519 0.137473
H76   H     H_    0.259828 0.202244 0.144109 0.135588
H77   H     H_    0.124273 0.194504 0.142322 0.126862
H78   H     H_    0.240114 0.702260 0.355866 0.135596
H79   H     H_    0.049278 0.288562 0.179973 0.124108
H80   H     H_    0.375667 0.694490 0.357659 0.126864
O1    O     O_R   0.107310 0.560570 0.000010 -0.616322
O2    O     O_R   0.939430 0.607310 0.500010 -0.616323
O3    O     O_R   0.392690 0.939430 0.500010 -0.616317
O4    O     O_R   0.060570 0.392690 0.500010 -0.616322
O5    O     O_R   0.607310 0.939430 0.499990 -0.616316
O6    O     O_R   0.939430 0.392690 0.499990 -0.616314
O7    O     O_R   0.392690 0.060570 0.499990 -0.616318
O8    O     O_R   0.060570 0.607310 0.499990 -0.616313
O9    O     O_R   0.999950 0.560580 0.066080 -0.609114
O10   O     O_R   0.439420 0.999950 0.066080 -0.609112
O11   O     O_R   0.000050 0.439420 0.066080 -0.609114
O12   O     O_R   0.439430 0.107310 0.000010 -0.616325
O13   O     O_R   0.560580 0.000050 0.066080 -0.609112
O14   O     O_R   0.999950 0.439420 0.933920 -0.609114
O15   O     O_R   0.439420 0.000050 0.933920 -0.609117
O16   O     O_R   0.000050 0.560580 0.933920 -0.609115
O17   O     O_R   0.560580 0.999950 0.933920 -0.609118
O18   O     O_R   0.499950 0.060580 0.566080 -0.609109
O19   O     O_R   0.939420 0.499950 0.566080 -0.609107
O20   O     O_R   0.500050 0.939420 0.566080 -0.609109
O21   O     O_R   0.060580 0.500050 0.566080 -0.609107
O22   O     O_R   0.499950 0.939420 0.433920 -0.609109
O23   O     O_R   0.892690 0.439430 0.000010 -0.616319
O24   O     O_R   0.939420 0.500050 0.433920 -0.609113
O25   O     O_R   0.500050 0.060580 0.433920 -0.609110
O26   O     O_R   0.060580 0.499950 0.433920 -0.609114
O27   O     O_R   0.499980 0.392670 0.037330 -0.612018
O28   O     O_R   0.607330 0.499980 0.037330 -0.612018
O29   O     O_R   0.500020 0.607330 0.037330 -0.612017
O30   O     O_R   0.392670 0.500020 0.037330 -0.612017
O31   O     O_R   0.499980 0.607330 0.962670 -0.612017
O32   O     O_R   0.607330 0.500020 0.962670 -0.612018
O33   O     O_R   0.500020 0.392670 0.962670 -0.612018
O34   O     O_R   0.560570 0.892690 0.000010 -0.616324
O35   O     O_R   0.392670 0.499980 0.962670 -0.612018
O36   O     O_R   0.999980 0.892670 0.537330 -0.612017
O37   O     O_R   0.107330 0.999980 0.537330 -0.612017
O38   O     O_R   0.000020 0.107330 0.537330 -0.612017
O39   O     O_R   0.892670 0.000020 0.537330 -0.612016
O40   O     O_R   0.999980 0.107330 0.462670 -0.612016
O41   O     O_R   0.107330 0.000020 0.462670 -0.612017
O42   O     O_R   0.000020 0.892670 0.462670 -0.612017
O43   O     O_R   0.892670 0.999980 0.462670 -0.612017
O44   O     O_R   0.107310 0.439430 0.999990 -0.616318
O45   O     O_R   0.439430 0.892690 0.999990 -0.616317
O46   O     O_R   0.892690 0.560570 0.999990 -0.616321
O47   O     O_R   0.560570 0.107310 0.999990 -0.616315
O48   O     O_R   0.607310 0.060570 0.500010 -0.616320
Zn1   Zn    Zn3+2 1.000000 0.580890 0.000000 1.020916
Zn2   Zn    Zn3+2 0.500000 0.500000 0.950170 1.002521
Zn3   Zn    Zn3+2 0.000000 0.000000 0.549830 1.002537
Zn4   Zn    Zn3+2 1.000000 0.000000 0.450170 1.002531
Zn5   Zn    Zn3+2 0.419110 0.000000 0.000000 1.020917
Zn6   Zn    Zn3+2 0.000000 0.419110 0.000000 1.020916
Zn7   Zn    Zn3+2 0.580890 0.000000 0.000000 1.020914
Zn8   Zn    Zn3+2 0.500000 0.080890 0.500000 1.020924
Zn9   Zn    Zn3+2 0.919110 0.500000 0.500000 1.020925
Zn10  Zn    Zn3+2 0.500000 0.919110 0.500000 1.020924
Zn11  Zn    Zn3+2 0.080890 0.500000 0.500000 1.020922
Zn12  Zn    Zn3+2 0.500000 0.500000 0.049830 1.002527

loop_
_geom_bond_atom_site_label_1
_geom_bond_atom_site_label_2
_ccdc_geom_bond_type
C80   H51   S    
C152  Cl7   S    
C19   C20   A    
C166  C193  A    
C55   C56   A    
C4    C87   S    
O43   Zn4   S    
C78   H50   S    
C102  H69   S    
O5    Zn10  S    
C173  C199  A    
C108  C109  A    
C110  C111  A    
O22   Zn10  S    
C164  C191  A    
C81   C86   A    
C195  C198  A    
C1    C190  S    
C34   C194  S    
C62   H36   S    
C114  H79   S    
C21   C22   A    
C4    C191  A    
C142  C158  A    
C104  C105  A    
C45   C47   A    
C15   C20   A    
C75   H47   S    
C105  H72   S    
C51   C52   A    
C96   H64   S    
C129  O28   A    
C19   H80   S    
C106  H73   S    
C39   H17   S    
C13   C124  S    
C21   C192  S    
C139  C154  A    
C118  O24   A    
C144  C169  A    
C168  O3    A    
O26   Zn11  S    
C75   C76   A    
C79   O9    A    
C37   C38   A    
C130  O29   A    
C131  O35   A    
C32   H11   S    
C112  O12   A    
C120  C128  S    
O44   Zn6   S    
C74   C200  S    
C28   C33   A    
C128  O33   A    
C7    C192  A    
C39   C40   A    
C131  O30   A    
C150  C161  A    
C15   C191  S    
C100  C106  A    
O34   Zn7   S    
C142  Cl13  S    
O9    Zn1   S    
C72   C73   A    
O46   Zn1   S    
C49   H25   S    
C35   C123  T    
C141  C156  A    
C27   H7    S    
C43   H20   S    
C113  O17   A    
C5    C189  A    
C41   C195  S    
C124  O46   A    
C64   C65   A    
C175  C186  A    
C65   H39   S    
C69   C70   A    
C179  O6    A    
O14   Zn6   S    
C146  O5    A    
C88   C89   A    
C98   C99   A    
O17   Zn7   S    
C89   H59   S    
C22   C23   A    
C140  Cl11  S    
C29   H8    S    
C22   H3    S    
C163  C181  A    
C166  C182  A    
C127  C134  S    
O15   Zn5   S    
C97   C98   A    
C169  C195  A    
C57   C168  S    
C85   C86   A    
O31   Zn2   S    
C113  O15   A    
C177  C188  A    
C91   H60   S    
C38   C39   A    
C118  O26   A    
C78   C80   A    
C71   H43   S    
C165  C192  A    
C184  C185  A    
O18   Zn8   S    
C141  C170  A    
C108  H74   S    
O25   Zn8   S    
C31   C32   A    
C101  C160  S    
C3    C81   S    
C119  C131  S    
C107  C108  A    
C172  C198  A    
C89   C91   A    
C136  O43   A    
C9    C10   A    
C152  C161  A    
C76   H48   S    
O21   Zn11  S    
C33   H13   S    
C147  C160  A    
O30   Zn12  S    
C48   C53   A    
C153  C177  A    
C134  O38   A    
C116  C156  S    
C115  C158  S    
C86   H57   S    
C183  C186  A    
C91   C92   A    
C2    C120  T    
C25   C26   A    
C6    C100  S    
O40   Zn4   S    
C169  C184  A    
C29   C30   A    
C97   H65   S    
C145  Cl16  S    
C13   C121  T    
C42   H19   S    
C83   C84   A    
C172  C185  A    
C17   C18   A    
C41   C47   A    
C113  C159  S    
C115  O20   A    
C143  C167  A    
O24   Zn9   S    
C66   H40   S    
O19   Zn9   S    
C7    C107  S    
C129  O32   A    
C52   C53   A    
C69   H41   S    
C9    H1    S    
C37   H15   S    
C54   C55   A    
C51   H27   S    
O20   Zn10  S    
O10   Zn5   S    
O38   Zn3   S    
C140  C164  A    
C133  O41   A    
C68   C179  S    
C138  C166  A    
C58   H32   S    
C71   C72   A    
C170  C196  A    
C137  Cl1   S    
C87   C93   A    
C56   C58   A    
C7    C180  A    
C118  C154  S    
C34   C36   A    
C21   C27   A    
C61   C62   A    
C149  C160  A    
C10   C11   A    
O11   Zn6   S    
C63   C64   A    
C59   C60   A    
C145  C174  A    
C49   C50   A    
C31   H10   S    
C82   H52   S    
C142  C171  A    
C138  C155  A    
O1    Zn1   S    
C87   C88   A    
C111  H77   S    
O13   Zn7   S    
C41   C42   A    
C46   C125  T    
C119  C190  T    
C137  C165  A    
C5    C94   S    
C77   C78   A    
O23   Zn6   S    
C2    C112  S    
C26   C27   A    
C54   C197  S    
C1    O1    A    
C28   C29   A    
O33   Zn2   S    
C67   C199  S    
C174  C185  A    
C30   C31   A    
O4    Zn11  S    
C147  C175  A    
C117  O22   A    
C12   H34   S    
C18   C19   A    
C115  O18   A    
C180  C188  A    
O35   Zn2   S    
O41   Zn4   S    
C101  O14   A    
C16   C17   A    
C55   H30   S    
O47   Zn7   S    
C59   H33   S    
C60   H35   S    
O3    Zn10  S    
C70   C71   A    
C67   C73   A    
O39   Zn3   S    
C99   H68   S    
C18   H78   S    
C74   C80   A    
C6    C178  A    
C26   H6    S    
C16   H56   S    
C181  C188  A    
C139  Cl10  S    
C56   H31   S    
C146  O48   A    
C171  C184  A    
C84   C85   A    
C40   H18   S    
O2    Zn9   S    
C38   H16   S    
C58   C59   A    
C148  C159  A    
C197  C200  A    
C107  C114  A    
C62   C63   A    
O32   Zn2   S    
C8    C189  S    
C11   C12   A    
C151  C162  A    
C24   C122  T    
C50   C51   A    
C163  C189  A    
C1    O44   A    
C149  Cl4   S    
C93   H62   S    
O27   Zn12  S    
C178  C187  A    
C3    C175  A    
O16   Zn1   S    
C135  O34   A    
C79   O11   A    
C42   C43   A    
C157  O8    A    
C44   C45   A    
C176  C187  A    
C109  H75   S    
C110  H76   S    
C23   H4    S    
O37   Zn3   S    
C20   H2    S    
C124  O23   A    
C121  C129  S    
C61   C198  S    
C98   H66   S    
C105  C106  A    
C174  C200  A    
C3    C196  A    
C128  O27   A    
C84   H54   S    
C153  C162  A    
C32   C33   A    
C85   H55   S    
C109  C110  A    
C151  C180  A    
C101  O16   A    
C145  C159  A    
C139  C163  A    
C92   C93   A    
C77   H49   S    
C137  C154  A    
C111  C114  A    
C94   C95   A    
C164  C182  A    
C140  C155  A    
C17   H67   S    
O29   Zn12  S    
C70   H42   S    
C82   C83   A    
C4    C176  A    
C103  C104  A    
C35   C146  S    
C6    C193  A    
O48   Zn8   S    
C170  C183  A    
C136  O39   A    
C95   C96   A    
C43   C44   A    
C44   H21   S    
C81   C82   A    
C132  O42   A    
C54   C60   A    
C135  O45   A    
C34   C40   A    
C179  O4    A    
C52   H28   S    
C116  O19   A    
C132  O36   A    
C117  O25   A    
C11   H23   S    
C15   C16   A    
C153  Cl8   S    
O42   Zn4   S    
C92   H61   S    
C83   H53   S    
C88   H58   S    
C45   H22   S    
O45   Zn5   S    
C61   C66   A    
C167  C183  A    
C126  C133  S    
C8    C9    A    
C168  O7    A    
O7    Zn8   S    
C25   H5    S    
C157  O2    A    
C90   O13   A    
C150  C178  A    
C48   C196  S    
C10   H12   S    
C30   H9    S    
C102  C103  A    
C64   H38   S    
C173  C186  A    
C95   H63   S    
C74   C75   A    
C90   C161  S    
C76   C77   A    
C112  O47   A    
C57   C126  T    
O36   Zn3   S    
C46   C157  S    
C47   H24   S    
C67   C69   A    
O28   Zn12  S    
C103  H70   S    
C117  C155  S    
C14   H45   S    
C194  C199  A    
C68   C127  T    
C96   C97   A    
C100  C102  A    
C28   C193  S    
O12   Zn5   S    
C141  Cl12  S    
C5    C177  A    
C143  Cl14  S    
C24   C135  S    
C36   H14   S    
O6    Zn9   S    
C12   C14   A    
C72   H44   S    
C167  C194  A    
C144  C158  A    
C73   H46   S    
O8    Zn11  S    
C48   C49   A    
C8    C14   A    
C147  Cl2   S    
C150  Cl5   S    
C50   H26   S    
C144  Cl15  S    
C116  O21   A    
C90   O10   A    
C134  O40   A    
C138  Cl9   S    
C123  C136  S    
C165  C181  A    
C171  C197  A    
C125  C132  S    
C143  C156  A    
C63   H37   S    
C94   C99   A    
C148  C172  A    
C149  C173  A    
C182  C187  A    
C23   C25   A    
C151  Cl6   S    
C53   H29   S    
C104  H71   S    
C133  O37   A    
C130  O31   A    
C152  C176  A    
C36   C37   A    
C65   C66   A    
C79   C162  S    
C122  C130  S    
C148  Cl3   S    
