data_mof_unit_56011.cif
_audit_creation_date              2012-10-26T21:19:38-0400
_audit_creation_method            fapswitch 2.2
_symmetry_space_group_name_H-M    P1
_symmetry_Int_Tables_number       1
_space_group_crystal_system       triclinic
_cell_length_a                    10.829764
_cell_length_b                    15.183403
_cell_length_c                    13.869593
_cell_angle_alpha                 89.78699
_cell_angle_beta                  90.047106
_cell_angle_gamma                 91.371138
_cell_volume                      2279.94484864

loop_
_atom_site_label
_atom_site_type_symbol
_atom_type_description
_atom_site_fract_x
_atom_site_fract_y
_atom_site_fract_z
_atom_type_partial_charge
C1    C     C_R   0.499591 0.329766 0.500331 0.565536
C2    C     C_R   0.436907 0.812232 0.420920 0.177948
C3    C     C_R   0.496444 0.232787 0.501416 -0.084549
C4    C     C_R   0.483331 0.766990 0.501984 -0.045053
C5    C     C_R   0.553621 0.184663 0.427029 0.225080
C6    C     C_R   0.514540 0.814201 0.586736 0.216580
C7    C     C_R   0.545711 0.092903 0.426810 0.276361
C8    C     C_R   0.520771 0.906574 0.584060 0.212428
C9    C     C_R   0.476065 0.048104 0.498987 -0.038631
C10   C     C_R   0.471960 0.951259 0.503574 -0.021786
C11   C     C_R   0.567347 0.564143 0.107741 -0.140131
C12   C     C_R   0.495526 0.670253 0.500162 0.591584
C13   C     C_R   0.407379 0.456711 0.893087 -0.137200
C14   C     C_R   0.570773 0.561382 0.210100 0.427184
C15   C     C_R   0.406341 0.457907 0.790953 0.422613
C16   C     C_R   0.262538 0.496526 0.499819 0.570365
C17   C     C_R   0.737843 0.501929 0.499834 0.573592
C18   C     C_R   0.439126 0.434854 0.209743 -0.002089
C19   C     C_R   0.592840 0.542577 0.789985 0.014668
C20   C     C_R   0.440815 0.432071 0.108565 -0.162721
C21   C     C_R   0.596635 0.542376 0.891295 -0.161452
C22   C     C_R   0.503461 0.498446 0.054892 -0.009753
C23   C     C_R   0.872009 0.502531 0.498443 -0.035302
C24   C     C_R   0.502681 0.499276 0.945419 -0.007969
C25   C     C_R   0.184728 0.288641 0.248891 -0.135144
C26   C     C_R   0.862825 0.731318 0.742050 -0.112104
C27   C     C_R   0.139173 0.362165 0.296375 -0.081820
C28   C     C_R   0.894863 0.652116 0.698730 -0.053987
C29   C     C_R   0.121188 0.360135 0.396593 0.085127
C30   C     C_R   0.882906 0.641596 0.598584 0.073445
C31   C     C_R   0.153369 0.284898 0.449108 -0.064808
C32   C     C_R   0.836838 0.710653 0.542595 -0.097357
C33   C     C_R   0.200797 0.212084 0.401380 -0.104005
C34   C     C_R   0.129004 0.497239 0.498886 -0.043968
C35   C     C_R   0.808838 0.790703 0.585753 -0.078839
C36   C     C_R   0.216362 0.213870 0.301465 -0.086799
C37   C     C_R   0.821878 0.801088 0.685390 -0.060808
C38   C     C_R   0.931592 0.438337 0.443544 0.234371
C39   C     C_R   0.070080 0.564730 0.548465 0.215772
C40   C     C_3   0.757361 0.639425 0.223413 -0.158964
C41   C     C_3   0.197434 0.434830 0.766832 -0.098744
C42   C     C_3   0.849855 0.395758 0.297446 -0.082375
C43   C     C_3   0.169668 0.697827 0.533601 -0.093825
C44   C     C_3   0.222390 0.056035 0.621375 -0.095397
C45   C     C_R   0.940996 0.566466 0.550325 -0.075235
C46   C     C_3   0.233405 0.925918 0.353548 -0.107802
C47   C     C_3   0.457713 0.223802 0.733907 -0.047006
C48   C     C_3   0.475807 0.788863 0.261294 -0.055581
C49   C     C_R   0.060632 0.434100 0.445657 -0.068019
C50   C     C_R   0.415543 0.095621 0.570868 0.230527
C51   C     C_R   0.419462 0.903771 0.426590 0.231350
C52   C     C_R   0.433419 0.187242 0.576361 0.196792
Cu1   Cu    Cu3+1 0.500000 0.499990 0.596430 1.058395
Cu2   Cu    Cu3+1 0.500000 0.500010 0.403570 1.020302
H1    H     H_    0.252751 0.157272 0.264840 0.141714
H2    H     H_    0.872739 0.739369 0.819186 0.097660
H3    H     H_    0.116213 0.420073 0.254908 0.091533
H4    H     H_    0.932412 0.599979 0.742589 0.101851
H5    H     H_    0.139847 0.282174 0.526445 0.121829
H6    H     H_    0.829782 0.704305 0.465025 0.088488
H7    H     H_    0.224429 0.153797 0.441419 0.104844
H8    H     H_    0.777792 0.844924 0.541823 0.104378
H9    H     H_    0.625542 0.988297 0.376336 0.305806
H10   H     H_    0.608584 0.008791 0.638539 0.320257
H11   H     H_    0.799104 0.579706 0.191928 0.091090
H12   H     H_    0.799730 0.863072 0.718704 0.141766
H13   H     H_    0.820058 0.663230 0.281504 0.130847
H14   H     H_    0.752212 0.692730 0.168627 0.100381
H15   H     H_    0.132445 0.414672 0.708631 0.145795
H16   H     H_    0.189814 0.507448 0.775696 0.135758
H17   H     H_    0.167323 0.399515 0.833301 0.084684
H18   H     H_    0.886647 0.341634 0.253225 0.144808
H19   H     H_    0.896969 0.458679 0.274963 0.076577
H20   H     H_    0.750367 0.400559 0.279667 0.167440
H21   H     H_    0.086046 0.730792 0.506367 0.103377
H22   H     H_    0.225495 0.674899 0.471760 0.140404
H23   H     H_    0.613389 0.618027 0.070338 0.085450
H24   H     H_    0.225839 0.747953 0.573099 0.147393
H25   H     H_    0.199967 0.026547 0.550102 0.095343
H26   H     H_    0.190499 0.125045 0.624541 0.147307
H27   H     H_    0.170254 0.017570 0.676692 0.139052
H28   H     H_    0.194011 0.918689 0.427430 0.086453
H29   H     H_    0.216500 0.864317 0.312265 0.160931
H30   H     H_    0.182606 0.978989 0.316713 0.128206
H31   H     H_    0.415322 0.258797 0.795079 0.153040
H32   H     H_    0.550927 0.254069 0.721221 0.111358
H33   H     H_    0.466453 0.153876 0.756439 0.153600
H34   H     H_    0.333553 0.422308 0.930743 0.084166
H35   H     H_    0.450408 0.853290 0.230021 0.162687
H36   H     H_    0.575598 0.789963 0.281075 0.135669
H37   H     H_    0.461803 0.739036 0.203837 0.146041
H38   H     H_    0.666990 0.276651 0.384114 0.355119
H39   H     H_    0.549373 0.809152 0.725335 0.368654
H40   H     H_    0.391870 0.383325 0.249607 0.155628
H41   H     H_    0.665333 0.576447 0.750160 0.148331
H42   H     H_    0.394190 0.377183 0.073575 0.100415
H43   H     H_    0.674550 0.574748 0.926119 0.091799
H44   H     H_    0.196981 0.290125 0.171457 0.098749
N1    N     N_R   0.500000 0.500020 0.258690 -0.216050
N2    N     N_R   0.500000 0.499980 0.741310 -0.213288
O1    O     O_R   0.500010 0.371450 0.581430 -0.446055
O2    O     O_3   0.577082 0.950351 0.660271 -0.703647
O3    O     O_3   0.639610 0.622000 0.263811 -0.538321
O4    O     O_3   0.317543 0.410227 0.739853 -0.512465
O5    O     O_3   0.862592 0.373695 0.396229 -0.567511
O6    O     O_3   0.139095 0.628238 0.597696 -0.553557
O7    O     O_3   0.349415 0.051092 0.642081 -0.526004
O8    O     O_3   0.360426 0.949245 0.353729 -0.549065
O9    O     O_3   0.381386 0.232613 0.651931 -0.518730
O10   O     O_3   0.398950 0.765562 0.340038 -0.561244
O11   O     O_3   0.624564 0.224501 0.355959 -0.627982
O12   O     O_R   0.499990 0.628550 0.418570 -0.425071
O13   O     O_3   0.546145 0.768718 0.669497 -0.667395
O14   O     O_R   0.500010 0.371460 0.418560 -0.516530
O15   O     O_R   0.499990 0.628540 0.581440 -0.448267
O16   O     O_R   0.319640 0.500000 0.581430 -0.425486
O17   O     O_R   0.680360 0.500000 0.418570 -0.468997
O18   O     O_R   0.319640 0.500010 0.418560 -0.526482
O19   O     O_R   0.680360 0.499990 0.581440 -0.534890
O20   O     O_3   0.611958 0.049936 0.356646 -0.620440

loop_
_geom_bond_atom_site_label_1
_geom_bond_atom_site_label_2
_ccdc_geom_bond_type
C39   O6    S    
C48   O10   S    
C23   C45   A    
C27   C29   A    
C30   C45   S    
C15   N2    A    
C14   N1    A    
C38   C49   A    
C29   C49   S    
Cu1   Cu2   S    
C43   H24   S    
H10   O2    S    
C17   C23   S    
C47   H31   S    
C35   C37   A    
C11   C14   A    
C33   C36   A    
C31   H5    S    
C11   H23   S    
C16   C34   S    
C46   H28   S    
Cu1   O1    S    
C51   O8    S    
C42   H19   S    
C40   H13   S    
C46   O8    S    
C50   C52   A    
C31   C33   A    
C15   O4    S    
C4    C12   S    
C9    C10   S    
Cu1   O16   S    
C17   O17   A    
C41   H17   S    
C12   O15   A    
C20   H42   S    
C48   H36   S    
C10   C51   A    
C16   O16   A    
Cu1   N2    S    
C43   H21   S    
C42   H20   S    
C34   C39   A    
C47   H32   S    
C44   H26   S    
C4    C6    A    
C44   H27   S    
C27   H3    S    
C5    C7    A    
C6    C8    A    
C5    O11   S    
C47   O9    S    
C48   H37   S    
C13   C24   A    
C1    C3    S    
C43   O6    S    
C47   H33   S    
C2    C4    A    
C32   C35   A    
C6    O13   S    
C16   O18   A    
C21   H43   S    
C3    C52   A    
C37   H12   S    
C42   H18   S    
Cu2   O12   S    
C26   C37   A    
H39   O13   S    
C46   H30   S    
C33   H7    S    
C20   C22   A    
C48   H35   S    
Cu2   O18   S    
C40   H14   S    
C50   O7    S    
C18   H40   S    
C22   C24   S    
Cu2   N1    S    
C21   C24   A    
C1    O14   A    
C32   H6    S    
C1    O1    A    
C12   O12   A    
C19   H41   S    
C41   H15   S    
C44   O7    S    
C43   H22   S    
C7    C9    A    
C2    O10   S    
C34   C49   A    
C19   C21   A    
C7    O20   S    
C44   H25   S    
C9    C50   A    
C3    C5    A    
C26   H2    S    
C19   N2    A    
Cu1   O19   S    
H38   O11   S    
C28   H4    S    
C25   C27   A    
C23   C38   A    
C11   C22   A    
C26   C28   A    
C41   O4    S    
C39   C45   A    
C40   H11   S    
C38   O5    S    
C13   C15   A    
C29   C31   A    
C36   H1    S    
C40   O3    S    
C30   C32   A    
H9    O20   S    
C14   O3    S    
C52   O9    S    
Cu2   O14   S    
C13   H34   S    
C28   C30   A    
C35   H8    S    
C18   C20   A    
C42   O5    S    
C2    C51   A    
C17   O19   A    
C25   C36   A    
C46   H29   S    
C25   H44   S    
C8    C10   A    
C18   N1    A    
Cu2   O17   S    
C8    O2    S    
Cu1   O15   S    
C41   H16   S    
