data_mof_unit_67944.cif
_audit_creation_date              2012-12-10T19:24:07-0500
_audit_creation_method            fapswitch 2.2
_symmetry_space_group_name_H-M    P1
_symmetry_Int_Tables_number       1
_space_group_crystal_system       triclinic
_cell_length_a                    10.638757
_cell_length_b                    10.586637
_cell_length_c                    9.868318
_cell_angle_alpha                 88.623444
_cell_angle_beta                  88.865183
_cell_angle_gamma                 90.006576
_cell_volume                      1110.91652547

loop_
_atom_site_label
_atom_site_type_symbol
_atom_type_description
_atom_site_fract_x
_atom_site_fract_y
_atom_site_fract_z
_atom_type_partial_charge
C1    C     C_R   0.505839 0.258539 0.500642 0.938390
C2    C     C_R   0.501928 0.741536 0.498628 0.993583
C3    C     C_3   0.438073 0.957188 0.602679 0.321063
C4    C     C_3   0.579157 0.041970 0.389772 0.231881
C5    C     C_3   0.480094 0.387148 0.051942 -0.259075
C6    C     C_3   0.519616 0.612966 0.947924 -0.262621
C7    C     C_3   0.586930 0.425750 0.951043 -0.243295
C8    C     C_3   0.413274 0.574372 0.049111 -0.265277
C9    C     C_3   0.395108 0.462186 0.956549 0.627607
C10   C     C_3   0.604905 0.538161 0.043448 0.618699
C11   C     C_R   0.257457 0.498562 0.500518 0.829341
C12   C     C_R   0.742491 0.499207 0.499323 0.842547
C13   C     C_3   0.039329 0.416791 0.597509 -0.141299
C14   C     C_3   0.960556 0.575902 0.400870 -0.107076
C15   C     C_3   0.958092 0.379340 0.477023 -0.214289
C16   C     C_3   0.041520 0.613093 0.521166 -0.179872
C17   C     C_3   0.878149 0.497410 0.499276 0.049437
C18   C     C_3   0.121635 0.495605 0.499389 0.028039
C19   C     C_3   0.956974 0.534956 0.620192 -0.143958
C20   C     C_3   0.042953 0.457952 0.378151 -0.173166
C21   C     C_3   0.558487 0.034991 0.613265 0.336295
C22   C     C_3   0.457101 0.962443 0.381487 0.327479
C23   C     C_3   0.624912 0.954324 0.505421 0.300270
C24   C     C_3   0.391606 0.044999 0.488651 0.305111
C25   C     C_3   0.504436 0.875689 0.496407 -0.382269
C26   C     C_3   0.512548 0.124251 0.498891 -0.437194
H1    H     H_    0.922267 0.282447 0.464262 0.117433
H2    H     H_    0.081053 0.707809 0.533529 0.120704
H3    H     H_    0.077015 0.348324 0.672862 0.175294
H4    H     H_    0.923011 0.644055 0.325181 0.175709
H5    H     H_    0.919188 0.569386 0.717855 0.127817
H6    H     H_    0.080454 0.425236 0.279615 0.127393
H7    H     H_    0.659954 0.363492 0.906319 0.158876
H8    H     H_    0.340605 0.636250 0.094873 0.161198
H9    H     H_    0.460384 0.292817 0.098641 0.126350
H10   H     H_    0.536054 0.707564 0.900378 0.147761
N1    N     N_3   0.499910 0.500030 0.863290 -0.109508
N2    N     N_3   0.500090 0.499970 0.136710 -0.112146
O1    O     O_R   0.500010 0.313960 0.616610 -0.546925
O2    O     O_R   0.499990 0.686040 0.383390 -0.563612
O3    O     O_R   0.500060 0.313950 0.383350 -0.689908
O4    O     O_R   0.499940 0.686050 0.616650 -0.620695
O5    O     O_R   0.313930 0.499970 0.616610 -0.568778
O6    O     O_R   0.686070 0.500030 0.383390 -0.585010
O7    O     O_R   0.313980 0.499960 0.383350 -0.649882
O8    O     O_R   0.686020 0.500040 0.616650 -0.642715
Zn1   Zn    Zn3+2 0.499970 0.500010 0.655740 1.003354
Zn2   Zn    Zn3+2 0.500030 0.499990 0.344260 0.971836
O9    O     O_3   0.745669 0.900994 0.517931 -0.603123
C27   C     C_3   0.835000 0.999476 0.519595 0.148594
H11   H     H_    0.800270 0.086307 0.569769 0.149477
H12   H     H_    0.863583 0.023809 0.414221 0.184843
C28   C     C_3   0.950470 0.956579 0.594420 -0.895923
H13   H     H_    0.009871 0.900173 0.525556 0.246900
H14   H     H_    0.004790 0.040882 0.623908 0.232552
H15   H     H_    0.924616 0.900044 0.687063 0.264268
O10   O     O_3   0.267919 0.093029 0.489612 -0.624409
C29   C     C_3   0.243305 0.162068 0.368997 0.187529
H16   H     H_    0.323420 0.170331 0.295835 0.132932
H17   H     H_    0.217793 0.259470 0.396105 0.151467
C30   C     C_3   0.132716 0.103075 0.299765 -0.905278
H18   H     H_    0.047282 0.118162 0.362438 0.245963
H19   H     H_    0.119932 0.147943 0.198245 0.215910
H20   H     H_    0.147482 0.000036 0.288949 0.291717
O11   O     O_3   0.611646 0.079084 0.733078 -0.585061
C31   C     C_3   0.644117 0.975376 0.817918 0.111302
H21   H     H_    0.700726 0.903314 0.764333 0.176544
H22   H     H_    0.558749 0.929428 0.861654 0.184166
C32   C     C_3   0.721267 0.022466 0.933400 -0.869463
H23   H     H_    0.664494 0.091767 0.990807 0.282712
H24   H     H_    0.746859 0.942340 0.002149 0.237115
H25   H     H_    0.808577 0.068340 0.892927 0.259792
O12   O     O_3   0.392514 0.913947 0.270307 -0.597019
C33   C     C_3   0.438557 0.968890 0.147927 0.163095
H26   H     H_    0.528976 0.923435 0.119013 0.197465
H27   H     H_    0.451856 0.072554 0.154124 0.142986
C34   C     C_3   0.345021 0.947725 0.037354 -0.857424
H28   H     H_    0.247891 0.967493 0.073526 0.259215
H29   H     H_    0.366477 0.012026 0.949570 0.273347
H30   H     H_    0.351977 0.848461 0.005736 0.261619
O13   O     O_3   0.371629 0.908893 0.717871 -0.619945
C35   C     C_3   0.256971 0.855544 0.679354 0.179667
H31   H     H_    0.188353 0.932158 0.663459 0.198494
H32   H     H_    0.266772 0.799942 0.585592 0.121756
C36   C     C_3   0.206629 0.768167 0.792413 -0.866215
H33   H     H_    0.174771 0.824105 0.880043 0.241824
H34   H     H_    0.124421 0.714687 0.758147 0.214035
H35   H     H_    0.280093 0.699791 0.823674 0.290837
O14   O     O_3   0.656866 0.067128 0.273344 -0.635300
C37   C     C_3   0.713329 0.187556 0.274489 0.158129
H36   H     H_    0.735325 0.217318 0.378493 0.104276
H37   H     H_    0.650912 0.257403 0.225296 0.202757
C38   C     C_3   0.834279 0.188309 0.189310 -0.936476
H38   H     H_    0.815149 0.218803 0.083495 0.246088
H39   H     H_    0.901105 0.257197 0.229994 0.227789
H40   H     H_    0.878504 0.093412 0.188544 0.283501
O15   O     O_3   0.280828 0.419830 0.903690 -0.585554
C39   C     C_3   0.193704 0.400346 0.011757 0.080754
H41   H     H_    0.176856 0.489349 0.066816 0.134402
H42   H     H_    0.227144 0.325704 0.083688 0.132727
C40   C     C_3   0.068719 0.359025 0.956824 -0.867466
H43   H     H_    0.078670 0.266970 0.906079 0.260483
H44   H     H_    0.999273 0.349501 0.041147 0.217590
H45   H     H_    0.033947 0.432142 0.884830 0.257162
O16   O     O_3   0.718900 0.581852 0.096114 -0.587188
C41   C     C_3   0.802523 0.611640 0.987179 0.076273
H46   H     H_    0.761728 0.683564 0.916593 0.133291
H47   H     H_    0.826684 0.525070 0.930761 0.136518
C42   C     C_3   0.923099 0.666399 0.040695 -0.857646
H48   H     H_    0.972314 0.593997 0.102803 0.252094
H49   H     H_    0.985662 0.695360 0.954475 0.213386
H50   H     H_    0.902020 0.750510 0.102307 0.263253

loop_
_geom_bond_atom_site_label_1
_geom_bond_atom_site_label_2
_ccdc_geom_bond_type
C16   H2    S    
C7    C10   S    
C31   H22   S    
C21   C26   S    
C11   C18   S    
C38   H38   S    
C32   H25   S    
O12   C33   S    
C19   H5    S    
O13   C35   S    
O10   C29   S    
C34   H28   S    
C40   H43   S    
C33   H27   S    
C13   C18   S    
C22   C24   S    
C13   H3    S    
C24   C26   S    
C42   H49   S    
C36   H35   S    
C31   C32   S    
C41   H46   S    
C29   H17   S    
C22   C25   S    
C30   H19   S    
C32   H24   S    
C15   H1    S    
C24   O10   S    
C33   C34   S    
C12   C17   S    
C3    O13   S    
C27   H12   S    
C11   O5    A    
N1    Zn1   S    
N2    Zn2   S    
C29   C30   S    
C34   H29   S    
C31   H21   S    
C38   H39   S    
C5    N2    S    
C7    H7    S    
C14   C17   S    
C3    C24   S    
C32   H23   S    
C8    N2    S    
C14   H4    S    
O15   C39   S    
C28   H14   S    
C15   C20   S    
C27   C28   S    
C33   H26   S    
C13   C19   S    
C36   H34   S    
C14   C20   S    
C3    C25   S    
C12   O8    A    
C42   H50   S    
C5    C7    S    
C4    C23   S    
C8    C9    S    
C6    C8    S    
O7    Zn2   S    
C29   H16   S    
C36   H33   S    
C35   H31   S    
C30   H20   S    
C5    C9    S    
C4    C22   S    
C37   H37   S    
C9    N1    S    
C27   H11   S    
C7    N1    S    
C6    N1    S    
C8    H8    S    
C1    O3    A    
C39   H41   S    
C38   H40   S    
C35   H32   S    
C13   C15   S    
C1    C26   S    
O9    C27   S    
C14   C16   S    
C11   O7    A    
C39   C40   S    
C37   C38   S    
O1    Zn1   S    
C4    O14   S    
C20   H6    S    
C28   H15   S    
O2    Zn2   S    
O8    Zn1   S    
C9    O15   S    
C21   O11   S    
C6    C10   S    
C4    C26   S    
C28   H13   S    
C40   H45   S    
C35   C36   S    
O16   C41   S    
C39   H42   S    
C40   H44   S    
C10   N2    S    
C21   C23   S    
C12   O6    A    
C42   H48   S    
C34   H30   S    
C37   H36   S    
C41   H47   S    
C2    O4    A    
C16   C19   S    
C5    H9    S    
C17   C19   S    
O3    Zn2   S    
C6    H10   S    
C2    C25   S    
C18   C20   S    
O4    Zn1   S    
C23   C25   S    
C30   H18   S    
C3    C21   S    
C1    O1    A    
C2    O2    A    
C23   O9    S    
C16   C18   S    
O11   C31   S    
C10   O16   S    
C22   O12   S    
O14   C37   S    
C15   C17   S    
O5    Zn1   S    
O6    Zn2   S    
C41   C42   S    
