data_mof_unit_43744.cif
_audit_creation_date              2012-12-10T20:46:34-0500
_audit_creation_method            fapswitch 2.2
_symmetry_space_group_name_H-M    P1
_symmetry_Int_Tables_number       1
_space_group_crystal_system       triclinic
_cell_length_a                    10.464397
_cell_length_b                    8.939817
_cell_length_c                    8.116461
_cell_angle_alpha                 89.999987
_cell_angle_beta                  103.337895
_cell_angle_gamma                 90.003316
_cell_volume                      738.812463328

loop_
_atom_site_label
_atom_site_type_symbol
_atom_type_description
_atom_site_fract_x
_atom_site_fract_y
_atom_site_fract_z
_atom_type_partial_charge
C1    C     C_R   0.499999 0.217987 0.500000 0.955770
C2    C     C_1   0.500001 0.934822 0.500000 -0.168018
C3    C     C_2   0.971837 0.436845 0.745955 0.948840
C4    C     C_2   0.028102 0.437665 0.253593 0.949168
C5    C     C_R   0.500001 0.782019 0.500000 0.917558
C6    C     C_R   0.255762 0.503214 0.430617 0.875733
C7    C     C_R   0.744236 0.503175 0.569384 0.875837
C8    C     C_2   0.113949 0.525156 0.392492 -0.221747
C9    C     C_2   0.886069 0.524924 0.607520 -0.221945
C10   C     C_2   0.068354 0.619839 0.494825 -0.169276
C11   C     C_2   0.931722 0.619815 0.505439 -0.169580
C12   C     C_1   0.500000 0.065177 0.500000 -0.162996
H1    H     H_    0.864117 0.684228 0.409599 0.206111
H2    H     H_    0.135995 0.683965 0.590925 0.206089
H3    H     H_    0.149665 0.409744 0.905156 0.368814
H4    H     H_    0.850508 0.411797 0.093558 0.368718
N1    N     N_1   0.500020 0.500000 0.073650 -0.010687
N2    N     N_1   0.499980 0.500000 0.926350 -0.010733
O1    O     O_R   0.499990 0.285340 0.636850 -0.605936
O2    O     O_R   0.101863 0.480055 0.813477 -0.783750
O3    O     O_2   0.072039 0.327112 0.197128 -0.610448
O4    O     O_R   0.898351 0.481606 0.185765 -0.783960
O5    O     O_R   0.500010 0.714660 0.363150 -0.613204
O6    O     O_R   0.500010 0.285340 0.363150 -0.605991
O7    O     O_R   0.499990 0.714660 0.636850 -0.613218
O8    O     O_R   0.317810 0.500000 0.585760 -0.589404
O9    O     O_R   0.682190 0.500000 0.414240 -0.589486
O10   O     O_R   0.317820 0.500000 0.312020 -0.593568
O11   O     O_R   0.682180 0.500000 0.687980 -0.593669
O12   O     O_2   0.927622 0.326377 0.802236 -0.610525
Zn1   Zn    Zn3+2 0.499990 0.500000 0.682780 1.027714
Zn2   Zn    Zn3+2 0.500010 0.500000 0.317220 1.027789

loop_
_geom_bond_atom_site_label_1
_geom_bond_atom_site_label_2
_ccdc_geom_bond_type
O7    Zn1   S    
C3    O12   D    
C6    C8    S    
O6    Zn2   S    
C3    C9    S    
C11   H1    S    
C7    O9    A    
C5    O5    A    
C4    C8    S    
O1    Zn1   S    
O5    Zn2   S    
N1    N2    T    
C2    C12   T    
C3    O2    S    
O11   Zn1   S    
C4    O3    D    
C9    C11   D    
C6    O8    A    
C1    C12   S    
C7    O11   A    
H3    O2    S    
C5    O7    A    
C1    O1    A    
C2    C5    S    
C10   C11   S    
O10   Zn2   S    
C4    O4    S    
C1    O6    A    
C8    C10   D    
C10   H2    S    
C7    C9    S    
N1    Zn2   S    
H4    O4    S    
N2    Zn1   S    
O9    Zn2   S    
O8    Zn1   S    
C6    O10   A    
