data_mof_unit_43102.cif
_audit_creation_date              2012-12-10T16:48:46-0500
_audit_creation_method            fapswitch 2.2
_symmetry_space_group_name_H-M    P1
_symmetry_Int_Tables_number       1
_space_group_crystal_system       triclinic
_cell_length_a                    17.344123
_cell_length_b                    8.709242
_cell_length_c                    7.514463
_cell_angle_alpha                 102.249466
_cell_angle_beta                  93.31015
_cell_angle_gamma                 94.49853
_cell_volume                      1102.60335551

loop_
_atom_site_label
_atom_site_type_symbol
_atom_type_description
_atom_site_fract_x
_atom_site_fract_y
_atom_site_fract_z
_atom_type_partial_charge
C1    C     C_R   0.496291 0.200453 0.455294 0.845632
C2    C     C_R   0.503709 0.799547 0.544706 0.845632
C3    C     C_2   0.483571 0.034187 0.436783 0.122949
C4    C     C_2   0.516429 0.965813 0.563217 0.122949
C5    C     C_R   0.351022 0.502783 0.520541 0.828879
C6    C     C_R   0.648977 0.497217 0.479459 0.828879
C7    C     C_R   0.266994 0.514525 0.524293 -0.131142
C8    C     C_R   0.733006 0.485475 0.475707 -0.131142
C9    C     C_R   0.217891 0.491361 0.360767 0.406530
C10   C     C_R   0.782109 0.508639 0.639233 0.406529
C11   C     C_R   0.140119 0.514183 0.370296 -0.114866
C12   C     C_R   0.859881 0.485817 0.629704 -0.114866
C13   C     C_R   0.108618 0.551147 0.538504 0.064136
C14   C     C_R   0.891381 0.448853 0.461496 0.064136
C15   C     C_R   0.156034 0.575406 0.700564 -0.053361
C16   C     C_R   0.843966 0.424594 0.299436 -0.053361
C17   C     C_R   0.235002 0.557865 0.693477 -0.158536
C18   C     C_R   0.764998 0.442134 0.306523 -0.158536
C19   C     C_2   0.025343 0.561827 0.542280 0.242986
C20   C     C_2   0.974657 0.438173 0.457720 0.242986
Cu1   Cu    Cu3+1 0.508700 0.517250 0.683000 1.171055
Cu2   Cu    Cu3+1 0.491300 0.482750 0.317000 1.171055
H1    H     H_    0.728977 0.421129 0.179677 0.232710
H2    H     H_    0.271023 0.578870 0.820323 0.232710
H3    H     H_    0.131811 0.605997 0.831794 0.192471
H4    H     H_    0.868189 0.394003 0.168206 0.192471
H5    H     H_    0.896825 0.501263 0.754881 0.189040
H6    H     H_    0.103175 0.498737 0.245119 0.189040
N1    N     N_2   0.478180 0.456750 0.041980 0.070807
N2    N     N_2   0.521820 0.543250 0.958020 0.070807
O1    O     O_R   0.505650 0.286040 0.618880 -0.555534
O2    O     O_R   0.494350 0.713960 0.381120 -0.555535
O3    O     O_R   0.490960 0.256910 0.309800 -0.530479
O4    O     O_R   0.509040 0.743090 0.690200 -0.530479
O5    O     O_R   0.394600 0.516230 0.672450 -0.581692
O6    O     O_R   0.605400 0.483770 0.327550 -0.581692
O7    O     O_R   0.379910 0.487100 0.363380 -0.522022
O8    O     O_R   0.620090 0.512900 0.636620 -0.522022
Cl1   Cl    Cl    0.247104 0.429122 0.138052 -0.524641
Cl2   Cl    Cl    0.752896 0.570878 0.861947 -0.524641
Cl3   Cl    Cl    0.004574 0.252655 0.353690 -0.496358
Cl4   Cl    Cl    0.995425 0.747345 0.646310 -0.496358
Cl5   Cl    Cl    0.413395 0.935589 0.259172 -0.494610
Cl6   Cl    Cl    0.586605 0.064411 0.740828 -0.494610
Br1   Br    Br    0.407846 0.290198 0.911383 -0.203954
Br2   Br    Br    0.592154 0.709802 0.088617 -0.203954

loop_
_geom_bond_atom_site_label_1
_geom_bond_atom_site_label_2
_ccdc_geom_bond_type
C2    C4    S    
C6    O8    A    
C15   C17   A    
N1    N2    D    
Cu1   O5    S    
Cu2   N1    S    
C5    O7    A    
C11   C13   A    
Cu1   N2    S    
C19   C20   D    
C19   Cl4   S    
C9    Cl1   S    
C2    O4    A    
C13   C15   A    
C20   Cl3   S    
C1    O3    A    
Cu1   Cu2   S    
Cu1   O1    S    
C3    Cl5   S    
Cu2   O2    S    
C11   H6    S    
C10   C12   A    
C16   C18   A    
C6    O6    A    
C5    C7    S    
C9    C11   A    
C16   H4    S    
C14   C16   A    
C15   H3    S    
C17   H2    S    
C13   C19   S    
C12   H5    S    
C3    C4    D    
C5    O5    A    
C1    O1    A    
Cu2   O6    S    
C14   C20   S    
C2    O2    A    
N1    Br1   S    
C7    C9    A    
Cu2   O3    S    
C10   Cl2   S    
C6    C8    S    
Cu1   O4    S    
C4    Cl6   S    
C1    C3    S    
Cu2   O7    S    
N2    Br2   S    
C8    C10   A    
C8    C18   A    
Cu1   O8    S    
C18   H1    S    
C12   C14   A    
C7    C17   A    
