data_mof_unit_49605.cif
_audit_creation_date              2012-12-10T18:09:01-0500
_audit_creation_method            fapswitch 2.2
_symmetry_space_group_name_H-M    P1
_symmetry_Int_Tables_number       1
_space_group_crystal_system       triclinic
_cell_length_a                    12.610336
_cell_length_b                    13.112359
_cell_length_c                    13.659971
_cell_angle_alpha                 91.722368
_cell_angle_beta                  96.335342
_cell_angle_gamma                 97.604336
_cell_volume                      2222.86943834

loop_
_atom_site_label
_atom_site_type_symbol
_atom_type_description
_atom_site_fract_x
_atom_site_fract_y
_atom_site_fract_z
_atom_type_partial_charge
C1    C     C_R   0.560483 0.691620 0.509737 0.889667
C2    C     C_R   0.473688 0.036274 0.466367 0.031731
C3    C     C_R   0.394559 0.000072 0.386151 0.061703
C4    C     C_R   0.517067 0.496918 0.318320 0.872068
C5    C     C_R   0.394514 0.902363 0.341703 0.451850
C6    C     C_R   0.465047 0.838037 0.383941 -0.301621
C7    C     C_R   0.471652 0.133378 0.509608 -0.206430
C8    C     C_R   0.326486 0.164697 0.388584 -0.210501
C9    C     C_R   0.599672 0.802150 0.518839 -0.192549
C10   C     C_R   0.895496 0.350361 0.638253 -0.260737
C11   C     C_R   0.211984 0.625494 0.382868 0.050016
C12   C     C_1   0.528653 0.496016 0.217333 -0.180878
C13   C     C_R   0.109412 0.649032 0.354829 -0.240392
C14   C     C_R   0.022982 0.598748 0.397329 -0.199994
C15   C     C_R   0.039341 0.524728 0.468996 0.022159
C16   C     C_R   0.440092 0.308728 0.487875 0.858115
C17   C     C_R   0.145140 0.502813 0.493770 0.203506
C18   C     C_R   0.955639 0.472457 0.517052 -0.026843
C19   C     C_R   0.978326 0.396817 0.586834 0.096114
C20   C     C_R   0.083670 0.372144 0.605702 -0.082805
C21   C     C_R   0.165314 0.427409 0.560851 -0.261321
C22   C     C_R   0.849488 0.493697 0.499593 -0.021137
C23   C     C_R   0.319154 0.064059 0.350106 -0.171046
C24   C     C_R   0.792854 0.375880 0.618004 0.009143
C25   C     C_R   0.482977 0.503331 0.681690 0.901196
C26   C     C_1   0.471602 0.505562 0.782727 -0.143756
C27   C     C_2   0.456542 0.508979 0.970863 -0.157173
C28   C     C_2   0.544025 0.495228 0.029282 -0.168240
C29   C     C_1   0.538291 0.495350 0.131834 0.005737
C30   C     C_1   0.462053 0.507577 0.868250 0.032763
C31   C     C_2   0.111947 0.287539 0.669481 0.900120
C32   C     C_3   0.366673 0.853169 0.176637 0.057066
C33   C     C_3   0.381089 0.954665 0.123687 -0.364011
C34   C     C_R   0.405955 0.199845 0.466161 -0.038212
C35   C     C_3   0.426211 0.940482 0.025772 -0.923387
C36   C     C_3   0.861119 0.797852 0.640429 0.103393
C37   C     C_3   0.898936 0.803719 0.537157 -0.402017
C38   C     C_3   0.021643 0.819380 0.543513 -0.894470
C39   C     C_R   0.689382 0.839811 0.588059 0.496933
C40   C     C_R   0.709354 0.945655 0.612769 -0.252172
C41   C     C_R   0.641351 0.011637 0.571357 -0.234143
C42   C     C_R   0.551779 0.974365 0.501988 0.088906
C43   C     C_R   0.539135 0.870979 0.467628 -0.037049
H1    H     H_    0.618783 0.483437 0.000601 0.160358
H2    H     H_    0.381722 0.520629 0.999503 0.160660
H3    H     H_    0.274840 0.216392 0.354145 0.162157
H4    H     H_    0.258251 0.038560 0.288980 0.178815
H5    H     H_    0.524662 0.162102 0.574789 0.137239
H6    H     H_    0.662405 0.091907 0.594009 0.155807
H7    H     H_    0.774057 0.977619 0.668107 0.154288
H8    H     H_    0.075539 0.140414 0.707109 0.338838
H9    H     H_    0.311997 0.795216 0.127345 0.171748
H10   H     H_    0.444972 0.822204 0.189392 0.128448
H11   H     H_    0.302040 0.983505 0.109643 0.229579
H12   H     H_    0.461804 0.762051 0.349742 0.156210
H13   H     H_    0.437260 0.013209 0.171065 0.218586
H14   H     H_    0.506141 0.913202 0.038260 0.263580
H15   H     H_    0.435882 0.015210 0.989390 0.269970
H16   H     H_    0.370429 0.883782 0.976087 0.263791
H17   H     H_    0.899386 0.736478 0.679317 0.174369
H18   H     H_    0.890603 0.869829 0.685585 0.125165
H19   H     H_    0.866530 0.731516 0.493357 0.223695
H20   H     H_    0.868515 0.869089 0.498231 0.220850
H21   H     H_    0.055526 0.890916 0.588000 0.268405
H22   H     H_    0.046595 0.826571 0.468317 0.273545
H23   H     H_    0.728102 0.340292 0.656556 0.129776
H24   H     H_    0.054717 0.752674 0.577626 0.266822
H25   H     H_    0.908982 0.296584 0.695206 0.178574
H26   H     H_    0.824099 0.547870 0.447436 0.114652
H27   H     H_    0.279569 0.663088 0.349391 0.155846
H28   H     H_    0.945074 0.619418 0.372162 0.138596
H29   H     H_    0.096838 0.705679 0.300197 0.171190
H30   H     H_    0.244402 0.407989 0.577853 0.233990
N1    N     N_R   0.773270 0.445590 0.549770 -0.098584
N2    N     N_R   0.227520 0.553880 0.450750 -0.130835
O1    O     O_R   0.631100 0.627590 0.523760 -0.569025
O2    O     O_R   0.046769 0.191992 0.660874 -0.819011
O3    O     O_3   0.317536 0.865766 0.263783 -0.670125
O4    O     O_3   0.748083 0.770323 0.637573 -0.632994
O5    O     O_R   0.455900 0.662370 0.491970 -0.617312
O6    O     O_R   0.600200 0.480080 0.377830 -0.611881
O7    O     O_R   0.425000 0.514870 0.346040 -0.622235
O8    O     O_R   0.544100 0.337630 0.508030 -0.614110
O9    O     O_R   0.368900 0.372410 0.476240 -0.635401
O10   O     O_R   0.575000 0.485130 0.653960 -0.606400
O11   O     O_R   0.399800 0.519920 0.622170 -0.619604
O12   O     O_2   0.194869 0.300132 0.726635 -0.638219
Zn1   Zn    Zn3+2 0.616980 0.476780 0.521230 0.962301
Zn2   Zn    Zn3+2 0.383020 0.523220 0.478770 0.936578

loop_
_geom_bond_atom_site_label_1
_geom_bond_atom_site_label_2
_ccdc_geom_bond_type
C15   C18   A    
C12   C29   T    
C14   H28   S    
C3    C23   A    
C2    C7    A    
C9    C39   A    
C6    H12   S    
C37   H19   S    
C11   H27   S    
O7    Zn2   S    
C35   H15   S    
C36   C37   S    
C5    C6    A    
C21   H30   S    
C16   O9    A    
C8    C23   A    
C35   H16   S    
C18   C19   A    
C41   C42   A    
O5    Zn2   S    
C32   H9    S    
C16   C34   S    
C4    O6    A    
C19   C20   A    
C4    C12   S    
O1    Zn1   S    
C22   H26   S    
C24   H23   S    
C27   H2    S    
C33   H13   S    
O8    Zn1   S    
C13   C14   A    
C27   C30   S    
C41   H6    S    
C37   H20   S    
C31   O2    S    
C38   H21   S    
C9    C43   A    
C31   O12   D    
C23   H4    S    
C39   C40   A    
C10   C24   A    
C25   C26   S    
C28   H1    S    
C16   O8    A    
C17   C21   A    
O11   Zn2   S    
C39   O4    S    
H8    O2    S    
C37   C38   S    
C38   H22   S    
C10   C19   A    
C25   O10   A    
C1    C9    S    
C8    C34   A    
C38   H24   S    
C40   C41   A    
C26   C30   T    
C6    C43   A    
C7    C34   A    
O9    Zn2   S    
C22   N1    A    
C36   H18   S    
C3    C5    A    
C32   H10   S    
O10   Zn1   S    
C33   H11   S    
C15   C17   A    
C28   C29   S    
C18   C22   A    
C1    O1    A    
C36   H17   S    
C36   O4    S    
C13   H29   S    
C10   H25   S    
C35   H14   S    
C7    H5    S    
C2    C3    A    
C11   N2    A    
C32   C33   S    
C11   C13   A    
C24   N1    A    
C2    C42   A    
C40   H7    S    
C25   O11   A    
C33   C35   S    
C8    H3    S    
O6    Zn1   S    
N2    Zn2   S    
C32   O3    S    
C4    O7    A    
C20   C21   A    
C42   C43   A    
C27   C28   D    
C17   N2    A    
C1    O5    A    
C14   C15   A    
N1    Zn1   S    
C5    O3    S    
C20   C31   S    
