data_mof_unit_56759.cif
_audit_creation_date              2012-12-10T18:35:14-0500
_audit_creation_method            fapswitch 2.2
_symmetry_space_group_name_H-M    P1
_symmetry_Int_Tables_number       1
_space_group_crystal_system       triclinic
_cell_length_a                    14.994227
_cell_length_b                    15.469321
_cell_length_c                    16.842634
_cell_angle_alpha                 89.504518
_cell_angle_beta                  99.675292
_cell_angle_gamma                 96.421266
_cell_volume                      3826.7241411

loop_
_atom_site_label
_atom_site_type_symbol
_atom_type_description
_atom_site_fract_x
_atom_site_fract_y
_atom_site_fract_z
_atom_type_partial_charge
C1    C     C_R   0.555330 0.662102 0.516222 0.955116
C2    C     C_R   0.467199 0.184088 0.526027 0.636886
C3    C     C_R   0.170316 0.886151 0.531446 -0.100359
C4    C     C_R   0.787994 0.877468 0.659669 0.177634
C5    C     C_R   0.798366 0.857873 0.742113 -0.178524
C6    C     C_R   0.885076 0.860447 0.788557 -0.130105
C7    C     C_R   0.962041 0.879874 0.752533 -0.124991
C8    C     C_R   0.952239 0.896585 0.670128 -0.181052
C9    C     C_R   0.865661 0.895900 0.623582 -0.072118
C10   C     C_R   0.182760 0.124643 0.529266 0.221663
C11   C     C_R   0.160862 0.089580 0.601522 -0.160837
C12   C     C_R   0.070818 0.081333 0.614629 -0.194450
C13   C     C_R   0.536040 0.891411 0.575075 -0.051217
C14   C     C_R   0.001898 0.106076 0.555214 -0.102378
C15   C     C_R   0.023065 0.141844 0.483497 -0.149765
C16   C     C_R   0.113222 0.152086 0.470788 -0.069713
C17   C     C_R   0.433867 0.099452 0.545456 -0.048173
C18   C     C_R   0.627475 0.921985 0.610275 -0.172761
C19   C     C_R   0.339098 0.073058 0.527324 -0.180819
C20   C     C_R   0.467923 0.949604 0.558625 -0.124851
C21   C     C_R   0.493954 0.038523 0.575990 -0.120970
C22   C     C_R   0.577903 0.064651 0.625480 0.712938
C23   C     C_R   0.376671 0.924516 0.520019 0.672539
C24   C     C_R   0.644117 0.007448 0.643688 -0.137679
C25   C     C_R   0.443400 0.337636 0.492672 0.933308
C26   C     C_R   0.310515 0.982909 0.513963 -0.131379
C27   C     C_R   0.162770 0.619357 0.363169 0.436880
C28   C     C_R   0.837642 0.371198 0.627246 0.441872
C29   C     C_R   0.509669 0.495431 0.349205 0.942246
C30   C     C_R   0.490597 0.506688 0.650995 0.935274
C31   C     C_R   0.251685 0.602869 0.389786 0.614013
C32   C     C_R   0.748077 0.387147 0.601768 0.619162
C33   C     C_R   0.206995 0.516045 0.495395 0.738967
C34   C     C_R   0.792932 0.490758 0.508004 0.715641
C35   C     C_R   0.118156 0.543184 0.480548 -0.226822
C36   C     C_R   0.582883 0.752361 0.544448 -0.368633
C37   C     C_R   0.886932 0.484788 0.536672 -0.216310
C38   C     C_R   0.095583 0.596028 0.411631 -0.260494
C39   C     C_R   0.909162 0.423804 0.599282 -0.282031
C40   C     C_R   0.049685 0.513615 0.527188 -0.074796
C41   C     C_R   0.958748 0.531816 0.501965 -0.062093
C42   C     C_R   0.944278 0.598379 0.444990 0.653919
C43   C     C_R   0.069536 0.469689 0.600399 0.674960
C44   C     C_R   0.007452 0.624002 0.394422 -0.088981
C45   C     C_R   0.001869 0.418514 0.632239 -0.108439
C46   C     C_R   0.510361 0.492561 0.262666 -0.313872
C47   C     C_R   0.407584 0.246817 0.504761 -0.364435
C48   C     C_R   0.492094 0.532849 0.735089 -0.319013
C49   C     C_R   0.427786 0.469994 0.208660 -0.101265
C50   C     C_R   0.573056 0.571431 0.783622 -0.129794
C51   C     C_R   0.424609 0.487709 0.126320 -0.099660
C52   C     C_R   0.568917 0.609415 0.858355 -0.107089
C53   C     C_R   0.505373 0.518459 0.098248 -0.130850
C54   C     C_R   0.485990 0.601666 0.887284 -0.156665
C55   C     C_R   0.587984 0.533184 0.151114 0.536605
C56   C     C_R   0.406087 0.564729 0.838948 0.552628
C57   C     C_R   0.590283 0.522367 0.233202 0.553418
C58   C     C_R   0.696235 0.864559 0.610232 -0.125683
C59   C     C_R   0.408856 0.531400 0.763334 0.605367
C60   C     C_2   0.505657 0.527097 0.012470 0.535233
C61   C     C_2   0.488456 0.601050 0.974076 0.557145
C62   C     C_R   0.346297 0.424855 0.237717 0.173826
C63   C     C_R   0.266424 0.465416 0.234397 -0.054052
C64   C     C_R   0.191095 0.422662 0.262973 -0.203475
C65   C     C_R   0.195046 0.339524 0.295482 -0.063138
C66   C     C_R   0.274209 0.298766 0.299140 -0.091091
C67   C     C_R   0.349692 0.341249 0.270582 -0.203790
C68   C     C_R   0.663611 0.565183 0.762334 0.159621
C69   C     C_R   0.279145 0.139027 0.517617 -0.133389
C70   C     C_R   0.710185 0.635532 0.727992 -0.114522
C71   C     C_R   0.800222 0.631885 0.717251 -0.047792
C72   C     C_R   0.844056 0.558736 0.741992 -0.209100
C73   C     C_R   0.797434 0.488710 0.776515 -0.168936
C74   C     C_R   0.707289 0.491411 0.785722 -0.055424
C75   C     C_R   0.976495 0.679921 0.324755 0.174695
C76   C     C_R   0.893879 0.654181 0.273045 -0.030425
C77   C     C_R   0.860778 0.707966 0.210373 -0.091157
C78   C     C_R   0.910221 0.787383 0.197882 -0.169082
C79   C     C_R   0.993074 0.812771 0.247562 -0.142812
C80   C     C_R   0.674141 0.785410 0.567330 0.521152
C81   C     C_R   0.025252 0.760212 0.311611 0.004240
C82   C     C_R   0.033113 0.359889 0.699113 0.234262
C83   C     C_R   0.090090 0.296698 0.686702 -0.040249
C84   C     C_R   0.122096 0.242793 0.749722 -0.123990
C85   C     C_R   0.094986 0.249293 0.824506 -0.157253
C86   C     C_R   0.039031 0.312272 0.837455 -0.148884
C87   C     C_R   0.011655 0.369865 0.776165 0.006110
C88   C     C_R   0.652199 0.654261 0.907794 0.146469
C89   C     C_R   0.717871 0.606414 0.951582 -0.056077
C90   C     C_R   0.800034 0.649183 0.991416 -0.088693
C91   C     C_R   0.314254 0.224907 0.505773 0.521528
C92   C     C_R   0.816654 0.739750 0.988193 -0.148617
C93   C     C_R   0.750369 0.787871 0.946707 -0.155726
C94   C     C_R   0.668344 0.745290 0.906419 -0.107070
C95   C     C_R   0.336393 0.478347 0.070786 0.118413
C96   C     C_R   0.292555 0.395753 0.046356 -0.085862
C97   C     C_R   0.205089 0.387571 0.000801 -0.117106
C98   C     C_R   0.161487 0.461726 0.978857 -0.062288
C99   C     C_R   0.205284 0.544122 0.002433 -0.034251
C100  C     C_R   0.292396 0.552518 0.048496 -0.098337
C101  C     C_R   0.726381 0.039603 0.701148 0.178872
C102  C     C_R   0.515484 0.802257 0.560002 0.625503
C103  C     C_R   0.800016 0.087730 0.674082 -0.036558
C104  C     C_R   0.877195 0.119016 0.729164 -0.044480
C105  C     C_R   0.880046 0.104353 0.811519 -0.097895
C106  C     C_R   0.805280 0.059296 0.839056 -0.137393
C107  C     C_R   0.728163 0.027697 0.784135 -0.111467
C108  C     C_R   0.214335 0.947837 0.485085 0.209990
C109  C     C_R   0.165191 0.977834 0.413690 -0.132719
C110  C     C_R   0.071003 0.955596 0.395138 -0.180127
C111  C     C_R   0.026701 0.897997 0.444107 -0.104687
C112  C     C_R   0.077072 0.860268 0.510024 -0.173501
F1    F     F_    0.593439 0.144963 0.660895 -0.581963
F2    F     F_    0.152756 0.484533 0.647364 -0.555950
F3    F     F_    0.330408 0.492994 0.719491 -0.523763
F4    F     F_    0.669911 0.544188 0.283897 -0.580650
F5    F     F_    0.474520 0.673331 0.013625 -0.670596
F6    F     F_    0.520396 0.455992 0.971352 -0.679185
F7    F     F_    0.666040 0.560479 0.123098 -0.669604
F8    F     F_    0.326298 0.554960 0.867727 -0.619319
F9    F     F_    0.556887 0.202905 0.520963 -0.594678
F10   F     F_    0.434936 0.761364 0.574841 -0.607232
F11   F     F_    0.256628 0.287481 0.497685 -0.614483
F12   F     F_    0.351262 0.846794 0.481323 -0.605701
F13   F     F_    0.741172 0.736164 0.557381 -0.615985
F14   F     F_    0.763057 0.532742 0.439796 -0.529068
F15   F     F_    0.228538 0.448675 0.543891 -0.523640
F16   F     F_    0.680248 0.342045 0.634042 -0.538624
F17   F     F_    0.317715 0.633529 0.347608 -0.590798
F18   F     F_    0.143843 0.653399 0.288628 -0.652957
F19   F     F_    0.852560 0.305485 0.679737 -0.655256
F20   F     F_    0.875806 0.648780 0.445646 -0.584591
H1    H     H_    0.262876 0.530389 0.210634 0.185154
H2    H     H_    0.672341 0.437262 0.813564 0.174919
H3    H     H_    0.854693 0.592699 0.281768 0.209024
H4    H     H_    0.796670 0.688257 0.171646 0.219469
H5    H     H_    0.884336 0.829450 0.149886 0.141596
H6    H     H_    0.031960 0.873690 0.236854 0.138220
H7    H     H_    0.088932 0.781531 0.350404 0.181325
H8    H     H_    0.110128 0.289643 0.628425 0.183104
H9    H     H_    0.167276 0.195410 0.740572 0.149064
H10   H     H_    0.117827 0.205928 0.872558 0.128845
H11   H     H_    0.017948 0.317261 0.895431 0.117635
H12   H     H_    0.129807 0.454226 0.260377 0.158491
H13   H     H_    0.973570 0.421713 0.788484 0.096553
H14   H     H_    0.706077 0.536145 0.953525 0.169174
H15   H     H_    0.851177 0.612097 0.024108 0.144919
H16   H     H_    0.881113 0.772586 0.017413 0.129788
H17   H     H_    0.763269 0.858037 0.944428 0.128079
H18   H     H_    0.618453 0.782952 0.872509 0.136314
H19   H     H_    0.325121 0.337955 0.064359 0.142490
H20   H     H_    0.170840 0.323592 0.983823 0.124623
H21   H     H_    0.093448 0.455790 0.944377 0.114854
H22   H     H_    0.171261 0.601383 0.985920 0.140589
H23   H     H_    0.136776 0.306768 0.317868 0.132779
H24   H     H_    0.324548 0.616508 0.068681 0.194116
H25   H     H_    0.797134 0.100596 0.610538 0.128063
H26   H     H_    0.934416 0.155262 0.708114 0.159497
H27   H     H_    0.939778 0.128434 0.854105 0.124251
H28   H     H_    0.807171 0.048611 0.902875 0.129435
H29   H     H_    0.670558 0.992682 0.805972 0.124492
H30   H     H_    0.198554 0.023311 0.375803 0.123274
H31   H     H_    0.032286 0.983407 0.343028 0.134327
H32   H     H_    0.953937 0.880130 0.429188 0.169401
H33   H     H_    0.043478 0.812311 0.545489 0.166209
H34   H     H_    0.277176 0.234328 0.324303 0.120206
H35   H     H_    0.207646 0.860089 0.585336 0.152311
H36   H     H_    0.739108 0.840428 0.770196 0.122875
H37   H     H_    0.892702 0.846294 0.852170 0.138638
H38   H     H_    0.029293 0.880984 0.788232 0.137135
H39   H     H_    0.012072 0.909451 0.642482 0.146816
H40   H     H_    0.859108 0.907974 0.559541 0.143184
H41   H     H_    0.213683 0.070411 0.648221 0.136830
H42   H     H_    0.054886 0.057320 0.671628 0.136464
H43   H     H_    0.932213 0.098192 0.564798 0.124076
H44   H     H_    0.969684 0.161706 0.437806 0.136851
H45   H     H_    0.410812 0.309146 0.274105 0.129906
H46   H     H_    0.128757 0.179670 0.414745 0.124511
H47   H     H_    0.677196 0.693255 0.711426 0.116539
H48   H     H_    0.836701 0.686131 0.691108 0.200684
H49   H     H_    0.914018 0.556533 0.734477 0.154877
H50   H     H_    0.830198 0.431868 0.796365 0.176139
N1    N     N_R   0.271750 0.551950 0.454510 -0.244140
N2    N     N_R   0.728250 0.448050 0.545490 -0.259494
O1    O     O_R   0.615140 0.606020 0.522930 -0.541644
O2    O     O_R   0.384860 0.393980 0.477070 -0.537745
O3    O     O_R   0.468580 0.639400 0.493740 -0.528999
O4    O     O_R   0.531420 0.360600 0.506260 -0.531543
O5    O     O_R   0.581950 0.481350 0.400520 -0.528010
O6    O     O_R   0.418050 0.518650 0.599480 -0.518952
O7    O     O_R   0.435380 0.514730 0.371330 -0.585616
O8    O     O_R   0.564620 0.485270 0.628670 -0.606897
Zn1   Zn    Zn3+2 0.597860 0.477710 0.519490 1.125263
Zn2   Zn    Zn3+2 0.402140 0.522290 0.480510 1.146092

loop_
_geom_bond_atom_site_label_1
_geom_bond_atom_site_label_2
_ccdc_geom_bond_type
C101  C107  A    
C93   C94   A    
C92   H16   S    
C34   C37   A    
C41   C42   A    
C93   H17   S    
C45   C82   S    
O2    Zn2   S    
C22   F1    S    
C97   C98   A    
C3    H35   S    
C7    C8    A    
C55   F7    S    
C85   C86   A    
C46   C49   A    
C14   H43   S    
C15   H44   S    
C83   C84   A    
C18   C24   A    
C63   H1    S    
C30   C48   S    
C72   H49   S    
C109  H30   S    
C43   F2    S    
C5    C6    A    
C70   H47   S    
C5    H36   S    
C62   C67   A    
C80   F13   S    
C27   C38   A    
C68   C74   A    
N2    Zn1   S    
C99   H22   S    
C33   F15   S    
N1    Zn2   S    
C108  C109  A    
C36   C102  A    
C24   C101  S    
C73   C74   A    
C23   C26   A    
C19   C26   A    
C110  C111  A    
C104  C105  A    
C17   C19   A    
C53   C60   S    
C40   C43   A    
C95   C96   A    
C16   H46   S    
C8    C9    A    
C49   C51   A    
C33   N1    A    
C50   C52   A    
C29   O7    A    
C60   F6    S    
C70   C71   A    
C77   H4    S    
C30   O8    A    
C25   C47   S    
C13   C20   A    
C8    H39   S    
C58   C80   A    
C39   C45   A    
C100  H24   S    
C48   C50   A    
C66   C67   A    
C98   H21   S    
C69   C91   A    
C101  C103  A    
C91   F11   S    
C21   C22   A    
C2    C17   A    
C56   F8    S    
C1    O3    A    
C42   C44   A    
C31   F17   S    
C83   H8    S    
C76   H3    S    
C52   C54   A    
C86   H11   S    
C57   F4    S    
C54   C56   A    
C53   C55   A    
C89   H14   S    
C88   C94   A    
O1    Zn1   S    
C11   H41   S    
C15   C16   A    
C66   H34   S    
C27   C31   A    
C25   O2    A    
C11   C12   A    
C107  H29   S    
C28   C32   A    
C35   C38   A    
C84   C85   A    
C67   H45   S    
C26   C108  S    
C79   C81   A    
C95   C100  A    
C103  H25   S    
C64   H12   S    
C28   C39   A    
C77   C78   A    
C96   H19   S    
C61   F5    S    
C17   C21   A    
C60   C61   D    
C51   C53   A    
C71   H48   S    
C44   C75   S    
C75   C76   A    
C38   C44   A    
C90   H15   S    
C25   O4    A    
C90   C92   A    
C99   C100  A    
C20   C23   A    
C52   C88   S    
C3    C112  A    
C34   F14   S    
C96   C97   A    
C20   C21   A    
C62   C63   A    
C76   C77   A    
C34   N2    A    
C43   C45   A    
C6    C7    A    
C13   C18   A    
C68   C70   A    
C40   C41   A    
C12   C14   A    
O4    Zn1   S    
C82   C83   A    
C55   C57   A    
C46   C57   A    
C36   C80   A    
C2    C47   A    
C22   C24   A    
C19   C69   A    
C65   C66   A    
C78   H5    S    
C103  C104  A    
C48   C59   A    
C12   H42   S    
C2    F9    S    
C81   H7    S    
C49   C62   S    
C87   H13   S    
C111  C112  A    
C31   N1    A    
C86   C87   A    
C47   C91   A    
C32   N2    A    
C65   H23   S    
C75   C81   A    
C111  H32   S    
C104  H26   S    
C72   C73   A    
C85   H10   S    
C110  H31   S    
C13   C102  A    
C23   F12   S    
C54   C61   S    
C1    O1    A    
C3    C108  A    
C94   H18   S    
C105  C106  A    
C56   C59   A    
C29   C46   S    
C28   F19   S    
C64   C65   A    
C32   F16   S    
C35   C40   A    
C89   C90   A    
O7    Zn2   S    
C71   C72   A    
C37   C39   A    
C10   C16   A    
C109  C110  A    
O8    Zn1   S    
C73   H50   S    
C78   C79   A    
C105  H27   S    
C84   H9    S    
C106  H28   S    
C112  H33   S    
C74   H2    S    
C92   C93   A    
C33   C35   A    
C97   H20   S    
C18   C58   A    
C29   O5    A    
C30   O6    A    
C37   C41   A    
C10   C11   A    
O6    Zn2   S    
C63   C64   A    
C10   C69   S    
O5    Zn1   S    
C4    C5    A    
C79   H6    S    
C88   C89   A    
C59   F3    S    
C98   C99   A    
C106  C107  A    
C7    H38   S    
C4    C58   S    
O3    Zn2   S    
C27   F18   S    
C14   C15   A    
C9    H40   S    
C42   F20   S    
C4    C9    A    
C102  F10   S    
C50   C68   S    
C82   C87   A    
C1    C36   S    
C51   C95   S    
C6    H37   S    
