data_mof_unit_31496.cif
_audit_creation_date              2012-12-11T14:56:05-0500
_audit_creation_method            fapswitch 2.2
_symmetry_space_group_name_H-M    P1
_symmetry_Int_Tables_number       1
_space_group_crystal_system       triclinic
_cell_length_a                    28.165179
_cell_length_b                    17.229162
_cell_length_c                    18.108185
_cell_angle_alpha                 89.982993
_cell_angle_beta                  138.156322
_cell_angle_gamma                 90.022649
_cell_volume                      5861.96028465

loop_
_atom_site_label
_atom_site_type_symbol
_atom_type_description
_atom_site_fract_x
_atom_site_fract_y
_atom_site_fract_z
_atom_type_partial_charge
C1    C     C_R   0.664414 0.926815 0.816280 -0.119093
C2    C     C_3   0.285631 0.703999 0.022595 0.132833
C3    C     C_3   0.659194 0.752813 0.952465 -0.003178
C4    C     C_3   0.205724 0.796259 0.932531 -0.011335
C5    C     C_3   0.838635 0.252602 0.045048 -0.021697
C6    C     C_3   0.791798 0.806348 0.082499 -0.059799
C7    C     C_3   0.159267 0.258282 0.958829 -0.010609
C8    C     C_3   0.266355 0.769539 0.053297 -0.007714
C9    C     C_3   0.784707 0.279078 0.922991 -0.017149
C10   C     C_3   0.739902 0.779777 0.962438 -0.042759
C11   C     C_3   0.220047 0.283903 0.082411 -0.012671
C12   C     C_3   0.759798 0.279224 0.039474 -0.011692
C13   C     C_3   0.239847 0.349931 0.051368 0.135429
C14   C     C_3   0.275906 0.782694 0.917451 -0.020992
C15   C     C_3   0.233232 0.269527 0.951635 -0.046548
C16   C     C_3   0.712632 0.778218 0.075453 -0.015808
C17   C     C_3   0.318468 0.823558 0.071542 -0.079915
C18   C     C_3   0.725327 0.233768 0.894450 -0.073699
C19   C     C_3   0.679258 0.825776 0.930152 -0.034471
C20   C     C_3   0.272325 0.229848 0.101820 -0.057958
C21   C     C_3   0.819973 0.325133 0.069963 -0.082972
C22   C     C_3   0.224491 0.729271 0.900900 -0.073261
C23   C     C_3   0.180312 0.324514 0.929779 -0.035322
C24   C     C_3   0.719538 0.708046 0.983618 0.134154
C25   C     C_3   0.772676 0.733162 0.105247 -0.059240
C26   C     C_1   0.850354 0.891469 0.646142 0.047405
C27   C     C_1   0.232972 0.047184 0.610501 0.042497
C28   C     C_1   0.062429 0.796378 0.163520 0.047577
C29   C     C_1   0.763806 0.048581 0.384172 0.052743
C30   C     C_1   0.434018 0.328399 0.805610 0.061172
C31   C     C_1   0.746503 0.559171 0.618357 0.040864
C32   C     C_1   0.567679 0.333651 0.200391 0.063709
C33   C     C_1   0.306371 0.554746 0.494489 0.045164
C34   C     C_3   0.485651 0.687503 0.559083 -1.005244
C35   C     C_3   0.257383 0.849209 0.949992 0.131901
C36   C     C_3   0.622100 0.303786 0.505749 -0.893205
C37   C     C_3   0.568749 0.682140 0.420338 -0.939461
C38   C     C_3   0.430697 0.295140 0.496437 -0.881686
C39   C     C_3   0.943091 0.181079 0.592633 -0.932659
C40   C     C_3   0.088254 0.797602 0.496682 -0.909332
C41   C     C_3   0.055479 0.178628 0.410533 -0.939507
C42   C     C_3   0.949864 0.802907 0.501866 -0.948205
C43   C     C_1   0.258571 0.760711 0.124703 0.076025
C44   C     C_1   0.796786 0.277086 0.856896 0.071447
C45   C     C_1   0.759845 0.777399 0.907249 0.082767
C46   C     C_3   0.779073 0.208063 0.015791 0.136029
C47   C     C_1   0.215761 0.289506 0.158209 0.074800
C48   C     C_1   0.742533 0.277268 0.098674 0.082092
C49   C     C_1   0.279400 0.787580 0.840639 0.081595
C50   C     C_1   0.243877 0.258345 0.884425 0.085001
C51   C     C_1   0.701126 0.775608 0.142270 0.081035
C52   C     C_1   0.637736 0.341163 0.858490 0.027671
C53   C     C_1   0.408710 0.736735 0.095636 0.067586
C54   C     C_1   0.363168 0.321199 0.128657 0.042547
C55   C     C_1   0.586369 0.727150 0.884738 0.050751
C56   C     C_1   0.136176 0.820423 0.881028 0.041778
C57   C     C_3   0.731532 0.850974 0.051139 0.135305
C58   C     C_1   0.909394 0.223794 0.106512 0.069359
C59   C     C_1   0.861660 0.840894 0.147411 0.035490
C60   C     C_1   0.086525 0.242162 0.899893 0.062554
C61   C     C_3   0.711557 0.445315 0.800614 -0.908157
C62   C     C_3   0.355964 0.613195 0.178872 -0.908172
C63   C     C_3   0.197784 0.471913 0.056390 -0.898254
C64   C     C_3   0.660130 0.580175 0.903624 -0.893621
C65   C     C_3   0.186206 0.943540 0.797714 -0.908536
C66   C     C_3   0.834894 0.120167 0.170192 -0.910274
C67   C     C_3   0.675391 0.963139 0.045108 -0.891405
C68   C     C_3   0.212054 0.204374 0.979896 0.130147
C69   C     C_3   0.145746 0.080460 0.913038 -0.906762
C70   C     C_R   0.731069 0.765986 0.657819 0.117633
C71   C     C_R   0.385446 0.154204 0.638053 0.110860
C72   C     C_R   0.289037 0.755470 0.398830 0.116092
C73   C     C_R   0.312613 0.101299 0.197763 -0.155037
C74   C     C_R   0.617844 0.159312 0.368756 0.096933
C75   C     C_R   0.223970 0.260026 0.635937 0.127462
C76   C     C_R   0.834298 0.696407 0.541408 0.110637
C77   C     C_R   0.774910 0.261408 0.361661 0.129050
C78   C     C_R   0.109986 0.639909 0.352214 0.113550
C79   C     C_R   0.398011 0.258109 0.741391 0.025924
C80   C     C_R   0.759232 0.641779 0.636963 0.024941
C81   C     C_R   0.602979 0.262465 0.262374 0.014260
C82   C     C_R   0.273747 0.627434 0.434811 0.032391
C83   C     C_R   0.837163 0.808952 0.623733 0.026620
C84   C     C_R   0.335933 0.926573 0.184056 -0.123712
C85   C     C_R   0.252722 0.128231 0.634412 0.017615
C86   C     C_R   0.101228 0.733810 0.243103 0.038796
C87   C     C_R   0.745012 0.129888 0.361609 0.015050
C88   C     C_R   0.425390 0.215382 0.714723 -0.206808
C89   C     C_R   0.723949 0.685111 0.650289 -0.209024
C90   C     C_R   0.578068 0.221697 0.294348 -0.215990
C91   C     C_R   0.316613 0.683732 0.453923 -0.249286
C92   C     C_R   0.842131 0.776488 0.560145 -0.223896
C93   C     C_R   0.213502 0.179815 0.632056 -0.208737
C94   C     C_R   0.069792 0.694249 0.265795 -0.243096
C95   C     C_R   0.687218 0.102866 0.802032 -0.155253
C96   C     C_R   0.784949 0.181152 0.365005 -0.217895
C97   C     C_R   0.333357 0.118869 0.621568 -0.247629
C98   C     C_R   0.791042 0.797250 0.693829 -0.242760
C99   C     C_R   0.666997 0.122197 0.379639 -0.248080
C100  C     C_R   0.215725 0.769199 0.318850 -0.233372
C101  C     C_R   0.811973 0.649301 0.574028 -0.253346
C102  C     C_R   0.289942 0.285445 0.686018 -0.252981
C103  C     C_R   0.168243 0.606132 0.384987 -0.236889
C104  C     C_R   0.709008 0.287304 0.311468 -0.251661
C105  C     C_R   0.308314 0.157835 0.655196 0.103141
C106  C     C_R   0.165137 0.425729 0.816469 -0.117438
C107  C     C_R   0.812478 0.762589 0.653710 0.095140
C108  C     C_R   0.690352 0.160203 0.342813 0.105608
C109  C     C_R   0.172402 0.716223 0.306790 0.093283
C110  C     C_R   0.796392 0.682775 0.624168 0.099588
C111  C     C_R   0.333917 0.233682 0.699296 0.098150
C112  C     C_R   0.203316 0.646873 0.370486 0.101095
C113  C     C_R   0.665212 0.236305 0.299559 0.098517
C114  C     C_R   0.360678 0.072109 0.492734 -0.156341
C115  C     C_R   0.676447 0.898444 0.604258 -0.194704
C116  C     C_R   0.642013 0.074416 0.511705 -0.161096
C117  C     C_R   0.812448 0.602940 0.199259 -0.144623
C118  C     C_R   0.326659 0.895526 0.409781 -0.174911
C119  C     C_R   0.839084 0.589241 0.450538 -0.168617
C120  C     C_R   0.175296 0.396285 0.598453 -0.203241
C121  C     C_R   0.136048 0.568389 0.502891 -0.144702
C122  C     C_R   0.824770 0.397415 0.402784 -0.179307
C123  C     C_R   0.408012 0.801527 0.489925 0.182287
C124  C     C_R   0.567623 0.176122 0.439721 0.153515
C125  C     C_R   0.597200 0.803292 0.515883 0.172660
C126  C     C_R   0.437470 0.171639 0.569663 0.171522
C127  C     C_R   0.905949 0.303312 0.492464 0.167161
C128  C     C_R   0.836454 0.427082 0.184130 -0.119428
C129  C     C_R   0.058894 0.667613 0.423487 0.181844
C130  C     C_R   0.093517 0.302908 0.507346 0.170317
C131  C     C_R   0.919372 0.685544 0.533948 0.191462
C132  C     C_R   0.604073 0.194075 0.712665 -0.155679
C133  C     C_R   0.420234 0.835924 0.273897 -0.122070
C134  C     C_R   0.395209 0.192852 0.284193 -0.140477
C135  C     C_R   0.578906 0.838291 0.726540 -0.136495
C136  C     C_R   0.103708 0.692312 0.716824 -0.151128
C137  C     C_R   0.920109 0.335809 0.273805 -0.143753
C138  C     C_R   0.895827 0.693658 0.286203 -0.139818
C139  C     C_R   0.186558 0.600735 0.805047 -0.156635
C140  C     C_R   0.080389 0.336096 0.726843 -0.145296
C141  C     C_R   0.635856 0.870742 0.828752 0.072778
C142  C     C_R   0.325031 0.176010 0.190874 0.101664
C143  C     C_R   0.363959 0.869463 0.171774 0.076794
C144  C     C_R   0.673967 0.178406 0.806442 0.091696
C145  C     C_R   0.136764 0.369308 0.828799 0.086589
C146  C     C_R   0.825140 0.678383 0.193946 0.085589
C147  C     C_R   0.864334 0.369606 0.171805 0.083976
C148  C     C_R   0.172764 0.674668 0.812641 0.093699
C149  C     C_R   0.394263 0.132885 0.569881 0.008523
C150  C     C_3   0.766488 0.351400 0.948966 0.134155
C151  C     C_R   0.669739 0.818890 0.593369 0.043126
C152  C     C_R   0.611228 0.138130 0.439572 0.046191
C153  C     C_R   0.339298 0.816295 0.433833 -0.013247
C154  C     C_R   0.859861 0.660744 0.503562 0.005608
C155  C     C_R   0.165724 0.316821 0.579111 0.043178
C156  C     C_R   0.100189 0.625795 0.420754 -0.009964
C157  C     C_R   0.833761 0.317783 0.420708 0.034982
C158  C     C_3   0.706754 0.306597 0.919245 -0.009938
C159  C     C_3   0.337416 0.756733 0.040110 -0.020166
C160  C     C_3   0.292412 0.296394 0.072149 -0.059743
H1    H     H_    0.712747 0.959216 0.881686 0.100450
H2    H     H_    0.725222 0.930431 0.668878 0.115043
H3    H     H_    0.634423 0.971380 0.954122 0.244795
H4    H     H_    0.245814 0.096138 0.979177 0.175391
H5    H     H_    0.152453 0.018109 0.906984 0.263088
H6    H     H_    0.092510 0.098906 0.831880 0.259655
H7    H     H_    0.148607 0.087316 0.977191 0.244031
H8    H     H_    0.678984 0.033062 0.531514 0.120317
H9    H     H_    0.275094 0.923300 0.351091 0.112307
H10   H     H_    0.792882 0.555389 0.412098 0.117725
H11   H     H_    0.225949 0.425263 0.663304 0.116653
H12   H     H_    0.172875 0.526072 0.524616 0.117944
H13   H     H_    0.774405 0.426902 0.338402 0.109309
H14   H     H_    0.581894 0.251319 0.680830 0.119005
H15   H     H_    0.450402 0.786704 0.290796 0.116367
H16   H     H_    0.417501 0.250202 0.310803 0.105674
H17   H     H_    0.261727 0.074204 0.148113 0.116053
H18   H     H_    0.544387 0.794387 0.708442 0.136096
H19   H     H_    0.082990 0.750271 0.689148 0.123751
H20   H     H_    0.950664 0.287200 0.290982 0.129672
H21   H     H_    0.920260 0.750144 0.315166 0.141329
H22   H     H_    0.049584 0.287979 0.710079 0.133978
H23   H     H_    0.806028 0.856647 0.721460 0.129662
H24   H     H_    0.307343 0.066263 0.573203 0.131591
H25   H     H_    0.194073 0.823759 0.274583 0.130170
H26   H     H_    0.692779 0.069217 0.427140 0.133783
H27   H     H_    0.303479 0.346378 0.702054 0.130414
H28   H     H_    0.287489 0.958729 0.118413 0.113396
H29   H     H_    0.804864 0.587572 0.557307 0.138509
H30   H     H_    0.695968 0.348337 0.295977 0.128585
H31   H     H_    0.193707 0.556101 0.438302 0.126923
H32   H     H_    0.686072 0.657347 0.642867 0.158300
H33   H     H_    0.474909 0.233768 0.747840 0.122451
H34   H     H_    0.372788 0.672372 0.518393 0.157513
H35   H     H_    0.532140 0.243771 0.270243 0.161872
H36   H     H_    0.173020 0.157479 0.621511 0.162495
H37   H     H_    0.852848 0.814357 0.526299 0.166516
H38   H     H_    0.826290 0.158538 0.377698 0.160585
H39   H     H_    0.738917 0.076240 0.855046 0.112445
H40   H     H_    0.016212 0.708766 0.220519 0.122948
H41   H     H_    0.382241 0.702201 0.398730 0.179877
H42   H     H_    0.486843 0.677822 0.621012 0.253343
H43   H     H_    0.482975 0.630031 0.528327 0.264566
H44   H     H_    0.535786 0.715274 0.599223 0.265195
H45   H     H_    0.528143 0.273451 0.444486 0.158639
H46   H     H_    0.608347 0.366422 0.492219 0.252352
H47   H     H_    0.652501 0.293616 0.489416 0.264454
H48   H     H_    0.656210 0.289502 0.593561 0.251653
H49   H     H_    0.517322 0.726517 0.453399 0.189340
H50   H     H_    0.213877 0.457391 0.881968 0.097448
H51   H     H_    0.582172 0.621238 0.450120 0.261375
H52   H     H_    0.608573 0.704515 0.426346 0.267734
H53   H     H_    0.516455 0.681959 0.332023 0.245471
H54   H     H_    0.496769 0.269494 0.661931 0.161089
H55   H     H_    0.435467 0.358463 0.512153 0.252817
H56   H     H_    0.374917 0.282272 0.415475 0.263111
H57   H     H_    0.467263 0.279030 0.493258 0.222385
H58   H     H_    0.982907 0.228093 0.540779 0.155085
H59   H     H_    0.911569 0.205106 0.602797 0.268282
H60   H     H_    0.923981 0.121574 0.558145 0.258647
H61   H     H_    0.761204 0.576262 0.148861 0.110536
H62   H     H_    0.999257 0.175332 0.675177 0.242164
H63   H     H_    0.033241 0.770835 0.338344 0.177472
H64   H     H_    0.067041 0.857755 0.472064 0.256044
H65   H     H_    0.142586 0.798102 0.535376 0.262799
H66   H     H_    0.091442 0.777380 0.558452 0.250115
H67   H     H_    0.016925 0.229295 0.462607 0.154043
H68   H     H_    0.075413 0.119772 0.447215 0.258591
H69   H     H_    0.085326 0.201624 0.396782 0.268787
H70   H     H_    0.999109 0.170972 0.329852 0.245538
H71   H     H_    0.990868 0.768435 0.653808 0.172194
H72   H     H_    0.788737 0.460310 0.118577 0.112505
H73   H     H_    0.971710 0.862018 0.536225 0.257143
H74   H     H_    0.894919 0.808437 0.416115 0.265616
H75   H     H_    0.983545 0.772268 0.500136 0.254123
H76   H     H_    0.812171 0.454122 0.964242 0.174818
H77   H     H_    0.706534 0.508910 0.786331 0.256561
H78   H     H_    0.658408 0.422172 0.754107 0.258346
H79   H     H_    0.729312 0.418670 0.768545 0.255709
H80   H     H_    0.253887 0.594385 0.020977 0.174502
H81   H     H_    0.375546 0.552578 0.198302 0.253098
H82   H     H_    0.336122 0.624037 0.212681 0.247228
H83   H     H_    0.238359 0.574538 0.857646 0.112300
H84   H     H_    0.401155 0.652464 0.219878 0.251360
H85   H     H_    0.281223 0.459241 0.078890 0.170051
H86   H     H_    0.217893 0.528286 0.100811 0.251655
H87   H     H_    0.174495 0.439421 0.076460 0.263246
H88   H     H_    0.155854 0.483456 0.966004 0.245010
H89   H     H_    0.765252 0.606058 0.994231 0.174765
H90   H     H_    0.670209 0.520984 0.893687 0.265534
H91   H     H_    0.608550 0.600405 0.821061 0.263806
H92   H     H_    0.656986 0.577113 0.961080 0.241500
H93   H     H_    0.291058 0.957929 0.953185 0.172693
H94   H     H_    0.322959 0.031471 0.471721 0.117313
H95   H     H_    0.176980 0.007008 0.782472 0.258201
H96   H     H_    0.136732 0.916293 0.761499 0.257349
H97   H     H_    0.198211 0.920569 0.755760 0.256399
H98   H     H_    0.737409 0.103129 0.005925 0.172889
H99   H     H_    0.855456 0.059847 0.194233 0.252799
H100  H     H_    0.807575 0.131370 0.191860 0.248434
H101  H     H_    0.880735 0.160167 0.218274 0.249359
H102  H     H_    0.763378 0.965406 0.078304 0.173581
H103  H     H_    0.688471 0.020646 0.084400 0.250255
H104  H     H_    0.653704 0.925786 0.064523 0.262038
N1    N     N_R   0.625380 0.928280 0.709340 -0.040795
N2    N     N_R   0.613900 0.929750 0.547530 -0.048401
N3    N     N_R   0.613900 0.070250 0.547530 -0.045091
N4    N     N_R   0.386100 0.929750 0.452470 -0.050102
N5    N     N_R   0.886100 0.570250 0.452470 -0.046505
N6    N     N_R   0.113900 0.429750 0.547530 -0.047507
N7    N     N_R   0.113900 0.570250 0.547530 -0.047729
N8    N     N_R   0.886100 0.429750 0.452470 -0.046112
N9    N     N_R   0.437800 0.869550 0.507970 -0.057940
N10   N     N_R   0.562200 0.130450 0.492030 -0.071664
N11   N     N_R   0.562200 0.869550 0.492030 -0.073045
N12   N     N_R   0.374620 0.071720 0.290660 -0.038484
N13   N     N_R   0.437800 0.130450 0.507970 -0.054598
N14   N     N_R   0.937800 0.369550 0.507970 -0.075282
N15   N     N_R   0.062200 0.630450 0.492030 -0.056897
N16   N     N_R   0.062200 0.369550 0.492030 -0.074382
N17   N     N_R   0.937800 0.630450 0.507970 -0.057400
N18   N     N_R   0.573690 0.128980 0.653840 -0.046241
N19   N     N_R   0.426310 0.871020 0.346160 -0.047416
N20   N     N_R   0.426310 0.128980 0.346160 -0.049287
N21   N     N_R   0.573690 0.871020 0.653840 -0.048093
N22   N     N_R   0.073690 0.628980 0.653840 -0.043205
N23   N     N_R   0.374620 0.928280 0.290660 -0.040995
N24   N     N_R   0.926310 0.371020 0.346160 -0.054509
N25   N     N_R   0.926310 0.628980 0.346160 -0.046413
N26   N     N_R   0.073690 0.371020 0.653840 -0.054717
N27   N     N_1   0.860859 0.957396 0.663964 -0.082892
N28   N     N_1   0.217095 0.982279 0.591374 -0.083276
N29   N     N_1   0.031292 0.846476 0.099717 -0.078708
N30   N     N_1   0.778856 0.983450 0.402084 -0.078367
N31   N     N_1   0.462890 0.384645 0.857047 -0.074775
N32   N     N_1   0.736232 0.493009 0.603461 -0.084509
N33   N     N_1   0.539372 0.390612 0.150731 -0.075967
N34   N     N_R   0.625380 0.071720 0.709340 -0.037858
N35   N     N_1   0.332476 0.496717 0.542158 -0.075759
N36   N     N_2   0.425059 0.734125 0.466987 -0.117884
N37   N     N_2   0.557414 0.257958 0.432814 -0.122285
N38   N     N_2   0.566095 0.728276 0.484295 -0.129973
N39   N     N_2   0.449010 0.253191 0.584190 -0.112099
N40   N     N_2   0.937776 0.228924 0.520569 -0.128273
N41   N     N_2   0.042041 0.748079 0.399903 -0.126702
N42   N     N_2   0.061729 0.228834 0.481933 -0.128447
N43   N     N_2   0.948681 0.761101 0.569604 -0.126056
N44   N     N_1   0.252110 0.753770 0.180369 -0.096583
N45   N     N_R   0.125380 0.428280 0.709340 -0.038471
N46   N     N_1   0.806361 0.275414 0.804894 -0.082138
N47   N     N_1   0.776727 0.775679 0.865527 -0.086532
N48   N     N_1   0.212454 0.293864 0.218043 -0.079353
N49   N     N_1   0.728445 0.275911 0.144471 -0.088396
N50   N     N_1   0.282111 0.791350 0.780049 -0.083239
N51   N     N_1   0.252986 0.249452 0.832503 -0.086738
N52   N     N_1   0.692246 0.773487 0.195176 -0.079850
N53   N     N_1   0.584103 0.369608 0.812169 -0.092317
N54   N     N_1   0.464750 0.721133 0.138671 -0.080280
N55   N     N_1   0.418700 0.341080 0.172894 -0.086816
N56   N     N_R   0.874620 0.571720 0.290660 -0.040862
N57   N     N_1   0.528997 0.707022 0.831434 -0.087748
N58   N     N_1   0.081941 0.840155 0.841863 -0.092374
N59   N     N_1   0.964861 0.201255 0.153247 -0.081621
N60   N     N_1   0.916357 0.868637 0.197955 -0.090618
N61   N     N_1   0.029289 0.229671 0.853932 -0.080125
N62   N     N_2   0.762836 0.430562 0.917943 -0.115101
N63   N     N_2   0.299457 0.624394 0.060223 -0.113851
N64   N     N_2   0.255891 0.429048 0.090936 -0.105803
N65   N     N_2   0.716390 0.631928 0.945579 -0.108080
N66   N     N_2   0.245181 0.929492 0.915624 -0.115796
N67   N     N_R   0.874620 0.428280 0.290660 -0.040442
N68   N     N_2   0.785642 0.129854 0.052371 -0.112539
N69   N     N_2   0.739030 0.929291 0.087679 -0.105398
N70   N     N_2   0.199993 0.125943 0.939308 -0.109166
N71   N     N_R   0.125380 0.571720 0.709340 -0.037075
N72   N     N_R   0.386100 0.070250 0.452470 -0.046551
Ni1   Ni    Ni4+2 0.616560 0.000000 0.627280 0.212170
Ni2   Ni    Ni4+2 0.383440 0.000000 0.372720 0.213675
Ni3   Ni    Ni4+2 0.116560 0.500000 0.627280 0.213926
Ni4   Ni    Ni4+2 0.883440 0.500000 0.372720 0.211361
Ni5   Ni    Ni4+2 0.497990 0.870580 0.500000 0.213006
Ni6   Ni    Ni4+2 0.502010 0.129420 0.500000 0.197374
Ni7   Ni    Ni4+2 0.997990 0.370580 0.500000 0.194989
Ni8   Ni    Ni4+2 0.002010 0.629420 0.500000 0.211429

loop_
_geom_bond_atom_site_label_1
_geom_bond_atom_site_label_2
_ccdc_geom_bond_type
C132  C144  A    
C26   C83   S    
C116  N3    A    
C32   C81   S    
N10   Ni6   S    
C134  H16   S    
C60   N61   T    
C101  H29   S    
C126  C149  A    
C85   C105  A    
C6    C25   S    
C106  H50   S    
C120  N6    A    
C118  C153  A    
C98   H23   S    
N19   Ni5   S    
C69   H6    S    
C37   H51   S    
C7    C68   S    
C129  N41   S    
C126  N39   S    
C2    C159  S    
C2    C22   S    
C3    C19   S    
C135  N21   A    
C27   N28   T    
C127  C157  A    
C13   C160  S    
C40   N41   S    
C97   C105  A    
N7    N15   A    
C95   C144  A    
C128  H72   S    
C4    C56   S    
N5    N17   A    
C102  C111  A    
H63   N41   S    
C30   N31   T    
C73   C142  A    
C52   C158  S    
C114  H94   S    
C11   C20   S    
C53   C159  S    
C61   H79   S    
C72   C91   A    
H102  N69   S    
C130  N42   S    
C101  C110  A    
C133  N19   A    
N24   Ni7   S    
C120  C155  A    
C82   C91   A    
C117  C146  A    
C108  C113  A    
C65   H97   S    
C20   C142  S    
C136  H19   S    
N2    N11   A    
N4    Ni2   S    
C106  N45   A    
C36   H46   S    
C64   H90   S    
C81   C90   A    
C22   C148  S    
N20   Ni6   S    
C107  C110  A    
H98   N68   S    
C31   N32   T    
C75   C93   A    
H54   N39   S    
C125  N11   A    
C16   C25   S    
N8    N14   A    
C20   C68   S    
C140  C145  A    
C129  C156  A    
C67   H103  S    
C128  C147  A    
C63   H87   S    
C5    C46   S    
N2    Ni1   S    
C8    C17   S    
C42   N43   S    
N45   Ni3   S    
C74   C90   A    
H89   N65   S    
C15   C160  S    
C11   C13   S    
C69   N70   S    
C78   C94   A    
C65   H95   S    
C127  N14   A    
C40   H66   S    
C140  H22   S    
C71   C88   A    
C33   N35   T    
C75   C155  S    
C5    C21   S    
H67   N42   S    
C63   H88   S    
C20   C160  S    
C115  C151  A    
C116  H8    S    
C121  C156  A    
C59   N60   T    
C53   N54   T    
C103  C112  A    
C16   C51   S    
N24   N67   A    
C36   N37   S    
N3    Ni1   S    
H41   N36   S    
C96   H38   S    
C99   C108  A    
C71   C97   A    
C5    C58   S    
C39   H59   S    
C138  N25   A    
C66   H100  S    
C41   N42   S    
C13   C23   S    
C36   H48   S    
N56   Ni4   S    
H45   N37   S    
C124  N37   S    
C125  C151  A    
C64   H92   S    
C85   C93   A    
C34   H44   S    
C128  N67   A    
C39   H62   S    
C66   H101  S    
C139  H83   S    
C115  N2    A    
N1    N21   A    
N26   Ni7   S    
C41   H68   S    
C3    C24   S    
N6    Ni3   S    
H71   N43   S    
C119  N5    A    
H93   N66   S    
C90   H35   S    
C63   N64   S    
C12   C46   S    
C66   N68   S    
C127  N40   S    
N12   N20   A    
C118  H9    S    
C10   C24   S    
C37   N38   S    
C134  N20   A    
C39   N40   S    
C5    C9    S    
C57   N69   S    
C4    C22   S    
C42   H75   S    
N18   Ni6   S    
C10   C45   S    
C46   N68   S    
C34   N36   S    
C132  H14   S    
N14   Ni7   S    
C133  H15   S    
C136  C148  A    
N26   N45   A    
C50   N51   T    
C52   N53   T    
C70   C89   A    
C103  H31   S    
C30   C79   S    
C131  N17   A    
C62   H81   S    
C131  N43   S    
N13   Ni6   S    
C6    C59   S    
C131  C154  A    
C70   C151  S    
C120  H11   S    
C77   C96   A    
C102  H27   S    
C14   C159  S    
C14   C22   S    
C100  H25   S    
C78   C156  S    
C138  C146  A    
N25   N56   A    
C7    C23   S    
C76   C154  S    
C89   H32   S    
C17   C159  S    
C69   H5    S    
C29   C87   S    
C140  N26   A    
C104  C113  A    
C93   H36   S    
C67   H3    S    
C9    C18   S    
C100  C109  A    
C121  H12   S    
C41   H70   S    
C19   C141  S    
C12   C158  S    
C49   N50   T    
C123  N9    A    
N1    Ni1   S    
C132  N18   A    
N12   Ni2   S    
C11   C47   S    
C6    C57   S    
C8    C43   S    
C38   H55   S    
C12   C48   S    
C31   C80   S    
C19   C57   S    
N5    Ni4   S    
C38   N39   S    
C106  C145  A    
N9    Ni5   S    
C61   H78   S    
N25   Ni8   S    
C114  N72   A    
C42   H73   S    
C73   N12   A    
C2    N63   S    
N8    Ni4   S    
N6    N16   A    
C80   C89   A    
C27   C85   S    
C150  N62   S    
C62   N63   S    
C25   C146  S    
C33   C82   S    
C121  N7    A    
N21   Ni5   S    
C122  N8    A    
C105  C111  A    
C4    C35   S    
C1    H1    S    
C38   H57   S    
C18   C46   S    
C37   H53   S    
C79   C88   A    
H76   N62   S    
C126  N13   A    
C9    C150  S    
N19   N23   A    
C58   N59   T    
C86   C109  A    
N72   Ni2   S    
C137  N24   A    
N17   Ni8   S    
C98   C107  A    
C82   C112  A    
C69   H7    S    
C37   H52   S    
C18   C158  S    
C134  C142  A    
C26   N27   T    
C67   N69   S    
C10   C19   S    
C64   N65   S    
C139  C148  A    
C118  N4    A    
N22   N71   A    
C84   N23   A    
C119  C154  A    
N15   Ni8   S    
C28   C86   S    
C95   N34   A    
C43   N44   T    
C84   H28   S    
C54   N55   T    
C7    C60   S    
C97   H24   S    
C123  C153  A    
C72   C153  S    
C150  C158  S    
C137  C147  A    
C2    C8    S    
C135  H18   S    
N11   Ni5   S    
C6    C10   S    
C62   H84   S    
C74   C99   A    
C117  N56   A    
C17   C143  S    
C18   C144  S    
C71   C149  S    
C137  H20   S    
C55   N57   T    
C122  C157  A    
C94   H40   S    
C16   C57   S    
C130  N16   A    
N16   Ni7   S    
C1    C141  A    
C54   C160  S    
C81   C113  A    
C47   N48   T    
C77   C104  A    
C17   C35   S    
C114  C149  A    
C99   H26   S    
N3    N10   A    
C117  H61   S    
C123  N36   S    
C4    C8    S    
C136  N22   A    
C67   H104  S    
H4    N70   S    
C7    C11   S    
C83   C92   A    
C23   C145  S    
N23   Ni2   S    
C40   H64   S    
C21   C147  S    
C34   H42   S    
N67   Ni4   S    
C14   C49   S    
C65   H96   S    
C15   C50   S    
C40   H65   S    
C138  H21   S    
C86   C94   A    
C124  N10   A    
C87   C108  A    
N4    N9    A    
C75   C102  A    
C130  C155  A    
C13   N64   S    
H80   N63   S    
C73   H17   S    
C15   C23   S    
C124  C152  A    
C74   C152  S    
N34   Ni1   S    
C3    C55   S    
C28   N29   T    
C56   N58   T    
C62   H82   S    
C133  C143  A    
C44   N46   T    
C39   H60   S    
C24   C25   S    
C45   N47   T    
C66   H99   S    
C109  C112  A    
C14   C35   S    
C91   H34   S    
N7    Ni3   S    
C51   N52   T    
C84   C143  A    
C12   C21   S    
C36   H47   S    
C61   N62   S    
C35   N66   S    
C64   H91   S    
C135  C141  A    
C34   H43   S    
C104  H30   S    
C87   C96   A    
C48   N49   T    
C21   C150  S    
H85   N64   S    
C76   C92   A    
C125  N38   S    
C41   H69   S    
C24   N65   S    
N22   Ni8   S    
C92   H37   S    
H58   N40   S    
C116  C152  A    
N18   N34   A    
C72   C100  A    
C76   C101  A    
C63   H86   S    
C9    C44   S    
C78   C103  A    
C38   H56   S    
C29   N30   T    
C32   N33   T    
C122  H13   S    
C79   C111  A    
C61   H77   S    
H49   N38   S    
C115  H2    S    
N71   Ni3   S    
C42   H74   S    
C139  N71   A    
C15   C68   S    
C88   H33   S    
N13   N72   A    
C83   C107  A    
C129  N15   A    
C68   N70   S    
C3    C16   S    
C119  H10   S    
C1    N1    A    
C95   H39   S    
C80   C110  A    
C65   N66   S    
C70   C98   A    
C77   C157  S    
