data_mof_unit_8204.cif
_audit_creation_date              2012-12-11T15:08:36-0500
_audit_creation_method            fapswitch 2.2
_symmetry_space_group_name_H-M    P1
_symmetry_Int_Tables_number       1
_space_group_crystal_system       triclinic
_cell_length_a                    19.370776
_cell_length_b                    11.433774
_cell_length_c                    18.682282
_cell_angle_alpha                 90.000384
_cell_angle_beta                  90.272831
_cell_angle_gamma                 90.000022
_cell_volume                      4137.72498916

loop_
_atom_site_label
_atom_site_type_symbol
_atom_type_description
_atom_site_fract_x
_atom_site_fract_y
_atom_site_fract_z
_atom_type_partial_charge
C1    C     C_R   0.272321 0.043308 0.854041 0.530807
C2    C     C_R   0.727679 0.043309 0.145959 0.530802
C3    C     C_R   0.772321 0.543308 0.854041 0.530808
C4    C     C_R   0.227680 0.543309 0.145959 0.530802
C5    C     C_3   0.520105 0.723645 0.964725 -0.113273
C6    C     C_3   0.479892 0.723640 0.035274 -0.113274
C7    C     C_3   0.020106 0.223649 0.964724 -0.113272
C8    C     C_3   0.979894 0.223639 0.035273 -0.113274
C9    C     C_3   0.312054 0.527933 0.043693 -0.235465
C10   C     C_3   0.687946 0.527939 0.956305 -0.235469
C11   C     C_3   0.812053 0.027931 0.043693 -0.235467
C12   C     C_3   0.187947 0.027935 0.956306 -0.235469
C13   C     C_3   0.321678 0.554028 0.963414 -0.234383
C14   C     C_3   0.678317 0.554054 0.036581 -0.234393
C15   C     C_3   0.821677 0.054026 0.963413 -0.234385
C16   C     C_3   0.178320 0.054044 0.036583 -0.234396
C17   C     C_3   0.180042 0.523275 0.025619 -0.207412
C18   C     C_3   0.819957 0.523276 0.974383 -0.207417
C19   C     C_3   0.680040 0.023277 0.025618 -0.207413
C20   C     C_3   0.319958 0.023278 0.974382 -0.207416
C21   C     C_3   0.240858 0.706046 0.056703 -0.257659
C22   C     C_3   0.759147 0.706050 0.943296 -0.257652
C23   C     C_3   0.740858 0.206045 0.056703 -0.257659
C24   C     C_3   0.259145 0.206048 0.943297 -0.257654
C25   C     C_3   0.241285 0.574314 0.070233 0.066650
C26   C     C_3   0.758716 0.574317 0.929766 0.066651
C27   C     C_3   0.741284 0.074314 0.070233 0.066650
C28   C     C_3   0.258717 0.074316 0.929767 0.066651
C29   C     C_3   0.255104 0.610051 0.932137 0.057332
C30   C     C_3   0.744894 0.610060 0.067861 0.057328
C31   C     C_3   0.755103 0.110050 0.932137 0.057331
C32   C     C_3   0.244895 0.110056 0.067862 0.057326
C33   C     C_3   0.195165 0.525041 0.944736 -0.254643
C34   C     C_3   0.804827 0.525038 0.055264 -0.254645
C35   C     C_3   0.695163 0.025042 0.944736 -0.254642
C36   C     C_3   0.304830 0.025040 0.055263 -0.254647
C37   C     C_3   0.238708 0.724237 0.974741 -0.220187
C38   C     C_3   0.761302 0.724242 0.025259 -0.220190
C39   C     C_3   0.738708 0.224236 0.974741 -0.220186
C40   C     C_3   0.261298 0.224239 0.025260 -0.220187
C41   C     C_3   0.497963 0.698868 0.459762 -0.239997
C42   C     C_3   0.502039 0.698867 0.540238 -0.239995
C43   C     C_3   0.997963 0.198868 0.459762 -0.239997
C44   C     C_3   0.002039 0.198867 0.540238 -0.239995
C45   C     C_R   0.444865 0.817159 0.862033 0.537744
C46   C     C_R   0.555132 0.817159 0.137966 0.537743
C47   C     C_R   0.944864 0.317159 0.862033 0.537744
C48   C     C_R   0.055132 0.317159 0.137966 0.537744
C49   C     C_3   0.568646 0.885018 0.474359 -0.228642
C50   C     C_3   0.431364 0.885025 0.525643 -0.228644
C51   C     C_3   0.068646 0.385018 0.474359 -0.228642
C52   C     C_3   0.931364 0.385026 0.525643 -0.228645
C53   C     C_3   0.446420 0.896525 0.444876 -0.256635
C54   C     C_3   0.553590 0.896517 0.555127 -0.256635
C55   C     C_3   0.946420 0.396525 0.444876 -0.256636
C56   C     C_3   0.053590 0.396517 0.555127 -0.256635
C57   C     C_3   0.510588 0.825565 0.430744 0.063060
C58   C     C_3   0.489419 0.825565 0.569258 0.063054
C59   C     C_3   0.010588 0.325565 0.430744 0.063060
C60   C     C_3   0.989419 0.325565 0.569258 0.063054
C61   C     C_3   0.180089 0.641945 0.462048 -0.247035
C62   C     C_3   0.819916 0.641938 0.537951 -0.247039
C63   C     C_3   0.680089 0.141945 0.462048 -0.247035
C64   C     C_3   0.319916 0.141938 0.537951 -0.247039
C65   C     C_3   0.179217 0.638434 0.541917 -0.263023
C66   C     C_3   0.820786 0.638431 0.458081 -0.263021
C67   C     C_3   0.679217 0.138434 0.541917 -0.263023
C68   C     C_3   0.320786 0.138431 0.458081 -0.263021
C69   C     C_3   0.249219 0.452692 0.474927 -0.215348
C70   C     C_3   0.750782 0.452688 0.525066 -0.215359
C71   C     C_3   0.749219 0.952692 0.474927 -0.215348
C72   C     C_3   0.250782 0.952688 0.525066 -0.215359
C73   C     C_3   0.306512 0.634598 0.443883 -0.264036
C74   C     C_3   0.693493 0.634595 0.556119 -0.264032
C75   C     C_3   0.806512 0.134598 0.443883 -0.264036
C76   C     C_3   0.193493 0.134595 0.556119 -0.264031
C77   C     C_3   0.240648 0.567652 0.431503 0.048595
C78   C     C_3   0.759356 0.567646 0.568494 0.048594
C79   C     C_3   0.740648 0.067652 0.431503 0.048595
C80   C     C_3   0.259356 0.067646 0.568494 0.048594
C81   C     C_3   0.251967 0.600964 0.569728 0.068067
C82   C     C_3   0.748034 0.600967 0.430272 0.068067
C83   C     C_3   0.751967 0.100964 0.569728 0.068067
C84   C     C_3   0.248034 0.100967 0.430272 0.068067
C85   C     C_3   0.259604 0.470237 0.557275 -0.116846
C86   C     C_3   0.740395 0.470239 0.442719 -0.116845
C87   C     C_3   0.759604 0.970236 0.557275 -0.116845
C88   C     C_3   0.240395 0.970239 0.442719 -0.116846
C89   C     C_R   0.262097 0.642014 0.854947 0.531471
C90   C     C_R   0.737901 0.642022 0.145051 0.531480
C91   C     C_R   0.762097 0.142013 0.854947 0.531471
C92   C     C_R   0.237902 0.142016 0.145052 0.531475
C93   C     C_3   0.308662 0.661454 0.524771 -0.224600
C94   C     C_3   0.691341 0.661456 0.475233 -0.224615
C95   C     C_3   0.808662 0.161454 0.524771 -0.224600
C96   C     C_3   0.191341 0.161456 0.475233 -0.224615
C97   C     C_R   0.273567 0.040966 0.644877 0.541267
C98   C     C_R   0.726435 0.040972 0.355121 0.541262
C99   C     C_R   0.773567 0.540966 0.644877 0.541267
C100  C     C_R   0.226435 0.540972 0.355121 0.541261
C101  C     C_R   0.468388 0.822264 0.645555 0.540928
C102  C     C_R   0.531616 0.822264 0.354447 0.540931
C103  C     C_R   0.968388 0.322264 0.645555 0.540928
C104  C     C_R   0.031616 0.322264 0.354447 0.540932
C105  C     C_R   0.260353 0.638967 0.644672 0.537541
C106  C     C_R   0.739646 0.638972 0.355329 0.537549
C107  C     C_R   0.760353 0.138967 0.644672 0.537541
C108  C     C_R   0.239646 0.138972 0.355329 0.537548
C109  C     C_3   0.479416 0.914931 0.035520 -0.110015
C110  C     C_3   0.520574 0.914936 0.964484 -0.110011
C111  C     C_3   0.979414 0.414929 0.035521 -0.110016
C112  C     C_3   0.020571 0.414939 0.964485 -0.110014
C113  C     C_3   0.431303 0.818279 0.005908 -0.158173
C114  C     C_3   0.568690 0.818287 0.994094 -0.158168
C115  C     C_3   0.931303 0.318275 0.005908 -0.158173
C116  C     C_3   0.068690 0.318293 0.994093 -0.158169
C117  C     C_3   0.472450 0.819852 0.935751 0.058377
C118  C     C_3   0.527543 0.819850 0.064250 0.058380
C119  C     C_3   0.972449 0.319853 0.935751 0.058376
C120  C     C_3   0.027544 0.319850 0.064250 0.058380
Cr1   Cr    Cr6+3 0.229620 0.836040 0.749110 0.985237
Cr2   Cr    Cr6+3 0.770380 0.836040 0.250890 0.985235
Cr3   Cr    Cr6+3 0.729620 0.336040 0.749110 0.985236
Cr4   Cr    Cr6+3 0.270380 0.336040 0.250890 0.985236
Cr5   Cr    Cr6+3 0.387630 0.990680 0.750730 0.983943
Cr6   Cr    Cr6+3 0.612370 0.990680 0.249270 0.983939
Cr7   Cr    Cr6+3 0.887630 0.490680 0.750730 0.983943
Cr8   Cr    Cr6+3 0.112370 0.490680 0.249270 0.983939
Cr9   Cr    Cr6+3 0.386020 0.676590 0.749210 0.999790
Cr10  Cr    Cr6+3 0.613980 0.676590 0.250790 0.999794
Cr11  Cr    Cr6+3 0.886020 0.176590 0.749210 0.999790
Cr12  Cr    Cr6+3 0.113980 0.176590 0.250790 0.999794
H1    H     H_    0.376340 0.805371 0.016603 0.091452
H2    H     H_    0.623654 0.805376 0.983396 0.091445
H3    H     H_    0.876341 0.305366 0.016605 0.091453
H4    H     H_    0.123652 0.305389 0.983389 0.091448
H5    H     H_    0.195238 0.748896 0.081467 0.122262
H6    H     H_    0.804767 0.748898 0.918530 0.122261
H7    H     H_    0.695238 0.248897 0.081467 0.122262
H8    H     H_    0.304765 0.248900 0.918532 0.122260
H9    H     H_    0.287463 0.745249 0.081366 0.102616
H10   H     H_    0.712542 0.745253 0.918636 0.102621
H11   H     H_    0.787463 0.245248 0.081366 0.102616
H12   H     H_    0.212540 0.245250 0.918636 0.102619
H13   H     H_    0.273959 0.793105 0.958723 0.107185
H14   H     H_    0.726063 0.793127 0.041280 0.107193
H15   H     H_    0.773960 0.293102 0.958723 0.107184
H16   H     H_    0.226052 0.293114 0.041281 0.107193
H17   H     H_    0.185346 0.751179 0.960421 0.130400
H18   H     H_    0.814668 0.751169 0.039577 0.130394
H19   H     H_    0.685348 0.251181 0.960421 0.130400
H20   H     H_    0.314660 0.251177 0.039580 0.130398
H21   H     H_    0.632718 0.076639 0.034745 0.137243
H22   H     H_    0.367281 0.076642 0.965259 0.137240
H23   H     H_    0.132719 0.576636 0.034745 0.137243
H24   H     H_    0.867280 0.576638 0.965261 0.137238
H25   H     H_    0.148441 0.553661 0.914803 0.123236
H26   H     H_    0.851549 0.553644 0.085202 0.123234
H27   H     H_    0.648440 0.053663 0.914803 0.123236
H28   H     H_    0.351552 0.053652 0.085199 0.123235
H29   H     H_    0.533262 0.630428 0.440410 0.148829
H30   H     H_    0.466738 0.630429 0.559589 0.148832
H31   H     H_    0.033262 0.130428 0.440410 0.148829
H32   H     H_    0.966738 0.130429 0.559589 0.148832
H33   H     H_    0.446567 0.669473 0.442057 0.116183
H34   H     H_    0.553435 0.669468 0.557943 0.116180
H35   H     H_    0.946567 0.169473 0.442057 0.116183
H36   H     H_    0.053435 0.169468 0.557943 0.116180
H37   H     H_    0.611069 0.827643 0.468118 0.107029
H38   H     H_    0.388938 0.827659 0.531885 0.107033
H39   H     H_    0.111069 0.327643 0.468118 0.107029
H40   H     H_    0.888938 0.327659 0.531885 0.107033
H41   H     H_    0.597778 0.864494 0.587819 0.098682
H42   H     H_    0.402229 0.864510 0.412185 0.098681
H43   H     H_    0.097778 0.364494 0.587819 0.098681
H44   H     H_    0.902229 0.364510 0.412185 0.098681
H45   H     H_    0.464268 0.994702 0.065241 0.112277
H46   H     H_    0.535718 0.994712 0.934768 0.112278
H47   H     H_    0.964265 0.494697 0.065244 0.112278
H48   H     H_    0.035713 0.494716 0.934769 0.112279
H49   H     H_    0.456950 0.989115 0.430541 0.121635
H50   H     H_    0.543064 0.989106 0.569465 0.121632
H51   H     H_    0.956950 0.489115 0.430541 0.121635
H52   H     H_    0.043064 0.489106 0.569465 0.121632
H53   H     H_    0.419973 0.970640 0.548231 0.133087
H54   H     H_    0.580045 0.970632 0.451771 0.133085
H55   H     H_    0.919974 0.470640 0.548231 0.133087
H56   H     H_    0.080045 0.470632 0.451771 0.133085
H57   H     H_    0.127596 0.627508 0.441234 0.148222
H58   H     H_    0.872407 0.627489 0.558763 0.148212
H59   H     H_    0.627596 0.127508 0.441234 0.148222
H60   H     H_    0.372407 0.127489 0.558763 0.148212
H61   H     H_    0.191243 0.730729 0.447107 0.151749
H62   H     H_    0.808769 0.730720 0.552899 0.151756
H63   H     H_    0.691243 0.230729 0.447107 0.151749
H64   H     H_    0.308769 0.230720 0.552899 0.151756
H65   H     H_    0.160910 0.725459 0.559723 0.143300
H66   H     H_    0.839096 0.725454 0.440277 0.143300
H67   H     H_    0.660910 0.225459 0.559723 0.143300
H68   H     H_    0.339096 0.225454 0.440277 0.143300
H69   H     H_    0.140281 0.576337 0.561124 0.113938
H70   H     H_    0.859719 0.576329 0.438874 0.113938
H71   H     H_    0.640281 0.076337 0.561124 0.113938
H72   H     H_    0.359719 0.076329 0.438874 0.113937
H73   H     H_    0.698612 0.918939 0.467704 0.097748
H74   H     H_    0.301392 0.918939 0.532281 0.097750
H75   H     H_    0.198612 0.418939 0.467704 0.097748
H76   H     H_    0.801392 0.418939 0.532281 0.097750
H77   H     H_    0.715986 0.925271 0.584376 0.078804
H78   H     H_    0.284012 0.925278 0.415616 0.078803
H79   H     H_    0.215986 0.425271 0.584376 0.078804
H80   H     H_    0.784012 0.425278 0.415616 0.078803
H81   H     H_    0.350629 0.580174 0.426658 0.116928
H82   H     H_    0.649375 0.580173 0.573343 0.116932
H83   H     H_    0.850629 0.080174 0.426658 0.116928
H84   H     H_    0.149375 0.080173 0.573343 0.116932
H85   H     H_    0.307579 0.716536 0.411841 0.098100
H86   H     H_    0.692430 0.716531 0.588162 0.098101
H87   H     H_    0.807579 0.216536 0.411841 0.098100
H88   H     H_    0.192430 0.216531 0.588163 0.098101
H89   H     H_    0.535603 0.643410 0.935652 0.121437
H90   H     H_    0.464398 0.643400 0.064344 0.121435
H91   H     H_    0.035606 0.143416 0.935650 0.121438
H92   H     H_    0.964402 0.143397 0.064342 0.121435
H93   H     H_    0.295115 0.750002 0.530320 0.104942
H94   H     H_    0.704891 0.750004 0.469691 0.104948
H95   H     H_    0.795115 0.250002 0.530320 0.104942
H96   H     H_    0.204891 0.250003 0.469691 0.104949
H97   H     H_    0.360107 0.645167 0.546808 0.142658
H98   H     H_    0.639896 0.645166 0.453197 0.142651
H99   H     H_    0.860107 0.145167 0.546808 0.142658
H100  H     H_    0.139896 0.145167 0.453197 0.142651
H101  H     H_    0.288469 0.394308 0.451564 0.130397
H102  H     H_    0.711533 0.394300 0.548428 0.130390
H103  H     H_    0.788469 0.894308 0.451564 0.130396
H104  H     H_    0.211533 0.894300 0.548428 0.130390
H105  H     H_    0.316787 0.433847 0.053201 0.130348
H106  H     H_    0.683220 0.433848 0.946807 0.130348
H107  H     H_    0.816785 0.933844 0.053201 0.130348
H108  H     H_    0.183221 0.933844 0.946806 0.130350
H109  H     H_    0.354274 0.569364 0.075069 0.109804
H110  H     H_    0.645727 0.569356 0.924921 0.109807
H111  H     H_    0.854273 0.069362 0.075068 0.109806
H112  H     H_    0.145727 0.069352 0.924925 0.109805
H113  H     H_    0.366155 0.613960 0.956188 0.136816
H114  H     H_    0.633850 0.614004 0.043797 0.136805
H115  H     H_    0.866154 0.113957 0.956187 0.136816
H116  H     H_    0.133852 0.113988 0.043801 0.136811
H117  H     H_    0.333977 0.471560 0.934520 0.114313
H118  H     H_    0.666002 0.471600 0.065480 0.114326
H119  H     H_    0.833975 0.971558 0.934519 0.114313
H120  H     H_    0.166009 0.971589 0.065480 0.114323
H121  H     H_    0.666114 0.937909 0.046306 0.101254
H122  H     H_    0.333886 0.937912 0.953693 0.101254
H123  H     H_    0.166116 0.437908 0.046307 0.101253
H124  H     H_    0.833884 0.437909 0.953694 0.101252
H125  H     H_    0.708987 0.937010 0.925315 0.109005
H126  H     H_    0.290999 0.937012 0.074680 0.109012
H127  H     H_    0.208989 0.437009 0.925315 0.109004
H128  H     H_    0.790992 0.437010 0.074679 0.109013
O1    O     O_R   0.214130 0.708570 0.829890 -0.530701
O2    O     O_R   0.785870 0.708570 0.170110 -0.530702
O3    O     O_R   0.714130 0.208570 0.829890 -0.530701
O4    O     O_R   0.285870 0.208570 0.170110 -0.530702
O5    O     O_R   0.446360 0.919990 0.675230 -0.509863
O6    O     O_R   0.553640 0.919990 0.324770 -0.509862
O7    O     O_R   0.946360 0.419990 0.675230 -0.509863
O8    O     O_R   0.053640 0.419990 0.324770 -0.509862
O9    O     O_R   0.457170 0.717300 0.668380 -0.524597
O10   O     O_R   0.542830 0.717300 0.331620 -0.524598
O11   O     O_R   0.957170 0.217300 0.668380 -0.524597
O12   O     O_R   0.042830 0.217300 0.331620 -0.524598
O13   O     O_R   0.320870 0.624890 0.673130 -0.497196
O14   O     O_R   0.679130 0.624890 0.326870 -0.497195
O15   O     O_R   0.820870 0.124890 0.673130 -0.497196
O16   O     O_R   0.179130 0.124890 0.326870 -0.497196
O17   O     O_3   0.334430 0.834430 0.749680 -0.284824
O18   O     O_3   0.665570 0.834430 0.250320 -0.284825
O19   O     O_3   0.834430 0.334430 0.749680 -0.284825
O20   O     O_3   0.165570 0.334430 0.250320 -0.284823
O21   O     O_R   0.236050 0.959150 0.825270 -0.513710
O22   O     O_R   0.763950 0.959150 0.174730 -0.513712
O23   O     O_R   0.736050 0.459150 0.825270 -0.513710
O24   O     O_R   0.263950 0.459150 0.174730 -0.513711
O25   O     O_R   0.332100 0.076650 0.832310 -0.541937
O26   O     O_R   0.667900 0.076650 0.167690 -0.541940
O27   O     O_R   0.832100 0.576650 0.832310 -0.541937
O28   O     O_R   0.167900 0.576650 0.167690 -0.541940
O29   O     O_R   0.446500 0.918620 0.826240 -0.506087
O30   O     O_R   0.553500 0.918620 0.173760 -0.506086
O31   O     O_R   0.946500 0.418620 0.826240 -0.506087
O32   O     O_R   0.053500 0.418620 0.173760 -0.506086
O33   O     O_R   0.457310 0.715830 0.831280 -0.525026
O34   O     O_R   0.542690 0.715830 0.168720 -0.525025
O35   O     O_R   0.957310 0.215830 0.831280 -0.525026
O36   O     O_R   0.042690 0.215830 0.168720 -0.525025
O37   O     O_R   0.321000 0.623520 0.824130 -0.521618
O38   O     O_R   0.679000 0.623520 0.175870 -0.521617
O39   O     O_R   0.821000 0.123520 0.824130 -0.521619
O40   O     O_R   0.179000 0.123520 0.175870 -0.521616
O41   O     O_R   0.213990 0.710040 0.667000 -0.541218
O42   O     O_R   0.786010 0.710040 0.333000 -0.541219
O43   O     O_R   0.713990 0.210040 0.667000 -0.541219
O44   O     O_R   0.286010 0.210040 0.333000 -0.541220
O45   O     O_R   0.235920 0.960520 0.674260 -0.513022
O46   O     O_R   0.764080 0.960520 0.325740 -0.513024
O47   O     O_R   0.735920 0.460520 0.674260 -0.513022
O48   O     O_R   0.264080 0.460520 0.325740 -0.513025
O49   O     O_R   0.331960 0.078120 0.669410 -0.532186
O50   O     O_R   0.668040 0.078120 0.330590 -0.532185
O51   O     O_R   0.831960 0.578120 0.669410 -0.532186
O52   O     O_R   0.168040 0.578120 0.330590 -0.532185
C121  C     C_R   0.326098 0.422222 0.591351 0.027290
C122  C     C_R   0.322774 0.376845 0.661640 -0.062277
C123  C     C_R   0.381790 0.333826 0.695849 -0.064454
C124  C     C_R   0.444888 0.333353 0.660289 -0.097226
C125  C     C_R   0.449054 0.375790 0.590458 -0.131563
C126  C     C_R   0.390208 0.419339 0.555828 -0.118087
H129  H     H_    0.274356 0.376207 0.690399 0.089056
H130  H     H_    0.378468 0.300409 0.749936 0.112674
H131  H     H_    0.490576 0.299732 0.686765 0.098933
H132  H     H_    0.498182 0.374967 0.563325 0.093866
H133  H     H_    0.395306 0.449891 0.501610 0.088471
C127  C     C_R   0.673903 0.422222 0.408640 0.027299
C128  C     C_R   0.677232 0.376842 0.338352 -0.062281
C129  C     C_R   0.618219 0.333809 0.304143 -0.064455
C130  C     C_R   0.555120 0.333323 0.339700 -0.097228
C131  C     C_R   0.550949 0.375765 0.409529 -0.131563
C132  C     C_R   0.609790 0.419333 0.444160 -0.118079
H134  H     H_    0.725651 0.376210 0.309595 0.089055
H135  H     H_    0.621545 0.300386 0.250059 0.112689
H136  H     H_    0.509434 0.299687 0.313224 0.098933
H137  H     H_    0.501819 0.374928 0.436659 0.093869
H138  H     H_    0.604688 0.449888 0.498377 0.088466
C133  C     C_R   0.826098 0.922222 0.591351 0.027290
C134  C     C_R   0.822774 0.876844 0.661640 -0.062277
C135  C     C_R   0.881790 0.833826 0.695849 -0.064454
C136  C     C_R   0.944888 0.833353 0.660289 -0.097226
C137  C     C_R   0.949054 0.875790 0.590458 -0.131563
C138  C     C_R   0.890208 0.919339 0.555828 -0.118087
H139  H     H_    0.774356 0.876207 0.690399 0.089056
H140  H     H_    0.878467 0.800409 0.749936 0.112674
H141  H     H_    0.990575 0.799732 0.686766 0.098933
H142  H     H_    0.998182 0.874967 0.563325 0.093866
H143  H     H_    0.895306 0.949891 0.501610 0.088471
C139  C     C_R   0.173903 0.922222 0.408640 0.027299
C140  C     C_R   0.177231 0.876842 0.338352 -0.062281
C141  C     C_R   0.118219 0.833809 0.304143 -0.064455
C142  C     C_R   0.055120 0.833323 0.339700 -0.097228
C143  C     C_R   0.050949 0.875765 0.409529 -0.131564
C144  C     C_R   0.109790 0.919332 0.444160 -0.118079
H144  H     H_    0.225651 0.876210 0.309595 0.089054
H145  H     H_    0.121545 0.800386 0.250059 0.112688
H146  H     H_    0.009435 0.799687 0.313224 0.098933
H147  H     H_    0.001819 0.874928 0.436659 0.093869
H148  H     H_    0.104688 0.949888 0.498377 0.088466

loop_
_geom_bond_atom_site_label_1
_geom_bond_atom_site_label_2
_ccdc_geom_bond_type
C82   C94   S    
C55   C59   S    
C35   H125  S    
C83   C87   S    
C73   C93   S    
C47   O31   A    
C42   C58   S    
C29   C89   S    
C135  C136  A    
C16   H120  S    
C89   O37   A    
C121  C126  A    
C48   C120  S    
C24   H8    S    
C57   C102  S    
Cr6   O18   S    
Cr7   O7    S    
C126  H133  S    
C59   C104  S    
Cr1   O17   S    
Cr9   O33   S    
C5    C6    S    
Cr10  O10   S    
Cr3   O19   S    
Cr4   O4    S    
Cr12  O16   S    
C29   C33   S    
C30   C38   S    
C77   C100  S    
C44   H36   S    
C9    C13   S    
C11   C15   S    
C49   H54   S    
C12   C16   S    
C127  C128  A    
C98   O50   A    
C132  H138  S    
C99   O47   A    
C129  C130  A    
C52   H55   S    
C103  O7    A    
C60   C103  S    
C107  O15   A    
C83   C107  S    
C88   H78   S    
C74   H82   S    
C111  H47   S    
C23   H11   S    
C64   H60   S    
C109  C118  S    
C16   H116  S    
Cr5   O25   S    
C50   C53   S    
C75   C95   S    
C7    C119  S    
Cr8   O28   S    
C62   H58   S    
C62   C66   S    
C144  H148  S    
Cr2   O2    S    
C72   H74   S    
C20   C28   S    
C18   H124  S    
C122  C123  A    
Cr12  O36   S    
C124  C125  A    
C43   C44   S    
C131  H137  S    
C66   C82   S    
C7    H91   S    
C75   H87   S    
C58   C101  S    
C105  O41   A    
C92   O4    A    
C107  O43   A    
C14   H118  S    
C108  O44   A    
C19   H21   S    
C89   O1    A    
C62   H62   S    
Cr5   O49   S    
C17   H23   S    
C32   C40   S    
C91   O3    A    
Cr1   O45   S    
Cr5   O5    S    
Cr2   O42   S    
C3    C26   S    
C84   C88   S    
C31   C91   S    
C95   H99   S    
C134  C135  A    
Cr12  O12   S    
C22   H10   S    
C110  H46   S    
C85   H79   S    
C13   H117  S    
Cr10  O34   S    
C17   C25   S    
C19   C35   S    
C76   C96   S    
C1    O21   A    
C32   C92   S    
C75   H83   S    
C141  C142  A    
C143  C144  A    
C95   H95   S    
C67   H71   S    
C21   H9    S    
C133  C134  A    
C61   C65   S    
C12   H108  S    
C78   C99   S    
C45   O29   A    
C76   H88   S    
C75   C79   S    
Cr5   O29   S    
C141  H145  S    
C6    H90   S    
C22   C38   S    
C67   C83   S    
C142  C143  A    
C80   C97   S    
C68   H72   S    
C11   H111  S    
C69   C77   S    
C111  C112  S    
C9    H109  S    
C52   H40   S    
C71   C79   S    
C4    C25   S    
Cr4   O20   S    
C7    C8    S    
C123  H130  S    
Cr10  O38   S    
C96   H96   S    
C88   C139  S    
C100  O52   A    
C136  H141  S    
C39   H19   S    
C49   C57   S    
C40   H20   S    
Cr9   O37   S    
C69   H101  S    
C38   H14   S    
C51   H56   S    
C52   C60   S    
C140  H144  S    
C125  H132  S    
C19   H121  S    
C61   C77   S    
C12   H112  S    
C71   H103  S    
C47   O35   A    
C110  C114  S    
C135  H140  S    
C48   O36   A    
C43   C59   S    
C112  H48   S    
C90   O38   A    
C137  H142  S    
C74   H86   S    
Cr1   O21   S    
Cr2   O18   S    
Cr4   O24   S    
Cr12  O20   S    
C81   C105  S    
C30   C34   S    
C34   H128  S    
C10   C14   S    
C36   H126  S    
C127  C132  A    
C101  O9    A    
C116  C120  S    
C103  O11   A    
C7    C116  S    
C93   H93   S    
C71   H73   S    
C33   H127  S    
C114  H2    S    
Cr11  O11   S    
C66   H66   S    
C113  C117  S    
C72   H104  S    
C115  C119  S    
Cr6   O26   S    
C9    H105  S    
Cr4   O48   S    
C138  H143  S    
C61   H61   S    
C112  C116  S    
C69   C85   S    
C94   H98   S    
C45   C117  S    
C122  H129  S    
C21   C25   S    
C73   C77   S    
Cr12  O40   S    
C62   C78   S    
C24   C28   S    
C131  C132  A    
C42   H30   S    
C15   C31   S    
C43   H35   S    
C16   C32   S    
C97   O45   A    
C105  O13   A    
C106  O42   A    
C72   C80   S    
C115  H3    S    
C143  H147  S    
C64   H64   S    
C4    O24   A    
C82   C106  S    
C90   O2    A    
C55   H44   S    
Cr6   O50   S    
C66   H70   S    
Cr8   O32   S    
Cr2   O46   S    
Cr6   O6    S    
C113  H1    S    
C46   O34   A    
C61   H57   S    
Cr7   O19   S    
C142  H146  S    
Cr8   O20   S    
C81   C85   S    
C13   H113  S    
C41   H29   S    
C64   C80   S    
C41   C42   S    
C74   C94   S    
Cr9   O13   S    
C18   C26   S    
C30   C90   S    
Cr11  O39   S    
C1    O25   A    
C9    C25   S    
C2    O22   A    
C3    O27   A    
C12   C28   S    
C13   C29   S    
C86   H80   S    
C67   H67   S    
C85   C121  S    
C133  C138  A    
C98   O46   A    
C46   C118  S    
Cr6   O30   S    
C106  O14   A    
C1    C28   S    
C2    C27   S    
Cr10  O14   S    
Cr11  O19   S    
C8    H92   S    
C52   C55   S    
C32   C36   S    
C123  C124  A    
C87   H77   S    
C73   H81   S    
C17   C33   S    
C110  C117  S    
C38   H18   S    
C33   H25   S    
C69   H75   S    
C40   H16   S    
C68   C84   S    
C76   C80   S    
C139  C144  A    
C140  C141  A    
C53   C57   S    
C82   C86   S    
C56   C60   S    
C50   C58   S    
C104  O12   A    
C48   O32   A    
Cr7   O27   S    
C76   H84   S    
C65   C81   S    
C137  C138  A    
C91   O39   A    
Cr8   O8    S    
C128  H134  S    
C50   H38   S    
C24   H12   S    
C20   H122  S    
Cr2   O22   S    
C71   C87   S    
C15   H115  S    
C124  H131  S    
C31   C35   S    
C64   C68   S    
Cr11  O35   S    
C101  O5    A    
C102  O10   A    
C37   H17   S    
C108  O16   A    
C112  C119  S    
C116  H4    S    
C56   H52   S    
C22   H6    S    
C41   C57   S    
C130  C131  A    
C109  C110  S    
C49   H37   S    
C87   C133  S    
C121  C122  A    
Cr5   O17   S    
C44   C60   S    
C63   H59   S    
C84   C108  S    
C128  C129  A    
C94   H94   S    
C20   C36   S    
C109  H45   S    
C21   C37   S    
C22   C26   S    
C29   C37   S    
C55   H51   S    
C44   H32   S    
C11   H107  S    
C42   H34   S    
C43   H31   S    
C5    H89   S    
C97   O49   A    
C5    C114  S    
C70   C78   S    
C79   C98   S    
C99   O51   A    
C10   H110  S    
C63   C79   S    
C4    O28   A    
C20   H22   S    
C92   O40   A    
C54   H41   S    
C23   H7    S    
C46   O30   A    
C130  H136  S    
C70   H76   S    
C49   C54   S    
Cr3   O47   S    
C51   C56   S    
C84   C96   S    
C8    C115  S    
Cr1   O1    S    
Cr3   O3    S    
C41   H33   S    
C54   H50   S    
Cr9   O17   S    
C11   C27   S    
C19   C27   S    
C74   C78   S    
C109  C113  S    
C2    O26   A    
C10   C26   S    
C47   C119  S    
C14   C30   S    
C72   C88   S    
C53   H42   S    
C63   C67   S    
C56   H43   S    
Cr7   O31   S    
Cr1   O41   S    
C21   H5    S    
C5    C117  S    
C111  C120  S    
Cr10  O18   S    
Cr3   O43   S    
C6    C113  S    
Cr11  O15   S    
C134  H139  S    
Cr4   O44   S    
C53   H49   S    
C81   C93   S    
C83   C95   S    
C73   H85   S    
C18   C34   S    
C114  C118  S    
C65   H65   S    
C34   H26   S    
C10   H106  S    
C23   C27   S    
C51   C59   S    
C70   C86   S    
C8    C120  S    
C54   C58   S    
C93   H97   S    
C17   H123  S    
C45   O33   A    
C104  O8    A    
C18   H24   S    
Cr7   O51   S    
Cr8   O52   S    
C70   H102  S    
C68   H68   S    
C86   C127  S    
C51   H39   S    
Cr3   O23   S    
C139  C140  A    
C15   H119  S    
C23   C39   S    
C3    O23   A    
C24   C40   S    
C31   C39   S    
C63   H63   S    
C96   H100  S    
C125  C126  A    
C35   H27   S    
Cr9   O9    S    
C36   H28   S    
C100  O48   A    
C65   H69   S    
C136  C137  A    
C102  O6    A    
C39   H15   S    
C129  H135  S    
C111  C115  S    
C37   H13   S    
C50   H53   S    
C6    C118  S    
C14   H114  S    
