data_mof_unit_67449.cif
_audit_creation_date              2013-03-05T15:40:58-0500
_audit_creation_method            fapswitch 2.2
_symmetry_space_group_name_H-M    P1
_symmetry_Int_Tables_number       1
_space_group_crystal_system       triclinic
_cell_length_a                    10.767807
_cell_length_b                    8.750156
_cell_length_c                    7.492527
_cell_angle_alpha                 102.165657
_cell_angle_beta                  94.887064
_cell_angle_gamma                 91.053329
_cell_volume                      687.104525485

loop_
_atom_site_label
_atom_site_type_symbol
_atom_site_description
_atom_site_fract_x
_atom_site_fract_y
_atom_site_fract_z
_atom_type_partial_charge
O1    O     O_R   0.509140 0.286130 0.619770 -0.558503
O2    O     O_R   0.485380 0.256770 0.308360 -0.609546
C1    C     C_R   0.497022 0.200387 0.455268 0.905363
O3    O     O_R   0.329570 0.514650 0.655700 -0.604256
O4    O     O_R   0.305810 0.485300 0.344290 -0.558860
C2    C     C_R   0.260040 0.499862 0.501293 0.780721
Cu1   Cu    Cu3+1 0.514070 0.517380 0.684380 0.923650
Cu2   Cu    Cu3+1 0.485930 0.482620 0.315620 0.923653
O5    O     O_R   0.514620 0.743230 0.691640 -0.596413
O6    O     O_R   0.490860 0.713870 0.380230 -0.591360
O7    O     O_R   0.694190 0.514700 0.655710 -0.606224
O8    O     O_R   0.670430 0.485350 0.344300 -0.589085
C3    C     C_R   0.492316 0.798977 0.545524 0.771357
C4    C     C_R   0.739463 0.489935 0.498178 0.739849
C5    C     C_3   0.083164 0.454917 0.680954 -0.472152
H1    H     H_    0.110201 0.553159 0.798725 0.126164
H2    H     H_    0.134901 0.352363 0.710002 0.217646
C6    C     C_3   0.941220 0.418854 0.664541 0.347499
H3    H     H_    0.908992 0.480912 0.796117 0.078666
H4    H     H_    0.116431 0.752423 0.596004 0.050004
H5    H     H_    0.912310 0.725581 0.653204 0.128720
C7    C     C_3   0.068738 0.658792 0.487521 0.332507
C8    C     C_3   0.061195 0.370363 0.336832 -0.325132
C9    C     C_3   0.121822 0.496799 0.502083 0.048712
H6    H     H_    0.096060 0.382648 0.204789 0.195209
H7    H     H_    0.085181 0.251778 0.357567 0.174671
C10   C     C_3   0.877962 0.484981 0.500105 0.043023
C11   C     C_3   0.927133 0.654575 0.515518 -0.518046
C12   C     C_3   0.918350 0.385024 0.321372 -0.358082
H8    H     H_    0.871787 0.267748 0.294103 0.172841
H9    H     H_    0.890604 0.443414 0.206947 0.184149
H10   H     H_    0.871074 0.706713 0.413513 0.177066
C13   C     C_2   0.510043 0.034952 0.438638 -0.472573
H11   H     H_    0.563129 0.973501 0.330107 0.113272
C14   C     C_2   0.468168 0.964756 0.564944 0.273701
N1    N     N_2   0.464720 0.456420 0.038520 -0.228729
H12   H     H_    0.396868 0.389087 0.950141 0.229573
N2    N     N_2   0.535280 0.543580 0.961480 -0.233978
H13   H     H_    0.601981 0.613338 0.049843 0.216378
O9    O     O_3   0.090096 0.685948 0.312976 -0.604957
C15   C     C_3   0.056723 0.836538 0.290883 0.073910
H14   H     H_    0.142271 0.911283 0.304110 0.164898
H15   H     H_    0.996898 0.899729 0.394565 0.141197
C16   C     C_3   0.989655 0.816348 0.099314 -0.349135
H16   H     H_    0.051481 0.760271 0.996211 0.218041
H17   H     H_    0.904750 0.739151 0.087227 0.209174
C17   C     C_3   0.952725 0.971101 0.056736 -0.966223
H18   H     H_    0.879883 0.019670 0.146012 0.267003
H19   H     H_    0.914738 0.951736 0.911166 0.263825
H20   H     H_    0.034710 0.053820 0.078240 0.257306
O10   O     O_3   0.378767 0.039090 0.675265 -0.618574
C18   C     C_3   0.392041 0.014849 0.856507 0.073881
H21   H     H_    0.375621 0.126815 0.950942 0.162938
H22   H     H_    0.486859 0.981957 0.899894 0.158064
C19   C     C_3   0.295089 0.894661 0.883038 -0.402436
H23   H     H_    0.201089 0.944701 0.881055 0.210210
H24   H     H_    0.294059 0.791242 0.770346 0.241741
C20   C     C_3   0.326903 0.843641 0.062787 -0.798353
H25   H     H_    0.424069 0.804863 0.071012 0.269016
H26   H     H_    0.264735 0.744002 0.072574 0.271721
H27   H     H_    0.317612 0.943586 0.178485 0.241154
O11   O     O_3   0.926859 0.252807 0.635001 -0.625087
C21   C     C_3   0.812603 0.198427 0.682378 0.058753
H28   H     H_    0.813239 0.068603 0.647266 0.148928
H29   H     H_    0.733616 0.228919 0.595920 0.142666
C22   C     C_3   0.796508 0.250368 0.887235 -0.375684
H30   H     H_    0.885983 0.235306 0.963988 0.229032
H31   H     H_    0.771880 0.374816 0.922365 0.219075
C23   C     C_3   0.692528 0.157842 0.945511 -0.897889
H32   H     H_    0.602726 0.194662 0.889418 0.290181
H33   H     H_    0.693231 0.184067 0.096898 0.254525
H34   H     H_    0.701694 0.030121 0.896097 0.239645

loop_
_geom_bond_atom_site_label_1
_geom_bond_atom_site_label_2
_geom_bond_distance
_ccdc_geom_bond_type
C23   H34   1.109815 S    
C22   H31   1.107749 S    
C8    C9    1.562544 S    
C21   H29   1.096142 S    
C3    C14   1.457518 S    
C12   H8    1.105181 S    
O10   C18   1.413834 S    
C4    C10   1.491687 S    
C5    C6    1.544241 S    
C15   H14   1.105035 S    
C6    C10   1.577544 S    
C17   H18   1.106835 S    
C16   C17   1.507908 S    
Cu2   O8    1.979120 S    
C2    C9    1.488585 S    
C18   H22   1.106620 S    
C20   H27   1.106688 S    
N1    N2    1.315702 D    
C22   H30   1.103867 S    
C21   C22   1.531891 S    
C7    O9    1.414161 S    
Cu1   Cu2   2.705172 S    
C17   H19   1.108682 S    
C7    C11   1.557560 S    
C16   H16   1.104810 S    
Cu1   O7    1.969488 S    
C15   H15   1.114228 S    
O11   C21   1.410701 S    
H5    C11   1.112334 S    
O3    Cu1   1.979121 S    
O4    C2    1.296477 A    
C8    C12   1.542356 S    
Cu2   O6    1.977479 S    
N1    H12   1.027970 S    
C15   C16   1.524712 S    
C18   C19   1.522652 S    
O8    C4    1.310267 A    
C13   H11   1.087816 S    
C17   H20   1.110082 S    
O2    C1    1.295507 A    
C19   H24   1.099063 S    
C14   O10   1.401789 S    
C23   H32   1.102160 S    
O7    C4    1.293009 A    
C7    C9    1.559547 S    
C19   H23   1.110362 S    
C8    H7    1.112881 S    
C22   C23   1.516133 S    
C10   C12   1.538515 S    
C1    C13   1.437047 S    
C20   H26   1.107913 S    
C5    H1    1.108905 S    
Cu1   O5    1.965364 S    
C11   H10   1.111350 S    
C8    H6    1.112611 S    
N2    H13   1.029219 S    
C18   H21   1.107817 S    
C12   H9    1.109911 S    
C6    H3    1.107592 S    
Cu2   N1    2.032710 S    
C19   C20   1.520161 S    
C10   C11   1.544122 S    
C23   H33   1.108176 S    
O4    Cu2   1.969488 S    
O9    C15   1.411402 S    
O1    Cu1   1.977479 S    
O5    C3    1.295661 A    
C16   H17   1.112526 S    
C13   C14   1.335540 D    
C20   H25   1.106558 S    
C5    H2    1.114910 S    
O3    C2    1.304396 A    
C5    C9    1.549248 S    
Cu1   N2    2.032710 S    
O2    Cu2   1.965365 S    
C6    O11   1.426293 S    
C21   H28   1.111015 S    
H4    C7    1.108311 S    
O1    C1    1.295494 A    
O6    C3    1.302372 A    
