data_mof_unit_6323.cif
_audit_creation_date              2012-12-11T14:41:10-0500
_audit_creation_method            fapswitch 2.2
_symmetry_space_group_name_H-M    P1
_symmetry_Int_Tables_number       1
_space_group_crystal_system       triclinic
_cell_length_a                    6.921731
_cell_length_b                    17.91942
_cell_length_c                    19.095242
_cell_angle_alpha                 90.0
_cell_angle_beta                  89.999921
_cell_angle_gamma                 90.000466
_cell_volume                      2368.44788287

loop_
_atom_site_label
_atom_site_type_symbol
_atom_type_description
_atom_site_fract_x
_atom_site_fract_y
_atom_site_fract_z
_atom_type_partial_charge
O1    O     O_R   0.377350 0.828520 0.186660 -0.542704
O2    O     O_R   0.622650 0.171480 0.813340 -0.550141
O3    O     O_R   0.122650 0.171480 0.686660 -0.542706
O4    O     O_R   0.877350 0.828520 0.313340 -0.550141
O5    O     O_R   0.877350 0.671480 0.313340 -0.542711
O6    O     O_R   0.122650 0.328520 0.686660 -0.550141
O7    O     O_R   0.622650 0.328520 0.813340 -0.542704
O8    O     O_R   0.377350 0.671480 0.186660 -0.550140
O9    O     O_R   0.707090 0.671930 0.178410 -0.539575
O10   O     O_R   0.292910 0.328070 0.821590 -0.530179
O11   O     O_R   0.792910 0.328070 0.678410 -0.539569
O12   O     O_R   0.207090 0.671930 0.321590 -0.530185
O13   O     O_R   0.207090 0.828070 0.321590 -0.539575
O14   O     O_R   0.792910 0.171930 0.678410 -0.530183
O15   O     O_R   0.292910 0.171930 0.821590 -0.539574
O16   O     O_R   0.707090 0.828070 0.178410 -0.530181
C1    C     C_R   0.538930 0.646297 0.161034 0.716156
C2    C     C_R   0.460984 0.354216 0.838529 0.700795
C3    C     C_R   0.961071 0.353701 0.661032 0.716117
C4    C     C_R   0.039016 0.645784 0.338530 0.700800
C5    C     C_R   0.038931 0.853704 0.338965 0.716158
C6    C     C_R   0.960983 0.145784 0.661471 0.700800
C7    C     C_R   0.461069 0.146296 0.838966 0.716159
C8    C     C_R   0.539017 0.854216 0.161471 0.700811
O17   O     O_3   0.543850 0.750000 0.294270 -0.375932
O18   O     O_3   0.456150 0.250000 0.705730 -0.375929
O19   O     O_3   0.956150 0.250000 0.794270 -0.375924
O20   O     O_3   0.043850 0.750000 0.205730 -0.375925
V1    V     V_3+5 0.818700 0.750000 0.241790 1.495095
V2    V     V_3+5 0.181300 0.250000 0.758210 1.495091
V3    V     V_3+5 0.681300 0.250000 0.741790 1.495095
V4    V     V_3+5 0.318700 0.750000 0.258210 1.495092
C9    C     C_R   0.963038 0.415637 0.608327 -0.157332
C10   C     C_R   0.037242 0.583374 0.390927 -0.151294
C11   C     C_R   0.536966 0.584359 0.108330 -0.157317
C12   C     C_R   0.462759 0.416627 0.890927 -0.151284
C13   C     C_R   0.463030 0.084359 0.891670 -0.157319
C14   C     C_R   0.537247 0.916626 0.109073 -0.151297
C15   C     C_R   0.036970 0.915641 0.391670 -0.157318
C16   C     C_R   0.962754 0.083374 0.609073 -0.151295
C17   C     C_R   0.195713 0.472661 0.438646 -0.127708
C18   C     C_R   0.807329 0.527429 0.561511 -0.163825
C19   C     C_R   0.304285 0.527336 0.938649 -0.127755
C20   C     C_R   0.692702 0.472579 0.061502 -0.163847
C21   C     C_R   0.695740 0.027329 0.061344 -0.127754
C22   C     C_R   0.307278 0.972584 0.938503 -0.163853
C23   C     C_R   0.804259 0.972671 0.561344 -0.127759
C24   C     C_R   0.192726 0.027414 0.438504 -0.163850
C25   C     C_R   0.181825 0.527655 0.387286 -0.025762
C26   C     C_R   0.826666 0.474099 0.614336 -0.067978
C27   C     C_R   0.318181 0.472346 0.887286 -0.025741
C28   C     C_R   0.673371 0.525908 0.114329 -0.067982
C29   C     C_R   0.681839 0.972341 0.112709 -0.025738
C30   C     C_R   0.326612 0.025911 0.885675 -0.067980
C31   C     C_R   0.818160 0.027658 0.612708 -0.025738
C32   C     C_R   0.173391 0.974087 0.385676 -0.067979
C33   C     C_R   0.901042 0.580351 0.446651 -0.076383
C34   C     C_R   0.085029 0.413766 0.548507 -0.051386
C35   C     C_R   0.598960 0.419650 0.946649 -0.076364
C36   C     C_R   0.414941 0.586219 0.048520 -0.051370
C37   C     C_R   0.401036 0.919652 0.053353 -0.076355
C38   C     C_R   0.585070 0.086214 0.951477 -0.051373
C39   C     C_R   0.098966 0.080346 0.553354 -0.076340
C40   C     C_R   0.914927 0.913786 0.451476 -0.051374
C41   C     C_R   0.922212 0.525606 0.500746 0.101904
C42   C     C_R   0.067678 0.470012 0.495732 0.106152
C43   C     C_R   0.577794 0.474395 0.000745 0.101907
C44   C     C_R   0.432312 0.529981 0.995737 0.106115
C45   C     C_R   0.422201 0.974396 0.999257 0.101905
C46   C     C_R   0.567699 0.029978 0.004260 0.106111
C47   C     C_R   0.077800 0.025602 0.499258 0.101898
C48   C     C_R   0.932301 0.970022 0.504260 0.106110
H1    H     H_    0.312672 0.432898 0.434042 0.167214
H2    H     H_    0.703521 0.571688 0.569735 0.174746
H3    H     H_    0.187336 0.567101 0.934045 0.167213
H4    H     H_    0.796532 0.428328 0.069718 0.174736
H5    H     H_    0.812703 0.067089 0.065944 0.167212
H6    H     H_    0.203431 0.928336 0.930291 0.174734
H7    H     H_    0.687295 0.932911 0.565943 0.167212
H8    H     H_    0.296575 0.071661 0.430293 0.174735
C49   C     C_2   0.222516 0.350869 0.539671 0.305708
H9    H     H_    0.323081 0.336632 0.581051 0.082647
O21   O     O_2   0.221571 0.313538 0.486176 -0.524608
C50   C     C_2   0.739951 0.635136 0.448163 0.416693
H10   H     H_    0.767186 0.693210 0.436287 0.078173
O22   O     O_2   0.574147 0.615133 0.459308 -0.534523
C51   C     C_2   0.277368 0.649089 0.039707 0.305732
H11   H     H_    0.176733 0.663268 0.081086 0.082665
O23   O     O_2   0.278311 0.686460 0.986235 -0.524635
C52   C     C_2   0.760052 0.364867 0.948158 0.416680
H12   H     H_    0.732812 0.306790 0.936298 0.078175
O24   O     O_2   0.925861 0.384875 0.959280 -0.534527
C53   C     C_2   0.722662 0.149080 0.960285 0.305735
H13   H     H_    0.823295 0.163254 0.918904 0.082675
O25   O     O_2   0.721742 0.186450 0.013757 -0.524634
C54   C     C_2   0.239936 0.864871 0.051847 0.416672
H14   H     H_    0.267173 0.806793 0.063702 0.078175
O26   O     O_2   0.074130 0.884881 0.040731 -0.534541
C55   C     C_2   0.777328 0.850922 0.460283 0.305742
H15   H     H_    0.676693 0.836752 0.418902 0.082676
O27   O     O_2   0.778244 0.813550 0.513754 -0.524631
C56   C     C_2   0.260066 0.135127 0.551847 0.416691
H16   H     H_    0.232827 0.193206 0.563700 0.078078
O28   O     O_2   0.425874 0.115117 0.540733 -0.534547
C57   C     C_1   0.703609 0.481618 0.675170 0.368930
N1    N     N_1   0.604917 0.487868 0.723733 -0.347997
C58   C     C_1   0.317091 0.523622 0.329690 0.402321
N2    N     N_1   0.425500 0.520087 0.283706 -0.349124
C59   C     C_1   0.796466 0.518397 0.175153 0.368895
N3    N     N_1   0.895188 0.512154 0.223708 -0.348012
C60   C     C_1   0.182930 0.476384 0.829686 0.402328
N4    N     N_1   0.074533 0.479922 0.783699 -0.349119
C61   C     C_1   0.203505 0.018402 0.824854 0.368884
N5    N     N_1   0.104772 0.012161 0.776302 -0.348024
C62   C     C_1   0.817105 0.976377 0.170304 0.402361
N6    N     N_1   0.925515 0.979913 0.216288 -0.349118
C63   C     C_1   0.296500 0.981596 0.324856 0.368884
N7    N     N_1   0.395234 0.987837 0.276304 -0.348025
C64   C     C_1   0.682891 0.023624 0.670303 0.402364
N8    N     N_1   0.574480 0.020089 0.716286 -0.349121

loop_
_geom_bond_atom_site_label_1
_geom_bond_atom_site_label_2
_ccdc_geom_bond_type
C51   H11   S    
C53   H13   S    
C32   C63   S    
O13   V4    S    
C60   N4    T    
C23   H7    S    
O14   V3    S    
C12   C35   A    
C19   C27   A    
C13   C38   A    
C37   C54   S    
C25   C58   S    
O5    C4    A    
C31   C64   S    
O6    C3    A    
O11   C3    A    
C9    C34   A    
C16   C39   A    
O20   V1    S    
C50   O22   D    
C62   N6    T    
C30   C61   S    
C38   C46   A    
C20   H4    S    
C22   C45   A    
C35   C43   A    
C34   C42   A    
C40   C55   S    
C55   H15   S    
C19   C44   A    
C54   O26   D    
C18   C41   A    
C8    C14   S    
C58   N2    T    
O4    V1    S    
O9    V1    S    
C14   C37   A    
C4    C10   S    
C20   C28   A    
O17   V4    S    
O15   C7    A    
O11   V3    S    
O18   V3    S    
C53   O25   D    
O12   V4    S    
O19   V2    S    
O17   V1    S    
C22   C30   A    
C45   C46   A    
C39   C56   S    
C17   C25   A    
C49   O21   D    
C36   C51   S    
C49   H9    S    
O5    V1    S    
C19   H3    S    
C18   H2    S    
O7    V3    S    
O19   V3    S    
C43   C44   A    
O8    V4    S    
O20   V4    S    
C50   H10   S    
C3    C9    S    
C34   C49   S    
C22   H6    S    
C9    C26   A    
C7    C13   S    
C17   H1    S    
O1    V4    S    
C11   C36   A    
C35   C52   S    
O3    V2    S    
C15   C40   A    
C26   C57   S    
O10   V2    S    
C52   O24   D    
C15   C32   A    
C5    C15   S    
O7    C2    A    
C6    C16   S    
C54   H14   S    
O12   C4    A    
C33   C50   S    
O13   C5    A    
C56   O28   D    
C12   C27   A    
C18   C26   A    
C13   C30   A    
O9    C1    A    
O6    V2    S    
C39   C47   A    
O18   V2    S    
C51   O23   D    
C24   C47   A    
O2    C7    A    
O15   V2    S    
C23   C31   A    
C61   N5    T    
C37   C45   A    
C24   C32   A    
C10   C25   A    
C27   C60   S    
C55   O27   D    
C21   C46   A    
C33   C41   A    
C20   C43   A    
C16   C31   A    
C64   N8    T    
C17   C42   A    
C57   N1    T    
O8    C1    A    
C24   H8    S    
O16   V1    S    
C47   C48   A    
C63   N7    T    
O4    C5    A    
O14   C6    A    
C52   H12   S    
C14   C29   A    
C28   C59   S    
O10   C2    A    
C10   C33   A    
C40   C48   A    
C56   H16   S    
C23   C48   A    
C21   C29   A    
C36   C44   A    
O1    C8    A    
O16   C8    A    
C41   C42   A    
C38   C53   S    
C11   C28   A    
O2    V3    S    
O3    C6    A    
C21   H5    S    
C1    C11   S    
C59   N3    T    
C2    C12   S    
C29   C62   S    
