data_mof_unit_30750.cif
_audit_creation_date              2012-12-10T16:58:32-0500
_audit_creation_method            fapswitch 2.2
_symmetry_space_group_name_H-M    P1
_symmetry_Int_Tables_number       1
_space_group_crystal_system       triclinic
_cell_length_a                    7.896376
_cell_length_b                    8.614564
_cell_length_c                    22.730383
_cell_angle_alpha                 90.942121
_cell_angle_beta                  86.290913
_cell_angle_gamma                 92.174685
_cell_volume                      1541.70615122

loop_
_atom_site_label
_atom_site_type_symbol
_atom_type_description
_atom_site_fract_x
_atom_site_fract_y
_atom_site_fract_z
_atom_type_partial_charge
C1    C     C_R   0.542770 0.793384 0.497292 0.942357
C2    C     C_R   0.464184 0.289650 0.316576 -0.245839
C3    C     C_R   0.426837 0.514205 0.775338 0.197626
C4    C     C_R   0.447340 0.234723 0.259145 0.208342
C5    C     C_R   0.501046 0.373812 0.790247 0.249381
C6    C     C_R   0.452463 0.343002 0.213114 0.233767
C7    C     C_2   0.554293 0.953260 0.484090 -0.083219
C8    C     C_2   0.440682 0.046198 0.514159 -0.088567
C9    C     C_R   0.502395 0.497753 0.610867 0.858812
C10   C     C_R   0.496834 0.497059 0.389174 0.865219
C11   C     C_R   0.328676 0.244632 0.124553 0.479677
C12   C     C_R   0.456633 0.206751 0.503038 0.942769
C13   C     C_R   0.647593 0.365117 0.879400 0.500784
C14   C     C_R   0.625680 0.310513 0.123797 0.501238
C15   C     C_R   0.360865 0.265331 0.878626 0.487577
C16   C     C_R   0.639694 0.307543 0.062336 -0.017211
C17   C     C_R   0.354968 0.241083 0.939448 -0.012943
C18   C     C_R   0.494046 0.268709 0.031812 -0.020863
C19   C     C_R   0.500697 0.279378 0.970088 -0.025002
C20   C     C_R   0.339409 0.227515 0.063085 -0.017774
C21   C     C_R   0.650604 0.336107 0.939510 -0.009830
C22   C     C_R   0.791761 0.353644 0.031027 -0.190244
C23   C     C_R   0.578979 0.278464 0.746067 0.202774
C24   C     C_R   0.205865 0.186130 0.970618 -0.184342
C25   C     C_R   0.796687 0.369597 0.970113 -0.175563
C26   C     C_R   0.197607 0.180964 0.032051 -0.177911
C27   C     C_3   0.655122 0.125090 0.759525 -0.415073
C28   C     C_3   0.847722 0.130250 0.746716 -0.786940
C29   C     C_3   0.450446 0.625208 0.178189 -0.412474
C30   C     C_3   0.617831 0.718600 0.167863 -0.816168
C31   C     C_3   0.351843 0.624857 0.821558 -0.443484
C32   C     C_3   0.158981 0.626121 0.820307 -0.746855
C33   C     C_3   0.428004 0.061219 0.248522 -0.387591
C34   C     C_R   0.459941 0.505099 0.225779 0.205941
C35   C     C_3   0.259977 0.996209 0.277118 -0.844906
C36   C     C_3   0.677277 0.000378 0.431309 -0.396628
C37   C     C_3   0.660650 0.893323 0.377536 -0.923756
C38   C     C_3   0.315524 0.989572 0.565433 -0.417539
C39   C     C_3   0.241447 0.112549 0.607965 -0.860895
C40   C     C_3   0.013361 0.401577 0.427281 -0.110518
C41   C     C_3   0.033896 0.532404 0.381916 -0.765183
C42   C     C_3   0.986694 0.599851 0.572534 -0.114939
C43   C     C_3   0.966571 0.470804 0.618529 -0.797855
C44   C     C_R   0.581737 0.324852 0.687670 -0.271771
C45   C     C_R   0.473873 0.556146 0.284023 -0.276942
C46   C     C_R   0.505340 0.461149 0.672715 -0.106785
C47   C     C_R   0.481994 0.448518 0.328564 -0.085209
C48   C     C_R   0.426880 0.554728 0.716027 -0.263733
H1    H     H_    0.904617 0.385567 0.053743 0.197221
H2    H     H_    0.908396 0.224093 0.772980 0.316068
H3    H     H_    0.899343 0.017663 0.758633 0.247231
H4    H     H_    0.626892 0.091568 0.806148 0.212813
H5    H     H_    0.597368 0.031781 0.732065 0.195153
H6    H     H_    0.654265 0.778432 0.209023 0.251253
H7    H     H_    0.720887 0.641546 0.151874 0.293438
H8    H     H_    0.603664 0.807824 0.133991 0.242046
H9    H     H_    0.416347 0.571465 0.135667 0.207081
H10   H     H_    0.347795 0.705608 0.191323 0.209074
H11   H     H_    0.121547 0.669494 0.777451 0.244671
H12   H     H_    0.093236 0.153362 0.947893 0.192595
H13   H     H_    0.103659 0.507114 0.827209 0.317586
H14   H     H_    0.106907 0.703410 0.856071 0.249681
H15   H     H_    0.384077 0.594397 0.866625 0.210648
H16   H     H_    0.406254 0.744033 0.813298 0.208512
H17   H     H_    0.254285 0.014514 0.325658 0.240785
H18   H     H_    0.151412 0.053289 0.258891 0.301836
H19   H     H_    0.247283 0.869538 0.268273 0.239871
H20   H     H_    0.433115 0.030605 0.200904 0.224062
H21   H     H_    0.535008 0.003335 0.267196 0.197381
H22   H     H_    0.712174 0.778304 0.385174 0.284815
H23   H     H_    0.913744 0.411937 0.947347 0.194047
H24   H     H_    0.525375 0.879469 0.367198 0.253474
H25   H     H_    0.735219 0.944174 0.338968 0.250072
H26   H     H_    0.656431 0.116824 0.414275 0.226153
H27   H     H_    0.809810 0.999435 0.444999 0.216973
H28   H     H_    0.342269 0.194479 0.621980 0.265966
H29   H     H_    0.141454 0.175775 0.587349 0.276109
H30   H     H_    0.181119 0.055135 0.647838 0.239452
H31   H     H_    0.205556 0.926693 0.546707 0.232409
H32   H     H_    0.381566 0.909010 0.593253 0.202751
H33   H     H_    0.911169 0.562070 0.365222 0.250570
H34   H     H_    0.078895 0.144483 0.055166 0.195937
H35   H     H_    0.091094 0.639973 0.401072 0.253332
H36   H     H_    0.115491 0.493723 0.343263 0.235013
H37   H     H_    0.129345 0.335936 0.430375 0.191668
H38   H     H_    0.919040 0.314512 0.411376 0.155067
H39   H     H_    0.908509 0.363016 0.599933 0.250350
H40   H     H_    0.089341 0.441231 0.635233 0.260591
H41   H     H_    0.885902 0.511364 0.657110 0.238784
H42   H     H_    0.081075 0.687116 0.588164 0.149457
H43   H     H_    0.870590 0.665140 0.569257 0.191919
H44   H     H_    0.638432 0.251142 0.653231 0.160284
H45   H     H_    0.479383 0.679136 0.294495 0.150029
H46   H     H_    0.369289 0.660722 0.703677 0.146717
H47   H     H_    0.462746 0.208130 0.352347 0.139389
H48   H     H_    0.881052 0.150211 0.699164 0.235642
N1    N     N_R   0.469718 0.290993 0.153074 -0.363019
N2    N     N_R   0.503620 0.331639 0.850658 -0.359544
N3    N     N_2   0.950330 0.457950 0.484560 -0.032702
N4    N     N_2   0.049670 0.542050 0.515440 -0.031216
O1    O     O_R   0.389250 0.738570 0.503790 -0.638027
O2    O     O_2   0.785521 0.430100 0.850019 -0.589875
O3    O     O_2   0.764755 0.340366 0.154262 -0.537499
O4    O     O_2   0.224582 0.226735 0.847852 -0.578913
O5    O     O_R   0.610750 0.261430 0.496210 -0.645625
O6    O     O_R   0.678390 0.711620 0.493890 -0.629307
O7    O     O_R   0.321610 0.288380 0.506110 -0.621772
O8    O     O_R   0.355400 0.513520 0.588790 -0.618915
O9    O     O_R   0.644600 0.486480 0.411210 -0.622386
O10   O     O_R   0.644550 0.486570 0.578900 -0.621852
O11   O     O_R   0.355450 0.513430 0.421100 -0.619838
O12   O     O_2   0.178275 0.221280 0.155330 -0.537079
Zn1   Zn    Zn3+2 0.306930 0.518000 0.506610 0.910183
Zn2   Zn    Zn3+2 0.693070 0.482000 0.493390 0.909697

loop_
_geom_bond_atom_site_label_1
_geom_bond_atom_site_label_2
_ccdc_geom_bond_type
C40   H37   S    
O1    Zn1   S    
C7    C36   S    
C45   H45   S    
C40   N3    S    
C7    C8    D    
C9    O8    A    
C30   H6    S    
C43   H41   S    
C48   H46   S    
O6    Zn2   S    
C43   H40   S    
C39   H29   S    
C2    H47   S    
C19   C21   A    
C24   C26   A    
C32   H13   S    
C18   C19   A    
C12   O5    A    
C28   H3    S    
C38   H31   S    
C35   H17   S    
C41   H35   S    
C3    C48   A    
C10   O9    A    
C42   H43   S    
C40   H38   S    
C13   N2    A    
O7    Zn1   S    
C21   C25   A    
C17   C19   A    
C28   H2    S    
N3    N4    D    
C22   C25   A    
C25   H23   S    
C23   C27   S    
C15   O4    S    
O10   Zn2   S    
C44   H44   S    
C8    C12   S    
C1    O6    A    
C9    C46   S    
C26   H34   S    
C37   H22   S    
C8    C38   S    
N3    Zn2   S    
C44   C46   A    
C45   C47   A    
C46   C48   A    
C11   C20   A    
C17   C24   A    
C6    N1    S    
C31   H15   S    
O5    Zn2   S    
C4    C6    A    
C35   H18   S    
C41   H36   S    
C30   H8    S    
C29   C34   S    
C23   C44   A    
C6    C34   A    
C42   H42   S    
O8    Zn1   S    
C2    C4    A    
C39   H30   S    
C29   C30   S    
C36   H27   S    
C42   N4    S    
C31   C32   S    
C5    C23   A    
C35   H19   S    
C24   H12   S    
C41   H33   S    
C13   C21   A    
C10   O11   A    
O11   Zn1   S    
C34   C45   A    
C39   H28   S    
C5    N2    S    
C3    C31   S    
C36   H26   S    
O9    Zn2   S    
C22   H1    S    
C40   C41   S    
C29   H9    S    
C14   C16   A    
C42   C43   S    
C15   N2    A    
C1    O1    A    
C10   C47   S    
C27   H4    S    
C14   N1    A    
C9    O10   A    
C15   C17   A    
C37   H25   S    
C4    C33   S    
C36   C37   S    
C16   C22   A    
C11   O12   S    
C1    C7    S    
C31   H16   S    
N4    Zn1   S    
C3    C5    A    
C12   O7    A    
C27   H5    S    
C33   H21   S    
C2    C47   A    
C30   H7    S    
C11   N1    A    
C28   H48   S    
C43   H39   S    
C32   H14   S    
C20   C26   A    
C14   O3    S    
C38   C39   S    
C38   H32   S    
C33   C35   S    
C18   C20   A    
C29   H10   S    
C16   C18   A    
C37   H24   S    
C27   C28   S    
C32   H11   S    
C13   O2    S    
C33   H20   S    
