data_mof_unit_68428.cif
_audit_creation_date              2012-12-10T19:48:34-0500
_audit_creation_method            fapswitch 2.2
_symmetry_space_group_name_H-M    P1
_symmetry_Int_Tables_number       1
_space_group_crystal_system       triclinic
_cell_length_a                    11.507217
_cell_length_b                    10.917517
_cell_length_c                    9.776605
_cell_angle_alpha                 91.68324
_cell_angle_beta                  88.575068
_cell_angle_gamma                 92.538805
_cell_volume                      1226.16057324

loop_
_atom_site_label
_atom_site_type_symbol
_atom_type_description
_atom_site_fract_x
_atom_site_fract_y
_atom_site_fract_z
_atom_type_partial_charge
Br1   Br    Br    0.181911 0.636319 0.804461 -0.653028
Br2   Br    Br    0.818089 0.363680 0.195539 -0.653028
Br3   Br    Br    0.720032 0.901480 0.665721 -0.671296
Br4   Br    Br    0.279968 0.098520 0.334279 -0.671296
C1    C     C_R   0.503495 0.260388 0.498486 0.813066
C2    C     C_3   0.408307 0.038419 0.435199 0.244406
C3    C     C_3   0.494544 0.877491 0.502954 -0.096416
C4    C     C_3   0.505456 0.122509 0.497046 -0.096416
C5    C     C_3   0.402309 0.961880 0.566127 -0.030310
C6    C     C_3   0.597691 0.038120 0.433873 -0.030310
C7    C     C_3   0.523284 0.607657 0.051470 -0.113149
C8    C     C_3   0.476716 0.392343 0.948529 -0.113149
C9    C     C_3   0.424860 0.572073 0.953992 -0.001664
C10   C     C_3   0.575140 0.427927 0.046008 -0.001664
C11   C     C_3   0.599048 0.536260 0.946445 -0.006225
C12   C     C_R   0.496505 0.739612 0.501514 0.813066
C13   C     C_3   0.400952 0.463740 0.053555 -0.006225
C14   C     C_R   0.262726 0.496802 0.500520 0.803381
C15   C     C_R   0.737274 0.503198 0.499480 0.803381
C16   C     C_R   0.200021 0.668605 0.081686 -0.232043
C17   C     C_R   0.799979 0.331395 0.918314 -0.232043
C18   C     C_R   0.173723 0.648968 0.216915 -0.126430
C19   C     C_R   0.826277 0.351031 0.783085 -0.126430
C20   C     C_R   0.120146 0.538391 0.253025 0.128696
C21   C     C_R   0.879854 0.461609 0.746974 0.128696
C22   C     C_R   0.107015 0.440471 0.158986 -0.188171
C23   C     C_R   0.871950 0.505152 0.501410 -0.070568
C24   C     C_R   0.892985 0.559529 0.841014 -0.188171
C25   C     C_R   0.134995 0.456961 0.020934 0.008417
C26   C     C_R   0.865005 0.543039 0.979066 0.008417
C27   C     C_R   0.171925 0.577727 0.982821 0.215629
C28   C     C_R   0.828075 0.422273 0.017179 0.215629
C29   C     C_R   0.943628 0.538894 0.390597 -0.160671
C30   C     C_R   0.056372 0.461106 0.609403 -0.160671
C31   C     C_R   0.136422 0.346271 0.926793 0.089290
C32   C     C_R   0.226038 0.330175 0.829165 -0.178849
C33   C     C_R   0.214771 0.242213 0.723078 -0.138030
C34   C     C_R   0.128050 0.494848 0.498590 -0.070568
C35   C     C_R   0.112631 0.170032 0.714026 -0.104670
C36   C     C_R   0.031580 0.171384 0.822341 -0.161362
C37   C     C_R   0.047511 0.254694 0.931968 -0.134412
C38   C     C_R   0.863578 0.653729 0.073206 0.089290
C39   C     C_R   0.773962 0.669825 0.170835 -0.178849
C40   C     C_R   0.785229 0.757787 0.276922 -0.138030
C41   C     C_R   0.887369 0.829968 0.285974 -0.104670
C42   C     C_R   0.968420 0.828616 0.177659 -0.161362
C43   C     C_R   0.952489 0.745306 0.068032 -0.134412
C44   C     C_R   0.289215 0.924390 0.637340 0.140103
C45   C     C_R   0.934439 0.471913 0.614487 0.012196
C46   C     C_R   0.272213 0.945973 0.778747 -0.085838
C47   C     C_R   0.161532 0.927165 0.839228 -0.099550
C48   C     C_R   0.067413 0.886429 0.758944 -0.100112
C49   C     C_R   0.085192 0.858608 0.619931 -0.090674
C50   C     C_R   0.195679 0.877342 0.559724 -0.118833
C51   C     C_R   0.710785 0.075610 0.362660 0.140102
C52   C     C_R   0.804321 0.122658 0.440276 -0.118832
C53   C     C_R   0.914808 0.141392 0.380069 -0.090675
C54   C     C_R   0.932586 0.113571 0.241056 -0.100111
C55   C     C_R   0.838468 0.072835 0.160772 -0.099550
C56   C     C_R   0.065560 0.528087 0.385513 0.012196
C57   C     C_R   0.727787 0.054027 0.221253 -0.085838
C58   C     C_3   0.499560 0.046830 0.629251 -0.250879
C59   C     C_3   0.500440 0.953170 0.370749 -0.250878
C60   C     C_3   0.591693 0.961581 0.564801 0.244406
Cu1   Cu    Cu3+1 0.500030 0.499990 0.643150 0.982653
Cu2   Cu    Cu3+1 0.499970 0.500010 0.356850 0.982653
H1    H     H_    0.385021 0.654017 0.916536 0.171805
H2    H     H_    0.813480 0.277428 0.708847 0.129789
H3    H     H_    0.076000 0.351865 0.195042 0.175453
H4    H     H_    0.924000 0.648135 0.804958 0.175453
H5    H     H_    0.905966 0.567523 0.302107 0.213209
H6    H     H_    0.094034 0.432477 0.697893 0.213209
H7    H     H_    0.502523 0.086231 0.735128 0.162366
H8    H     H_    0.497477 0.913768 0.264872 0.162366
H9    H     H_    0.295805 0.396205 0.823139 0.208032
H10   H     H_    0.280044 0.237404 0.642054 0.169475
H11   H     H_    0.098788 0.109888 0.625914 0.163931
H12   H     H_    0.614979 0.345983 0.083464 0.171805
H13   H     H_    0.955494 0.109540 0.820528 0.146000
H14   H     H_    0.985476 0.252813 0.015176 0.163754
H15   H     H_    0.704195 0.603795 0.176861 0.208032
H16   H     H_    0.719956 0.762595 0.357946 0.169475
H17   H     H_    0.901212 0.890112 0.374086 0.163931
H18   H     H_    0.044506 0.890460 0.179471 0.146000
H19   H     H_    0.014524 0.747186 0.984824 0.163754
H20   H     H_    0.342873 0.980996 0.841662 0.122145
H21   H     H_    0.147961 0.947538 0.947279 0.130425
H22   H     H_    0.981044 0.875747 0.804328 0.149292
H23   H     H_    0.540294 0.701852 0.094566 0.129145
H24   H     H_    0.013179 0.824276 0.558795 0.149108
H25   H     H_    0.207304 0.861359 0.451323 0.138340
H26   H     H_    0.792696 0.138641 0.548677 0.138340
H27   H     H_    0.986821 0.175724 0.441205 0.149108
H28   H     H_    0.018956 0.124253 0.195672 0.149292
H29   H     H_    0.852039 0.052462 0.052721 0.130425
H30   H     H_    0.657128 0.019003 0.158338 0.122144
H31   H     H_    0.459706 0.298148 0.905434 0.129145
H32   H     H_    0.672771 0.585871 0.896734 0.156353
H33   H     H_    0.327229 0.414129 0.103266 0.156353
H34   H     H_    0.233761 0.758547 0.052624 0.163957
H35   H     H_    0.766239 0.241453 0.947376 0.163957
H36   H     H_    0.186520 0.722572 0.291152 0.129789
N1    N     N_3   0.500090 0.499970 0.858290 -0.178358
N2    N     N_3   0.499910 0.500030 0.141710 -0.178358
O1    O     O_R   0.500060 0.316850 0.620870 -0.612578
O2    O     O_R   0.499940 0.683150 0.379130 -0.612578
O3    O     O_R   0.500000 0.316860 0.379090 -0.536228
O4    O     O_R   0.500000 0.683140 0.620910 -0.536228
O5    O     O_R   0.319670 0.500010 0.620890 -0.560993
O6    O     O_R   0.680330 0.499990 0.379110 -0.560993
O7    O     O_R   0.319620 0.500010 0.379110 -0.579081
O8    O     O_R   0.680380 0.499990 0.620890 -0.579080

loop_
_geom_bond_atom_site_label_1
_geom_bond_atom_site_label_2
_ccdc_geom_bond_type
C19   H2    S    
C51   C52   A    
C6    C59   S    
C14   O5    A    
Cu2   O3    S    
C37   H14   S    
C57   H30   S    
C1    O1    A    
C49   C50   A    
C23   C29   A    
C21   C24   A    
C44   C50   A    
C43   H19   S    
C32   C33   A    
C13   N2    S    
C20   C22   A    
C40   H16   S    
C9    H1    S    
Br1   C27   S    
C2    C5    S    
C52   C53   A    
Br2   C28   S    
C58   C60   S    
C7    C11   S    
C31   C32   A    
C8    C13   S    
C58   H7    S    
C7    N2    S    
Cu2   O7    S    
C9    N1    S    
C15   C23   S    
Cu1   O4    S    
C12   O2    A    
C17   H35   S    
C44   C46   A    
C53   H27   S    
C41   H17   S    
C55   H29   S    
Cu2   O2    S    
Cu1   O1    S    
C17   C28   A    
C6    C60   S    
C55   C57   A    
C54   H28   S    
C47   C48   A    
Cu2   N2    S    
C48   H22   S    
C14   O7    A    
C8    N1    S    
Br4   C2    S    
C47   H21   S    
C35   C36   A    
C12   O4    A    
C2    C4    S    
C54   C55   A    
C15   O8    A    
C5    C58   S    
C2    C59   S    
C46   H20   S    
C39   C40   A    
Cu1   O8    S    
C32   H9    S    
C7    H23   S    
C10   N2    S    
C16   H34   S    
C20   C56   S    
Cu1   O5    S    
C46   C47   A    
C36   H13   S    
Cu2   O6    S    
C6    C51   S    
C13   H33   S    
C3    C59   S    
C8    H31   S    
C5    C44   S    
C34   C56   A    
C4    C6    S    
C36   C37   A    
C33   H10   S    
C8    C10   S    
C29   C56   A    
C17   C19   A    
C39   H15   S    
C42   H18   S    
C38   C39   A    
Cu1   N1    S    
C11   H32   S    
C30   H6    S    
C48   C49   A    
C1    O3    A    
C15   O6    A    
C3    C5    S    
C42   C43   A    
C3    C12   S    
C30   C45   A    
C30   C34   A    
C24   H4    S    
C40   C41   A    
C16   C18   A    
C1    C4    S    
C59   H8    S    
C25   C31   S    
C18   H36   S    
C9    C13   S    
C24   C26   A    
C14   C34   S    
C50   H25   S    
C25   C27   A    
C26   C28   A    
C7    C9    S    
C53   C54   A    
C51   C57   A    
C18   C20   A    
C38   C43   A    
C10   H12   S    
Br3   C60   S    
C31   C37   A    
C21   C45   S    
C3    C60   S    
C29   H5    S    
C41   C42   A    
C52   H26   S    
C19   C21   A    
C22   C25   A    
C33   C35   A    
Cu1   Cu2   S    
C35   H11   S    
C49   H24   S    
C22   H3    S    
C10   C11   S    
C26   C38   S    
C11   N1    S    
C23   C45   A    
C4    C58   S    
C16   C27   A    
