data_mof_unit_27599.cif
_audit_creation_date              2012-12-11T16:27:25-0500
_audit_creation_method            fapswitch 2.2
_symmetry_space_group_name_H-M    P1
_symmetry_Int_Tables_number       1
_space_group_crystal_system       triclinic
_cell_length_a                    21.630293
_cell_length_b                    6.906111
_cell_length_c                    14.812644
_cell_angle_alpha                 90.416199
_cell_angle_beta                  105.594053
_cell_angle_gamma                 90.301926
_cell_volume                      2131.16488989

loop_
_atom_site_label
_atom_site_type_symbol
_atom_type_description
_atom_site_fract_x
_atom_site_fract_y
_atom_site_fract_z
_atom_type_partial_charge
O1    O     O_R   0.835850 0.638310 0.002120 -0.537944
O2    O     O_R   0.164150 0.361690 0.997880 -0.537943
O3    O     O_R   0.664150 0.138310 0.997880 -0.537329
O4    O     O_R   0.335850 0.861690 0.002120 -0.537326
O5    O     O_R   0.717530 0.306070 0.861970 -0.537791
O6    O     O_R   0.282470 0.693930 0.138030 -0.537790
O7    O     O_R   0.782470 0.806070 0.138030 -0.539227
O8    O     O_R   0.217530 0.193930 0.861970 -0.539227
C1    C     C_R   0.704850 0.476003 0.824516 0.684933
C2    C     C_R   0.295150 0.523997 0.175485 0.684935
C3    C     C_R   0.795038 0.978145 0.175363 0.684585
C4    C     C_R   0.204961 0.021855 0.824637 0.684587
O9    O     O_R   0.838690 0.308440 0.993250 -0.540162
O10   O     O_R   0.161310 0.691560 0.006750 -0.540164
O11   O     O_R   0.661310 0.808440 0.006750 -0.540926
O12   O     O_R   0.338690 0.191560 0.993250 -0.540927
O13   O     O_R   0.786170 0.140510 0.130090 -0.536940
O14   O     O_R   0.213830 0.859490 0.869910 -0.536937
O15   O     O_R   0.713830 0.640510 0.869910 -0.538785
O16   O     O_R   0.286170 0.359490 0.130090 -0.538791
C5    C     C_R   0.865077 0.477892 0.996859 0.694296
C6    C     C_R   0.134923 0.522108 0.003142 0.694295
C7    C     C_R   0.634859 0.976959 0.002937 0.692750
C8    C     C_R   0.365141 0.023041 0.997063 0.692751
O17   O     O_3   0.732630 0.472520 0.044740 -0.367649
O18   O     O_3   0.267370 0.527480 0.955260 -0.367646
O19   O     O_3   0.767370 0.972520 0.955260 -0.367764
O20   O     O_3   0.232630 0.027480 0.044740 -0.367767
V1    V     V_3+5 0.753220 0.196740 0.991700 1.452113
V2    V     V_3+5 0.246780 0.803260 0.008300 1.452109
V3    V     V_3+5 0.746780 0.696740 0.008300 1.448916
V4    V     V_3+5 0.253220 0.303260 0.991700 1.448911
H1    H     H_    0.612012 0.919622 0.321518 0.149704
H2    H     H_    0.387988 0.080391 0.678483 0.149704
H3    H     H_    0.885760 0.529703 0.676973 0.148635
H4    H     H_    0.114240 0.470385 0.323032 0.148645
C9    C     C_R   0.535701 0.020892 0.829867 -0.216577
C10   C     C_R   0.464299 0.979117 0.170133 -0.216587
C11   C     C_R   0.965194 0.469975 0.170510 -0.216359
C12   C     C_R   0.034806 0.530063 0.829494 -0.216360
C13   C     C_R   0.489386 0.045228 0.744243 0.013118
C14   C     C_R   0.510614 0.954788 0.255758 0.013130
C15   C     C_R   0.012123 0.464725 0.256566 0.013329
C16   C     C_R   0.987877 0.535342 0.743439 0.013325
C17   C     C_R   0.424804 0.061348 0.743677 -0.175749
C18   C     C_R   0.575196 0.938663 0.256324 -0.175737
C19   C     C_R   0.076954 0.474076 0.257479 -0.174882
C20   C     C_R   0.923047 0.525991 0.742526 -0.174884
C21   C     C_R   0.406678 0.052111 0.827038 -0.168461
C22   C     C_R   0.593322 0.947892 0.172962 -0.168468
C23   C     C_R   0.094663 0.489084 0.173965 -0.165818
C24   C     C_R   0.905338 0.510954 0.826039 -0.165809
C25   C     C_R   0.452711 0.026581 0.913919 0.078992
C26   C     C_R   0.547288 0.973421 0.086081 0.078993
C27   C     C_R   0.047959 0.495097 0.086629 0.078397
C28   C     C_R   0.952042 0.504919 0.913374 0.078399
C29   C     C_R   0.518546 0.011741 0.915419 0.048499
C30   C     C_R   0.481454 0.988262 0.084581 0.048502
C31   C     C_R   0.981960 0.484557 0.084849 0.047473
C32   C     C_R   0.018040 0.515459 0.915154 0.047474
C33   C     C_R   0.434071 0.014056 0.998456 -0.168914
C34   C     C_R   0.565929 0.985944 0.001544 -0.168914
C35   C     C_R   0.066041 0.511150 0.001796 -0.167968
C36   C     C_R   0.933959 0.488854 0.998207 -0.167969
H5    H     H_    0.585367 0.007950 0.829035 0.149248
H6    H     H_    0.414633 0.992062 0.170966 0.149242
H7    H     H_    0.915317 0.462041 0.171002 0.148824
H8    H     H_    0.084683 0.537997 0.829001 0.148826
H9    H     H_    0.356135 0.064967 0.822599 0.096579
H10   H     H_    0.643864 0.935033 0.177402 0.096573
H11   H     H_    0.145388 0.495681 0.178566 0.092825
H12   H     H_    0.854613 0.504361 0.821438 0.092822
C37   C     C_R   0.176898 0.008767 0.723295 -0.022168
C38   C     C_R   0.823101 0.991235 0.276704 -0.022163
C39   C     C_R   0.322973 0.521122 0.277168 -0.024452
C40   C     C_R   0.677021 0.478890 0.722834 -0.024399
C41   C     C_R   0.187719 0.937442 0.568664 -0.151714
C42   C     C_R   0.812280 0.062542 0.431336 -0.151732
C43   C     C_R   0.313856 0.593697 0.432679 -0.154233
C44   C     C_R   0.686153 0.406593 0.567304 -0.154250
C45   C     C_R   0.215254 0.961125 0.664415 -0.167933
C46   C     C_R   0.784743 0.038824 0.335588 -0.167949
C47   C     C_R   0.285923 0.576709 0.336750 -0.163223
C48   C     C_R   0.714086 0.423543 0.663235 -0.163272
C49   C     C_R   0.110694 0.031895 0.686448 -0.160308
C50   C     C_R   0.889308 0.968175 0.313546 -0.160298
C51   C     C_R   0.388461 0.483662 0.313765 -0.164253
C52   C     C_R   0.611519 0.516174 0.686250 -0.164197
C53   C     C_R   0.081058 0.003842 0.589501 0.092850
C54   C     C_R   0.918945 0.996257 0.410491 0.092860
C55   C     C_R   0.418784 0.507304 0.410886 0.091998
C56   C     C_R   0.581205 0.492667 0.589120 0.091985
C57   C     C_R   0.121209 0.956580 0.530941 0.134904
C58   C     C_R   0.878793 0.043485 0.469053 0.134917
C59   C     C_R   0.379798 0.562206 0.469992 0.133426
C60   C     C_R   0.620201 0.437938 0.530001 0.133447
C61   C     C_R   0.013186 0.017153 0.549202 0.094720
C62   C     C_R   0.986819 0.982982 0.450787 0.094701
C63   C     C_R   0.486385 0.484026 0.450767 0.100771
C64   C     C_R   0.513604 0.515944 0.549238 0.100768
C65   C     C_R   0.029225 0.938367 0.395885 -0.148212
C66   C     C_R   0.970780 0.061782 0.604102 -0.148195
C67   C     C_R   0.472233 0.567784 0.604656 -0.147105
C68   C     C_R   0.527762 0.432302 0.395341 -0.147110
C69   C     C_R   0.094859 0.925669 0.435336 -0.167838
C70   C     C_R   0.905144 0.074439 0.564655 -0.167856
C71   C     C_R   0.406872 0.589973 0.565668 -0.169439
C72   C     C_R   0.593130 0.410225 0.434321 -0.169443
H13   H     H_    0.125340 0.889477 0.390366 0.118562
H14   H     H_    0.874663 0.110617 0.609626 0.118570
H15   H     H_    0.377247 0.631998 0.611006 0.120387
H16   H     H_    0.622763 0.368352 0.388971 0.120383
H17   H     H_    0.916048 0.933041 0.263990 0.092313
H18   H     H_    0.083956 0.067058 0.736002 0.092321
H19   H     H_    0.585539 0.555213 0.736247 0.094703
H20   H     H_    0.414426 0.444352 0.263788 0.094777
H21   H     H_    0.733589 0.058983 0.307372 0.098446
H22   H     H_    0.266405 0.940904 0.692635 0.098445
H23   H     H_    0.764517 0.391158 0.691112 0.098694
H24   H     H_    0.235503 0.609239 0.308861 0.098713
H25   H     H_    0.218388 0.901098 0.524084 0.110782
H26   H     H_    0.781608 0.098853 0.475919 0.110815
H27   H     H_    0.284112 0.636444 0.477638 0.111055
H28   H     H_    0.715907 0.364009 0.522333 0.111086
H29   H     H_    0.013456 0.911287 0.321594 0.114939
H30   H     H_    0.986550 0.088891 0.678391 0.114938
H31   H     H_    0.488680 0.593885 0.678979 0.114443
H32   H     H_    0.511321 0.406313 0.321008 0.114426
C73   C     C_2   0.508946 0.052681 0.655725 0.746604
O21   O     O_2   0.468785 0.077057 0.581032 -0.564138
O22   O     O_R   0.573542 0.031269 0.657486 -0.668748
H33   H     H_    0.581073 0.040656 0.593062 0.331808
C74   C     C_2   0.491053 0.947343 0.344276 0.746618
O23   O     O_2   0.531215 0.922974 0.418970 -0.564130
O24   O     O_R   0.426458 0.968751 0.342514 -0.668755
H34   H     H_    0.418927 0.959372 0.406938 0.331808
C75   C     C_2   0.992883 0.449466 0.345101 0.748642
O25   O     O_2   0.033623 0.432955 0.419879 -0.563417
O26   O     O_R   0.927893 0.453992 0.343208 -0.668630
H35   H     H_    0.920652 0.440481 0.407638 0.331693
C76   C     C_2   0.007117 0.550639 0.654906 0.748640
O27   O     O_2   0.966378 0.567188 0.580130 -0.563418
O28   O     O_R   0.072108 0.546110 0.656798 -0.668627
H36   H     H_    0.079349 0.559654 0.592369 0.331698

loop_
_geom_bond_atom_site_label_1
_geom_bond_atom_site_label_2
_ccdc_geom_bond_type
O17   V3    S    
C43   C47   A    
O1    C5    A    
C8    C33   S    
C12   C32   A    
C27   C31   A    
O19   V1    S    
O13   V1    S    
O3    C7    A    
C56   C60   A    
C44   C48   A    
O15   V3    S    
C40   C48   A    
C61   C62   A    
O24   H34   S    
O7    C3    A    
C75   O26   S    
C31   C36   A    
C22   C26   A    
C50   H17   S    
O9    V1    S    
C49   H18   S    
O10   V2    S    
C10   C14   A    
C51   C55   A    
C76   O28   S    
C44   H28   S    
O4    C8    A    
O28   H36   S    
O1    V3    S    
H4    C19   S    
O2    V4    S    
C14   C18   A    
O3    V1    S    
C5    C36   S    
C57   C69   A    
C6    C35   S    
C10   C30   A    
C25   C33   A    
C1    O15   A    
C7    C34   S    
C58   C70   A    
C10   H6    S    
C2    O16   A    
C16   C76   S    
C9    H5    S    
O2    C6    A    
C65   H29   S    
C28   C36   A    
C15   C75   S    
O14   V2    S    
C1    C40   S    
C17   C21   A    
C44   C60   A    
C67   H31   S    
C40   C52   A    
C12   C16   A    
C61   C66   A    
C71   H15   S    
C30   C33   A    
O11   C7    A    
C63   C68   A    
C60   C72   A    
O12   C8    A    
C21   H9    S    
C4    C37   S    
O17   V1    S    
H1    C18   S    
C27   C35   A    
C23   H11   S    
C38   C46   A    
H3    C20   S    
C37   C45   A    
C54   C58   A    
O5    V1    S    
C65   C69   A    
O7    V3    S    
O19   V3    S    
O8    V4    S    
C52   C56   A    
O20   V4    S    
C50   C54   A    
C25   C29   A    
O18   V4    S    
C19   C23   A    
C26   C34   A    
C29   C34   A    
C43   H27   S    
C45   H22   S    
C64   C67   A    
C72   H16   S    
C53   C61   A    
C47   H24   S    
C43   C59   A    
C24   H12   S    
C2    C39   S    
C42   C46   A    
C63   C64   A    
C68   H32   S    
C41   C45   A    
O8    C4    A    
C11   C31   A    
C26   C30   A    
O9    C5    A    
H2    C17   S    
C38   C50   A    
C37   C49   A    
C51   H20   S    
C59   C71   A    
C39   C51   A    
O6    V2    S    
O18   V2    S    
C14   C74   S    
C74   O23   D    
C32   C35   A    
O22   H33   S    
C9    C13   A    
C68   C72   A    
C56   C64   A    
C73   O21   D    
O16   V4    S    
C69   H13   S    
C3    O13   A    
C49   C53   A    
C11   H7    S    
O5    C1    A    
C66   H30   S    
C3    C38   S    
O6    C2    A    
C11   C15   A    
O26   H35   S    
O11   V3    S    
O12   V4    S    
C62   C65   A    
C75   O25   D    
C18   C22   A    
O10   C6    A    
C52   H19   S    
O20   V2    S    
C22   H10   S    
C16   C20   A    
C76   O27   D    
C13   C73   S    
C39   C47   A    
C42   C58   A    
C48   H23   S    
C21   C25   A    
C41   C57   A    
C66   C70   A    
C23   C27   A    
C53   C57   A    
C42   H26   S    
O4    V2    S    
C41   H25   S    
C55   C59   A    
C28   C32   A    
C20   C24   A    
C70   H14   S    
C12   H8    S    
C4    O14   A    
C74   O24   S    
C13   C17   A    
C67   C71   A    
C46   H21   S    
C55   C63   A    
C15   C19   A    
C54   C62   A    
C9    C29   A    
C24   C28   A    
C73   O22   S    
