data_mof_unit_32525.cif
_audit_creation_date              2012-12-11T14:54:43-0500
_audit_creation_method            fapswitch 2.2
_symmetry_space_group_name_H-M    P1
_symmetry_Int_Tables_number       1
_space_group_crystal_system       triclinic
_cell_length_a                    19.188514
_cell_length_b                    11.154272
_cell_length_c                    18.853938
_cell_angle_alpha                 90.275627
_cell_angle_beta                  89.904589
_cell_angle_gamma                 89.32977
_cell_volume                      4035.05320319

loop_
_atom_site_label
_atom_site_type_symbol
_atom_type_description
_atom_site_fract_x
_atom_site_fract_y
_atom_site_fract_z
_atom_type_partial_charge
C1    C     C_R   0.727327 0.370005 0.643564 0.534807
C2    C     C_R   0.270782 0.373681 0.354587 0.521054
C3    C     C_R   0.227321 0.869988 0.643558 0.534729
C4    C     C_R   0.770782 0.873678 0.354588 0.521079
C5    C     C_3   0.462260 0.374436 0.464040 0.142434
C6    C     C_3   0.478244 0.379383 0.542896 0.124176
C7    C     C_3   0.962248 0.874415 0.464044 0.142454
C8    C     C_3   0.978222 0.879344 0.542902 0.124185
C9    C     C_R   0.742749 0.825762 0.547662 0.281586
C10   C     C_R   0.309224 0.879862 0.463263 0.251585
C11   C     C_R   0.242812 0.325759 0.547668 0.281550
C12   C     C_R   0.809239 0.379914 0.463274 0.251555
C13   C     C_R   0.748467 0.804186 0.475070 -0.107868
C14   C     C_R   0.302678 0.868988 0.536556 -0.085288
C15   C     C_R   0.248532 0.304180 0.475077 -0.107832
C16   C     C_R   0.802692 0.369041 0.536567 -0.085331
C17   C     C_R   0.754473 0.900387 0.427611 -0.031252
C18   C     C_R   0.238454 0.891947 0.568739 -0.010232
C19   C     C_R   0.254479 0.400381 0.427612 -0.031239
C20   C     C_R   0.738465 0.391983 0.568748 -0.010157
C21   C     C_R   0.753717 0.018224 0.452062 -0.169671
C22   C     C_R   0.179905 0.918792 0.527074 -0.159903
C23   C     C_R   0.253663 0.518221 0.452057 -0.169736
C24   C     C_R   0.679917 0.418823 0.527081 -0.159830
C25   C     C_R   0.748328 0.040111 0.524191 -0.173598
C26   C     C_R   0.185866 0.930695 0.454911 -0.183976
C27   C     C_R   0.248266 0.540111 0.524185 -0.173646
C28   C     C_R   0.685876 0.430715 0.454918 -0.183974
C29   C     C_R   0.744722 0.944326 0.571999 0.085672
C30   C     C_R   0.250779 0.918105 0.422689 0.005846
C31   C     C_R   0.244720 0.444329 0.571998 0.085621
C32   C     C_R   0.750789 0.418130 0.422697 0.005844
C33   C     C_R   0.456476 0.084725 0.946232 0.236744
C34   C     C_R   0.464948 0.070193 0.019536 0.292745
C35   C     C_R   0.956477 0.584724 0.946232 0.236746
C36   C     C_R   0.964949 0.570192 0.019537 0.292747
C37   C     C_R   0.450036 0.171394 0.061350 -0.095763
C38   C     C_R   0.491121 0.180734 0.918233 -0.057707
C39   C     C_R   0.950036 0.671394 0.061351 -0.095762
C40   C     C_R   0.991122 0.680734 0.918233 -0.057708
C41   C     C_R   0.464800 0.284582 0.029554 0.212845
C42   C     C_R   0.493714 0.285879 0.960273 0.231096
C43   C     C_R   0.964800 0.784582 0.029554 0.212845
C44   C     C_R   0.993714 0.785878 0.960273 0.231097
C45   C     C_R   0.534013 0.154453 0.645613 0.586118
C46   C     C_R   0.467373 0.154226 0.353497 0.561343
C47   C     C_R   0.034022 0.654449 0.645608 0.586133
C48   C     C_R   0.967377 0.654226 0.353494 0.561355
C49   C     C_R   0.799836 0.974481 0.968252 0.201955
C50   C     C_R   0.198306 0.967635 0.032655 0.236869
C51   C     C_R   0.299836 0.474480 0.968251 0.201957
C52   C     C_R   0.698306 0.467636 0.032655 0.236865
C53   C     C_R   0.792303 0.987801 0.040390 0.217865
C54   C     C_R   0.205296 0.984777 0.961353 0.226636
C55   C     C_R   0.292303 0.487800 0.040390 0.217866
C56   C     C_R   0.705296 0.484777 0.961353 0.226635
C57   C     C_R   0.748826 0.910585 0.076181 -0.076387
C58   C     C_R   0.252540 0.914345 0.923891 -0.068259
C59   C     C_R   0.248826 0.410585 0.076181 -0.076387
C60   C     C_R   0.752540 0.414346 0.923891 -0.068262
C61   C     C_R   0.696875 0.848638 0.037430 0.212437
C62   C     C_R   0.310466 0.859364 0.959464 0.255439
C63   C     C_R   0.196875 0.348637 0.037430 0.212439
C64   C     C_R   0.810466 0.359365 0.959463 0.255436
C65   C     C_R   0.688509 0.876059 0.965345 0.224890
C66   C     C_R   0.315716 0.879569 0.034249 0.184829
C67   C     C_R   0.188509 0.376059 0.965345 0.224889
C68   C     C_R   0.815716 0.379569 0.034249 0.184830
C69   C     C_R   0.744439 0.931816 0.928778 -0.054938
C70   C     C_R   0.256130 0.928737 0.071233 -0.047807
C71   C     C_R   0.244439 0.431816 0.928778 -0.054940
C72   C     C_R   0.756130 0.428738 0.071233 -0.047806
C73   C     C_R   0.740443 0.973678 0.646491 0.607492
C74   C     C_R   0.259205 0.969512 0.352428 0.551791
C75   C     C_R   0.240442 0.473683 0.646490 0.607455
C76   C     C_R   0.759207 0.469518 0.352430 0.551798
C77   C     C_R   0.730389 0.377294 0.852562 0.564275
C78   C     C_R   0.270155 0.375476 0.147315 0.566621
C79   C     C_R   0.230389 0.877294 0.852562 0.564265
C80   C     C_R   0.770155 0.875476 0.147316 0.566624
C81   C     C_R   0.532521 0.159823 0.853277 0.562114
C82   C     C_R   0.437396 0.154885 0.139020 0.565431
C83   C     C_R   0.032521 0.659822 0.853277 0.562118
C84   C     C_R   0.937396 0.654885 0.139020 0.565430
C85   C     C_R   0.739668 0.973996 0.855409 0.595171
C86   C     C_R   0.260159 0.972003 0.144810 0.596318
C87   C     C_R   0.239668 0.473996 0.855409 0.595164
C88   C     C_R   0.760159 0.472003 0.144810 0.596322
C89   C     C_R   0.501489 0.157903 0.422720 -0.039193
C90   C     C_R   0.512212 0.158293 0.571587 0.032513
C91   C     C_R   0.001507 0.657905 0.422710 -0.039180
C92   C     C_R   0.012244 0.658273 0.571574 0.032457
C93   C     C_R   0.507959 0.265080 0.460807 -0.049327
C94   C     C_R   0.518883 0.264930 0.533434 -0.081813
C95   C     C_R   0.007964 0.765079 0.460802 -0.049322
C96   C     C_R   0.018885 0.764921 0.533428 -0.081826
C97   C     C_R   0.506273 0.048869 0.533927 0.281855
C98   C     C_R   0.511562 0.048437 0.459805 0.269134
C99   C     C_R   0.006340 0.548848 0.533905 0.281844
C100  C     C_R   0.011608 0.548436 0.459783 0.269173
Cr1   Cr    Cr6+3 0.771950 0.169480 0.750100 1.106211
Cr2   Cr    Cr6+3 0.228050 0.169480 0.249900 1.046250
Cr3   Cr    Cr6+3 0.271950 0.669480 0.750100 1.106217
Cr4   Cr    Cr6+3 0.728050 0.669480 0.249900 1.046266
Cr5   Cr    Cr6+3 0.614930 0.323340 0.749170 1.111347
Cr6   Cr    Cr6+3 0.385070 0.323340 0.250830 1.148620
Cr7   Cr    Cr6+3 0.114930 0.823340 0.749170 1.111325
Cr8   Cr    Cr6+3 0.885070 0.823340 0.250830 1.148620
Cr9   Cr    Cr6+3 0.616590 0.010620 0.750610 1.086396
Cr10  Cr    Cr6+3 0.383410 0.010620 0.249390 1.121282
Cr11  Cr    Cr6+3 0.116590 0.510620 0.750610 1.086376
Cr12  Cr    Cr6+3 0.883410 0.510620 0.249390 1.121272
H1    H     H_    0.906896 0.855495 0.451499 0.184387
H2    H     H_    0.011258 0.955728 0.559128 0.154393
H3    H     H_    0.406904 0.355535 0.451504 0.184376
H4    H     H_    0.511297 0.455754 0.559107 0.154344
H5    H     H_    0.751905 0.712348 0.456159 0.148281
H6    H     H_    0.347642 0.843504 0.567984 0.179360
H7    H     H_    0.252018 0.212345 0.456170 0.148248
H8    H     H_    0.847657 0.343571 0.567997 0.179356
H9    H     H_    0.757789 0.092342 0.415555 0.118113
H10   H     H_    0.129028 0.932022 0.550366 0.149549
H11   H     H_    0.257691 0.592339 0.415544 0.118094
H12   H     H_    0.629039 0.432044 0.550372 0.149510
H13   H     H_    0.747712 0.131885 0.543047 0.120766
H14   H     H_    0.140393 0.957076 0.424848 0.213284
H15   H     H_    0.247601 0.631886 0.543037 0.120737
H16   H     H_    0.640401 0.457082 0.424855 0.213287
O1    O     O_R   0.787510 0.042610 0.670410 -0.467703
O2    O     O_R   0.212490 0.042610 0.329590 -0.516951
O3    O     O_R   0.287510 0.542610 0.670410 -0.467643
O4    O     O_R   0.712490 0.542610 0.329590 -0.516944
O5    O     O_R   0.556450 0.252890 0.823790 -0.453287
O6    O     O_R   0.443550 0.252890 0.176210 -0.446279
O7    O     O_R   0.056450 0.752890 0.823790 -0.453282
O8    O     O_R   0.943550 0.752890 0.176210 -0.446285
O9    O     O_R   0.545750 0.051070 0.830560 -0.431191
O10   O     O_R   0.454250 0.051070 0.169440 -0.445267
O11   O     O_R   0.045750 0.551070 0.830560 -0.431189
O12   O     O_R   0.954250 0.551070 0.169440 -0.445269
O13   O     O_R   0.681210 0.959150 0.825320 -0.453921
O14   O     O_R   0.318790 0.959150 0.174680 -0.458647
O15   O     O_R   0.181210 0.459150 0.825320 -0.453929
O16   O     O_R   0.818790 0.459150 0.174680 -0.458646
O17   O     O_3   0.667820 0.167810 0.749960 -0.323314
O18   O     O_3   0.332180 0.167810 0.250040 -0.332583
O19   O     O_3   0.167820 0.667810 0.749960 -0.323310
O20   O     O_3   0.832180 0.667810 0.250040 -0.332582
O21   O     O_R   0.765670 0.292090 0.675090 -0.518347
O22   O     O_R   0.234330 0.292090 0.324910 -0.529380
O23   O     O_R   0.265670 0.792090 0.675090 -0.518323
O24   O     O_R   0.734330 0.792090 0.324910 -0.529385
O25   O     O_R   0.670220 0.409020 0.668560 -0.545803
O26   O     O_R   0.329780 0.409020 0.331440 -0.485735
O27   O     O_R   0.170220 0.909020 0.668560 -0.545836
O28   O     O_R   0.829780 0.909020 0.331440 -0.485722
O29   O     O_R   0.556580 0.251590 0.674980 -0.492836
O30   O     O_R   0.443420 0.251590 0.325020 -0.477492
O31   O     O_R   0.056580 0.751590 0.674980 -0.492839
O32   O     O_R   0.943420 0.751590 0.325020 -0.477511
O33   O     O_R   0.545890 0.049670 0.670030 -0.496092
O34   O     O_R   0.454110 0.049670 0.329970 -0.446295
O35   O     O_R   0.045890 0.549670 0.670030 -0.496051
O36   O     O_R   0.954110 0.549670 0.329970 -0.446274
O37   O     O_R   0.681340 0.957860 0.676500 -0.541431
O38   O     O_R   0.318660 0.957860 0.323500 -0.457769
O39   O     O_R   0.181340 0.457860 0.676500 -0.541511
O40   O     O_R   0.818660 0.457860 0.323500 -0.457792
O41   O     O_R   0.787380 0.044010 0.830940 -0.428649
O42   O     O_R   0.212620 0.044010 0.169060 -0.447544
O43   O     O_R   0.287380 0.544010 0.830940 -0.428645
O44   O     O_R   0.712620 0.544010 0.169060 -0.447541
O45   O     O_R   0.765540 0.293390 0.823910 -0.461908
O46   O     O_R   0.234460 0.293390 0.176090 -0.504654
O47   O     O_R   0.265540 0.793390 0.823910 -0.461904
O48   O     O_R   0.734460 0.793390 0.176090 -0.504653
O49   O     O_R   0.670090 0.410410 0.829090 -0.422932
O50   O     O_R   0.329910 0.410410 0.170910 -0.412104
O51   O     O_R   0.170090 0.910410 0.829090 -0.422944
O52   O     O_R   0.829910 0.910410 0.170910 -0.412103
O53   O     O_3   0.482884 0.947757 0.569232 -0.518609
C101  C     C_3   0.531805 0.852630 0.564891 -0.046038
H17   H     H_    0.586472 0.883549 0.558977 0.083502
H18   H     H_    0.518011 0.790421 0.521158 0.178998
H19   H     H_    0.528655 0.800560 0.614716 0.129454
O54   O     O_3   0.511547 0.939049 0.425007 -0.508542
C102  C     C_3   0.577834 0.919249 0.394823 -0.107873
H20   H     H_    0.617761 0.913143 0.436977 0.094241
H21   H     H_    0.591595 0.990078 0.356014 0.119412
H22   H     H_    0.577659 0.832179 0.366150 0.164795
O55   O     O_3   0.982997 0.447694 0.569199 -0.518539
C103  C     C_3   0.031983 0.352662 0.564883 -0.046070
H23   H     H_    0.086636 0.383690 0.559020 0.083498
H24   H     H_    0.018265 0.290445 0.521129 0.178912
H25   H     H_    0.028829 0.300566 0.614699 0.129492
O56   O     O_3   0.011585 0.439053 0.424981 -0.508540
C104  C     C_3   0.077864 0.419256 0.394778 -0.107884
H26   H     H_    0.117787 0.413053 0.436918 0.094302
H27   H     H_    0.091644 0.490124 0.356008 0.119337
H28   H     H_    0.077665 0.332244 0.366063 0.164791
Cl1   Cl    Cl    0.881464 0.989177 0.929320 -0.498674
Cl2   Cl    Cl    0.116097 0.993301 0.071406 -0.405499
Cl3   Cl    Cl    0.381464 0.489178 0.929320 -0.498671
Cl4   Cl    Cl    0.616097 0.493302 0.071406 -0.405493
Cl5   Cl    Cl    0.832721 0.104409 0.085424 -0.477118
Cl6   Cl    Cl    0.156371 0.097209 0.919538 -0.395188
Cl7   Cl    Cl    0.332722 0.604408 0.085423 -0.477118
Cl8   Cl    Cl    0.656371 0.597209 0.919538 -0.395169
O57   O     O_3   0.663204 0.749808 0.064980 -0.477306
C105  C     C_3   0.603773 0.784181 0.104694 0.075176
H29   H     H_    0.590420 0.710123 0.141029 0.190268
H30   H     H_    0.558523 0.796581 0.069096 0.240740
H31   H     H_    0.612222 0.862918 0.139709 0.083394
O58   O     O_3   0.355408 0.788031 0.917149 -0.523127
C106  C     C_3   0.421384 0.752040 0.943282 0.119718
H32   H     H_    0.417293 0.686807 0.986407 0.258428
H33   H     H_    0.454803 0.825480 0.960901 0.236434
H34   H     H_    0.450385 0.707557 0.899349 0.210798
O59   O     O_3   0.163205 0.249807 0.064980 -0.477304
C107  C     C_3   0.103773 0.284181 0.104694 0.075172
H35   H     H_    0.090418 0.210120 0.141025 0.190268
H36   H     H_    0.058524 0.296585 0.069095 0.240741
H37   H     H_    0.112223 0.362915 0.139710 0.083391
O60   O     O_3   0.855408 0.288032 0.917149 -0.523129
C108  C     C_3   0.921384 0.252039 0.943282 0.119718
H38   H     H_    0.917292 0.186806 0.986407 0.258428
H39   H     H_    0.954804 0.325478 0.960901 0.236435
H40   H     H_    0.950385 0.207555 0.899350 0.210800
Cl9   Cl    Cl    0.605223 0.852513 0.927764 -0.466373
Cl10  Cl    Cl    0.394625 0.849667 0.081144 -0.522604
Cl11  Cl    Cl    0.105223 0.352513 0.927764 -0.466378
Cl12  Cl    Cl    0.894625 0.349668 0.081144 -0.522605
Cl13  Cl    Cl    0.497853 0.496225 0.415747 -0.692790
Cl14  Cl    Cl    0.404207 0.362696 0.598765 -0.577605
Cl15  Cl    Cl    0.997829 0.996234 0.415769 -0.692776
Cl16  Cl    Cl    0.904181 0.862581 0.598757 -0.577665
O61   O     O_3   0.747541 0.731569 0.594595 -0.524078
C109  C     C_3   0.679948 0.691451 0.609355 -0.115038
H41   H     H_    0.648440 0.760567 0.637162 0.123975
H42   H     H_    0.684289 0.616789 0.646966 0.193085
H43   H     H_    0.652942 0.660087 0.560612 0.099159
O62   O     O_3   0.374647 0.867163 0.433631 -0.496667
C110  C     C_3   0.383959 0.746817 0.412494 -0.030936
H44   H     H_    0.345817 0.721508 0.370808 0.115362
H45   H     H_    0.380806 0.685062 0.458594 0.138690
H46   H     H_    0.436677 0.736523 0.388967 0.214584
O63   O     O_3   0.247679 0.231583 0.594606 -0.524067
C111  C     C_3   0.180117 0.191386 0.609429 -0.114967
H47   H     H_    0.153101 0.159931 0.560716 0.099217
H48   H     H_    0.148585 0.260483 0.637221 0.123932
H49   H     H_    0.184525 0.116774 0.647072 0.193097
O64   O     O_3   0.874664 0.367238 0.433644 -0.496636
C112  C     C_3   0.883993 0.246889 0.412515 -0.030832
H50   H     H_    0.845863 0.221565 0.370820 0.115342
H51   H     H_    0.880836 0.185138 0.458616 0.138693
H52   H     H_    0.936719 0.236606 0.389002 0.214604
O65   O     O_3   0.431781 0.995343 0.902472 -0.538440
C113  C     C_3   0.383957 0.044502 0.852899 -0.064791
H53   H     H_    0.340992 0.094746 0.879981 0.110911
H54   H     H_    0.361206 0.970308 0.821786 0.177489
H55   H     H_    0.409215 0.103301 0.813458 0.138898
O66   O     O_3   0.520502 0.999217 0.041896 -0.519470
C114  C     C_3   0.582330 0.069410 0.045745 -0.087280
H56   H     H_    0.576361 0.155489 0.074967 0.132038
H57   H     H_    0.603800 0.086489 0.992095 0.133594
H58   H     H_    0.622027 0.023215 0.077134 0.115473
O67   O     O_3   0.931782 0.495342 0.902473 -0.538442
C115  C     C_3   0.883958 0.544501 0.852900 -0.064786
H59   H     H_    0.840994 0.594750 0.879980 0.110917
H60   H     H_    0.861205 0.470303 0.821790 0.177495
H61   H     H_    0.909217 0.603293 0.813455 0.138904
O68   O     O_3   0.020502 0.499217 0.041896 -0.519472
C116  C     C_3   0.082330 0.569410 0.045746 -0.087284
H62   H     H_    0.076361 0.655490 0.074967 0.132037
H63   H     H_    0.103801 0.586488 0.992096 0.133597
H64   H     H_    0.122027 0.523215 0.077135 0.115473
Cl17  Cl    Cl    0.460170 0.420917 0.076902 -0.346285
Cl18  Cl    Cl    0.535027 0.415258 0.929554 -0.357038
Cl19  Cl    Cl    0.960170 0.920917 0.076902 -0.346289
Cl20  Cl    Cl    0.035027 0.915258 0.929554 -0.357036

loop_
_geom_bond_atom_site_label_1
_geom_bond_atom_site_label_2
_ccdc_geom_bond_type
C2    O22   A    
C114  H58   S    
Cr5   O25   S    
C88   O16   A    
C58   C62   A    
C93   C94   A    
C88   O44   A    
C55   C59   A    
C34   C37   A    
Cr10  O38   S    
C41   C42   A    
C14   C18   A    
Cr1   O45   S    
C95   C96   A    
C8    C96   S    
C92   C96   A    
C43   C44   A    
C55   Cl7   S    
O60   C108  S    
C116  H64   S    
Cr3   O23   S    
C107  H36   S    
C97   C98   A    
Cr10  O34   S    
Cr3   O19   S    
C7    C8    S    
Cr4   O48   S    
C46   C89   S    
C47   O31   A    
O53   C101  S    
C5    H3    S    
C81   O9    A    
C48   O32   A    
C109  H43   S    
Cr1   O17   S    
C50   C54   A    
C13   C17   A    
C37   C41   A    
C5    C6    S    
C64   C68   A    
Cr5   O5    S    
C108  H38   S    
C39   C84   S    
C38   C42   A    
Cr11  O19   S    
C16   H8    S    
C26   H14   S    
C112  H50   S    
C30   C74   S    
C49   C53   A    
C13   H5    S    
C64   O60   S    
C29   C73   S    
C110  H44   S    
Cr12  O40   S    
C75   O39   A    
C24   H12   S    
C108  H40   S    
C9    C13   A    
Cr8   O52   S    
C3    C18   S    
Cr9   O9    S    
O65   C113  S    
C47   C92   S    
C63   O59   S    
C57   C61   A    
Cr10  O14   S    
C25   H13   S    
C101  H17   S    
C102  H22   S    
C45   O33   A    
C56   Cl8   S    
C108  H39   S    
C11   C15   A    
C1    O21   A    
Cr5   O29   S    
C35   C36   A    
C51   Cl3   S    
O68   C116  S    
C6    C94   S    
C48   C91   S    
C10   O62   S    
C53   Cl5   S    
Cr1   O41   S    
C23   C27   A    
C91   C100  A    
Cr4   O20   S    
C18   C22   A    
C90   C97   A    
C83   O7    A    
C111  H49   S    
C8    H2    S    
Cr4   O44   S    
C47   O35   A    
C100  O56   S    
C6    Cl14  S    
C57   C80   S    
C11   C31   A    
C2    O26   A    
C49   C69   A    
O61   C109  S    
C12   C32   A    
Cr3   O43   S    
C62   O58   S    
C40   C83   S    
C28   H16   S    
C51   C71   A    
C42   Cl18  S    
Cr12  O36   S    
C59   C78   S    
C83   O11   A    
C107  H35   S    
C72   C88   S    
C75   O3    A    
C90   C94   A    
C49   Cl1   S    
C50   Cl2   S    
C25   C29   A    
C4    O24   A    
C109  H42   S    
Cr11  O15   S    
C59   C63   A    
C102  H21   S    
C111  H48   S    
C34   O66   S    
C27   C31   A    
O55   C103  S    
C103  H25   S    
C12   C16   A    
C28   C32   A    
C45   O29   A    
C76   O40   A    
C80   O48   A    
C73   O37   A    
C10   C14   A    
C106  H34   S    
C85   O13   A    
O59   C107  S    
C112  H51   S    
C62   C66   A    
O58   C106  S    
C39   C43   A    
Cr2   O42   S    
Cr6   O26   S    
Cr7   O19   S    
Cr6   O30   S    
C91   C95   A    
C85   O41   A    
Cr12  O20   S    
C68   C72   A    
C52   Cl4   S    
C101  H19   S    
C103  H24   S    
C82   O6    A    
C104  H28   S    
C15   C19   A    
C106  H32   S    
C63   C67   A    
C87   O43   A    
C52   C72   A    
C79   O47   A    
C46   O30   A    
C77   O49   A    
C10   C30   A    
Cr6   O6    S    
C31   C75   S    
O57   C105  S    
Cr8   O28   S    
C115  H61   S    
Cr10  O10   S    
C16   C20   A    
C110  H46   S    
Cr5   O17   S    
Cr7   O31   S    
Cr3   O47   S    
C33   C34   A    
C36   O68   S    
Cr11  O35   S    
C54   Cl6   S    
C61   O57   S    
C115  H59   S    
C104  H27   S    
C81   O5    A    
C45   C90   S    
C68   Cl12  S    
C6    H4    S    
Cr2   O2    S    
Cr9   O37   S    
C58   C79   S    
Cr2   O22   S    
C7    Cl15  S    
C71   C87   S    
C4    C17   S    
C8    Cl16  S    
C77   O45   A    
C4    O28   A    
C115  H60   S    
C26   C30   A    
C105  H30   S    
C74   O2    A    
C38   C81   S    
C9    O61   S    
C79   O51   A    
C37   C82   S    
C22   H10   S    
C113  H55   S    
Cr11  O39   S    
C3    O27   A    
Cr2   O18   S    
Cr12  O12   S    
C70   C86   S    
C80   O52   A    
C113  H54   S    
C74   O38   A    
C22   C26   A    
C69   C85   S    
C111  H47   S    
C19   C23   A    
C86   O14   A    
C14   H6    S    
C54   C58   A    
C114  H57   S    
C21   C25   A    
C109  H41   S    
C84   O8    A    
C1    C20   S    
C53   C57   A    
C101  H18   S    
Cr7   O51   S    
C2    C19   S    
C78   O50   A    
Cr7   O7    S    
C36   C39   A    
Cr9   O17   S    
Cr4   O24   S    
C24   C28   A    
Cr5   O49   S    
O56   C104  S    
C12   O64   S    
C32   C76   S    
C112  H52   S    
C5    C93   S    
O63   C111  S    
Cr2   O46   S    
C97   O53   S    
O66   C114  S    
Cr8   O32   S    
C9    C29   A    
C5    Cl13  S    
C105  H31   S    
C7    C95   S    
C66   Cl10  S    
C3    O23   A    
C33   C38   A    
Cr6   O18   S    
Cr8   O8    S    
C65   Cl9   S    
C89   C98   A    
C60   C64   A    
O67   C115  S    
C11   O63   S    
C60   C77   S    
Cr12  O16   S    
C114  H56   S    
C35   C40   A    
C50   C70   A    
C102  H20   S    
C82   O10   A    
Cr9   O33   S    
C99   C100  A    
C103  H23   S    
C99   O55   S    
C76   O4    A    
C7    H1    S    
C44   Cl20  S    
C35   O67   S    
C86   O42   A    
C48   O36   A    
C65   C69   A    
O62   C110  S    
Cr1   O21   S    
C116  H63   S    
C23   H11   S    
C15   H7    S    
C113  H53   S    
C67   C71   A    
C61   C65   A    
C89   C93   A    
C104  H26   S    
C20   C24   A    
C17   C21   A    
C27   H15   S    
C1    O25   A    
C106  H33   S    
C41   Cl17  S    
C67   Cl11  S    
Cr11  O11   S    
C56   C60   A    
C40   C44   A    
C43   Cl19  S    
C66   C70   A    
C84   O12   A    
C98   O54   S    
C105  H29   S    
Cr4   O4    S    
C33   O65   S    
C51   C55   A    
C78   O46   A    
O64   C112  S    
C21   H9    S    
Cr9   O13   S    
C110  H45   S    
C87   O15   A    
O54   C102  S    
Cr10  O18   S    
Cr3   O3    S    
Cr6   O50   S    
C107  H37   S    
Cr7   O27   S    
C52   C56   A    
C92   C99   A    
Cr1   O1    S    
C46   O34   A    
Cr8   O20   S    
C73   O1    A    
C116  H62   S    
