data_mof_unit_58022.cif
_audit_creation_date              2012-12-10T17:28:30-0500
_audit_creation_method            fapswitch 2.2
_symmetry_space_group_name_H-M    P1
_symmetry_Int_Tables_number       1
_space_group_crystal_system       triclinic
_cell_length_a                    10.645444
_cell_length_b                    12.009681
_cell_length_c                    12.95288
_cell_angle_alpha                 93.2684
_cell_angle_beta                  90.252374
_cell_angle_gamma                 87.303685
_cell_volume                      1651.47833216

loop_
_atom_site_label
_atom_site_type_symbol
_atom_type_description
_atom_site_fract_x
_atom_site_fract_y
_atom_site_fract_z
_atom_type_partial_charge
C1    C     C_R   0.487765 0.521669 0.700122 0.864840
C2    C     C_R   0.528730 0.562984 0.130710 -0.085073
C3    C     C_R   0.496547 0.446538 0.974917 0.084206
C4    C     C_R   0.503457 0.553462 0.025084 0.084207
C5    C     C_R   0.374512 0.952443 0.410173 -0.286796
C6    C     C_R   0.625490 0.047557 0.589825 -0.286797
C7    C     C_R   0.387753 0.836991 0.418017 0.044840
C8    C     C_R   0.612249 0.163009 0.581980 0.044841
C9    C     C_R   0.556342 0.858406 0.537263 0.087704
C10   C     C_R   0.443658 0.141594 0.462738 0.087706
C11   C     C_R   0.546304 0.976201 0.532306 0.049554
C12   C     C_R   0.512236 0.478331 0.299878 0.864842
C13   C     C_R   0.453696 0.023799 0.467693 0.049555
C14   C     C_R   0.739029 0.500850 0.498019 0.873464
C15   C     C_R   0.260971 0.499150 0.501982 0.873463
C16   C     C_R   0.868286 0.481557 0.687940 -0.161989
C17   C     C_R   0.131717 0.518418 0.312057 -0.161980
C18   C     C_R   0.932738 0.468464 0.780459 -0.166917
C19   C     C_R   0.067265 0.531506 0.219537 -0.166917
C20   C     C_R   0.063569 0.464642 0.781826 0.068213
C21   C     C_R   0.936433 0.535341 0.218170 0.068209
C22   C     C_R   0.129810 0.473664 0.689943 -0.179504
C23   C     C_R   0.529331 0.466060 0.188195 -0.181514
C24   C     C_R   0.870189 0.526333 0.310057 -0.179505
C25   C     C_R   0.065306 0.486351 0.594896 0.049405
C26   C     C_R   0.934694 0.513646 0.405105 0.049404
C27   C     C_R   0.934033 0.490096 0.593930 0.074631
C28   C     C_R   0.065967 0.509895 0.406070 0.074630
C29   C     C_R   0.128704 0.496779 0.500890 -0.158309
C30   C     C_R   0.871296 0.503221 0.499112 -0.158307
C31   C     C_1   0.870420 0.548325 0.122060 0.168768
C32   C     C_1   0.129589 0.451699 0.877935 0.168790
C33   C     C_1   0.562520 0.670910 0.177235 0.214543
C34   C     C_R   0.470672 0.533939 0.811805 -0.181512
C35   C     C_1   0.437489 0.329091 0.822764 0.214544
C36   C     C_1   0.350373 0.193239 0.397323 0.261871
C37   C     C_1   0.649624 0.806761 0.602680 0.261870
C38   C     C_R   0.479652 0.649014 0.969569 -0.209085
C39   C     C_R   0.520350 0.350985 0.030432 -0.209102
C40   C     C_R   0.461950 0.640431 0.863974 0.169676
C41   C     C_R   0.538050 0.359568 0.136027 0.169672
C42   C     C_R   0.471275 0.437015 0.869290 -0.085068
H1    H     H_    0.302328 0.984894 0.359409 0.160381
H2    H     H_    0.526267 0.268434 0.992081 0.175696
H3    H     H_    0.673563 0.217308 0.625991 0.141812
H4    H     H_    0.326441 0.782692 0.374005 0.141813
H5    H     H_    0.697676 0.015106 0.640588 0.160380
H6    H     H_    0.766677 0.485385 0.691204 0.146137
H7    H     H_    0.233327 0.514585 0.308793 0.146134
H8    H     H_    0.880184 0.461421 0.850995 0.164052
H9    H     H_    0.119822 0.538545 0.149002 0.164063
H10   H     H_    0.231373 0.470584 0.693591 0.127542
H11   H     H_    0.768625 0.529424 0.306409 0.127545
H12   H     H_    0.473732 0.731565 0.007921 0.175693
I1    I     I_    0.590350 0.205937 0.203119 -0.331544
I2    I     I_    0.409635 0.794056 0.796884 -0.331540
N1    N     N_R   0.523130 0.207800 0.519340 -0.120658
N2    N     N_R   0.476870 0.792200 0.480660 -0.120658
N3    N     N_1   0.817932 0.558853 0.044568 -0.207889
N4    N     N_1   0.182082 0.441212 0.955422 -0.207915
N5    N     N_1   0.589805 0.756637 0.213838 -0.175973
N6    N     N_1   0.410210 0.243363 0.786162 -0.175978
N7    N     N_1   0.275366 0.233779 0.344444 -0.183462
N8    N     N_1   0.724629 0.766221 0.655561 -0.183459
O1    O     O_R   0.506170 0.421700 0.658830 -0.632556
O2    O     O_R   0.493830 0.578300 0.341170 -0.632555
O3    O     O_R   0.491330 0.609310 0.646410 -0.585398
O4    O     O_R   0.508670 0.390690 0.353590 -0.585399
O5    O     O_R   0.690650 0.406190 0.506220 -0.618048
O6    O     O_R   0.309350 0.593810 0.493780 -0.618044
O7    O     O_R   0.675800 0.593810 0.493800 -0.619352
O8    O     O_R   0.324200 0.406190 0.506200 -0.619351
Zn1   Zn    Zn3+2 0.509910 0.374730 0.508290 0.976730
Zn2   Zn    Zn3+2 0.490090 0.625270 0.491710 0.976731

loop_
_geom_bond_atom_site_label_1
_geom_bond_atom_site_label_2
_ccdc_geom_bond_type
C3    C42   A    
C14   O7    A    
C34   C42   A    
C16   H6    S    
C39   C41   A    
C15   O8    A    
C21   C31   S    
C12   C23   S    
C18   H8    S    
C34   C40   A    
C28   C29   A    
C19   C21   A    
C24   C26   A    
N1    Zn1   S    
O2    Zn2   S    
O1    Zn1   S    
C9    N2    A    
C31   N3    T    
C35   C42   S    
C8    H3    S    
C41   I1    S    
C1    O3    A    
C40   I2    S    
C22   C25   A    
O6    Zn2   S    
C1    O1    A    
O5    Zn1   S    
C36   N7    T    
C7    N2    A    
C5    C13   A    
C16   C27   A    
C5    H1    S    
C3    C39   A    
C27   C30   A    
C14   C30   S    
C1    C34   S    
C15   C29   S    
C25   C29   A    
C6    H5    S    
C7    H4    S    
C10   N1    A    
C17   H7    S    
C6    C11   A    
C5    C7    A    
C6    C8    A    
O4    Zn1   S    
C12   O2    A    
C2    C4    A    
C8    N1    A    
C12   O4    A    
C38   H12   S    
C9    C37   S    
O3    Zn2   S    
C9    C11   A    
C2    C33   S    
C16   C18   A    
C20   C22   A    
C26   C30   A    
C14   O5    A    
C32   N4    T    
C3    C4    A    
C37   N8    T    
N2    Zn2   S    
C22   H10   S    
C20   C32   S    
C15   O6    A    
C17   C28   A    
C4    C38   A    
O8    Zn1   S    
C10   C13   A    
O7    Zn2   S    
C39   H2    S    
C25   C27   A    
C26   C28   A    
C23   C41   A    
C24   H11   S    
C38   C40   A    
C11   C13   A    
C17   C19   A    
C35   N6    T    
C18   C20   A    
C19   H9    S    
C33   N5    T    
C21   C24   A    
C2    C23   A    
C10   C36   S    
