data_mof_unit_8479.cif
_audit_creation_date              2012-12-11T17:45:31-0500
_audit_creation_method            fapswitch 2.2
_symmetry_space_group_name_H-M    P1
_symmetry_Int_Tables_number       1
_space_group_crystal_system       triclinic
_cell_length_a                    14.976404
_cell_length_b                    14.933064
_cell_length_c                    15.052296
_cell_angle_alpha                 110.285963
_cell_angle_beta                  108.910767
_cell_angle_gamma                 108.774644
_cell_volume                      2605.04779891

loop_
_atom_site_label
_atom_site_type_symbol
_atom_type_description
_atom_site_fract_x
_atom_site_fract_y
_atom_site_fract_z
_atom_type_partial_charge
C1    C     C_R   0.915493 0.198550 0.001203 -0.152728
C2    C     C_R   0.300798 0.863094 0.300867 0.057497
C3    C     C_R   0.324154 0.499454 0.052804 -0.002086
C4    C     C_R   0.041478 0.496192 0.321416 0.041103
C5    C     C_R   0.701454 0.408657 0.005457 -0.138869
C6    C     C_R   0.088928 0.589645 0.787988 -0.142653
C7    C     C_R   0.781280 0.255598 0.688286 -0.106932
C8    C     C_R   0.928562 0.743552 0.021934 -0.146186
C9    C     C_R   0.022229 0.745061 0.932702 -0.117058
C10   C     C_R   0.686032 0.244421 0.776504 -0.150277
C11   C     C_R   0.789510 0.590583 0.095554 -0.150968
C12   C     C_R   0.297251 0.802010 0.206597 -0.153315
C13   C     C_R   0.006263 0.407730 0.702598 -0.158027
C14   C     C_R   0.698670 0.499115 0.067149 -0.031946
C15   C     C_R   0.062494 0.497315 0.697689 0.062166
C16   C     C_R   0.678610 0.217906 0.675444 0.042231
C17   C     C_R   0.941922 0.767876 0.944056 0.055015
C18   C     C_R   0.698684 0.267143 0.181036 -0.115899
C19   C     C_R   0.797753 0.345421 0.275350 -0.120347
C20   C     C_R   0.874104 0.314890 0.316791 0.114692
C21   C     C_R   0.847636 0.204282 0.265697 -0.191574
C22   C     C_R   0.748257 0.126641 0.171207 -0.137784
C23   C     C_R   0.222744 0.407950 0.976455 -0.139696
C24   C     C_R   0.674296 0.158193 0.128496 -0.101411
C25   C     C_R   0.998226 0.398440 0.507319 -0.236549
C26   C     C_R   0.081008 0.489907 0.607422 0.062603
C27   C     C_R   0.163217 0.576245 0.613557 0.028290
C28   C     C_R   0.152522 0.571805 0.516344 -0.246356
C29   C     C_R   0.060307 0.487300 0.417499 0.072815
C30   C     C_R   0.982206 0.398937 0.413016 0.015587
C31   C     C_R   0.280325 0.780238 0.735099 -0.162781
C32   C     C_R   0.354238 0.872191 0.838479 -0.104883
C33   C     C_R   0.400482 0.859281 0.926707 -0.087047
C34   C     C_R   0.058576 0.590224 0.314308 -0.137551
C35   C     C_R   0.376389 0.754804 0.910810 -0.117182
C36   C     C_R   0.308197 0.663081 0.806605 -0.168828
C37   C     C_R   0.254540 0.674259 0.718562 0.120273
C38   C     C_R   0.125314 0.043136 0.312380 -0.112676
C39   C     C_R   0.221515 0.038969 0.334614 -0.130470
C40   C     C_R   0.287039 0.055920 0.436635 0.105184
C41   C     C_R   0.255046 0.078395 0.516346 -0.161952
C42   C     C_R   0.158485 0.082277 0.493613 -0.100284
C43   C     C_R   0.093601 0.064503 0.391661 -0.102485
C44   C     C_R   0.485392 0.136810 0.553601 -0.241537
C45   C     C_R   0.312850 0.591325 0.067423 -0.132729
C46   C     C_R   0.582934 0.135610 0.572998 0.069175
C47   C     C_R   0.586701 0.050963 0.496879 0.019236
C48   C     C_R   0.492474 0.968106 0.405021 -0.240295
C49   C     C_R   0.394255 0.965146 0.388058 0.062604
C50   C     C_R   0.389281 0.051512 0.459786 0.020504
C51   C     C_R   0.730613 0.048741 0.447909 -0.191448
C52   C     C_R   0.822731 0.037473 0.463862 -0.119479
C53   C     C_R   0.867372 0.013548 0.543783 -0.098602
C54   C     C_R   0.819667 0.000486 0.607671 -0.124423
C55   C     C_R   0.727957 0.012271 0.592440 -0.118877
C56   C     C_R   0.977609 0.407355 0.218361 -0.107384
C57   C     C_R   0.683735 0.037883 0.513360 0.112775
C58   C     C_3   0.534995 0.401230 0.080729 -0.379254
C59   C     C_3   0.426754 0.396636 0.067159 -0.383456
C60   C     C_3   0.629832 0.604446 0.167262 -0.435178
C61   C     C_3   0.528893 0.488000 0.960824 -0.130669
C62   C     C_3   0.600215 0.497104 0.069062 0.334725
C63   C     C_3   0.425386 0.498945 0.064326 0.362994
C64   C     C_3   0.526937 0.601487 0.169179 -0.397210
C65   C     C_3   0.430641 0.497282 0.962642 -0.410642
C66   C     C_R   0.183345 0.050655 0.776925 -0.093584
C67   C     C_R   0.209727 0.802365 0.301588 -0.125957
C68   C     C_R   0.083687 0.013793 0.774381 -0.213904
C69   C     C_R   0.079260 0.030444 0.870151 0.098929
C70   C     C_R   0.175744 0.079913 0.967584 -0.157037
C71   C     C_R   0.275446 0.111629 0.969464 0.061607
C72   C     C_R   0.278916 0.098527 0.873753 -0.125546
C73   C     C_R   0.946646 0.865861 0.843243 -0.226074
C74   C     C_R   0.898364 0.826332 0.897024 0.046347
C75   C     C_R   0.837147 0.871114 0.929761 0.024373
C76   C     C_R   0.844386 0.964960 0.927233 -0.241906
C77   C     C_R   0.923929 0.024110 0.910006 0.052089
C78   C     C_R   0.006462 0.200287 0.910039 -0.139550
C79   C     C_R   0.975611 0.972387 0.865391 0.017000
C80   C     C_R   0.659500 0.745687 0.899203 0.041999
C81   C     C_R   0.588438 0.723931 0.939551 -0.117767
C82   C     C_R   0.624849 0.781362 0.051053 -0.133787
C83   C     C_R   0.732594 0.861678 0.123041 -0.152906
C84   C     C_R   0.803175 0.887848 0.083194 -0.204322
C85   C     C_R   0.767770 0.829046 0.971496 0.078372
C86   C     C_R   0.953282 0.138707 0.944706 0.064402
H1    H     H_    0.857614 0.169908 0.026385 0.103762
H2    H     H_    0.138452 0.674014 0.813835 0.120847
H3    H     H_    0.804282 0.249833 0.626462 0.113760
H4    H     H_    0.873393 0.749213 0.051494 0.124247
H5    H     H_    0.056341 0.755813 0.882087 0.096343
H6    H     H_    0.620620 0.224333 0.794807 0.113783
H7    H     H_    0.817498 0.675145 0.150816 0.102889
H8    H     H_    0.986157 0.323993 0.653723 0.104435
H9    H     H_    0.598223 0.098441 0.054464 0.097026
H10   H     H_    0.641133 0.290776 0.147728 0.090954
H11   H     H_    0.816278 0.430059 0.314396 0.108322
H12   H     H_    0.349451 0.829610 0.175183 0.095050
H13   H     H_    0.905070 0.179061 0.297097 0.112699
H14   H     H_    0.728775 0.042296 0.129952 0.138694
H15   H     H_    0.934389 0.332551 0.501800 0.130133
H16   H     H_    0.212999 0.637132 0.517833 0.128098
H17   H     H_    0.240051 0.791825 0.669338 0.108306
H18   H     H_    0.372927 0.953221 0.850852 0.105785
H19   H     H_    0.453780 0.929874 0.007608 0.100506
H20   H     H_    0.408730 0.744454 0.979539 0.096867
H21   H     H_    0.290478 0.582728 0.796309 0.113651
H22   H     H_    0.019020 0.067688 0.374207 0.089859
H23   H     H_    0.202992 0.323180 0.940131 0.110661
H24   H     H_    0.075848 0.030318 0.233749 0.106771
H25   H     H_    0.245207 0.023131 0.272443 0.113245
H26   H     H_    0.304097 0.091671 0.595485 0.137074
H27   H     H_    0.133944 0.099086 0.555041 0.108701
H28   H     H_    0.484627 0.203988 0.611676 0.139494
H29   H     H_    0.495482 0.900196 0.350530 0.130557
H30   H     H_    0.696768 0.067559 0.385911 0.124311
H31   H     H_    0.859582 0.047475 0.414424 0.097729
H32   H     H_    0.938645 0.004864 0.555662 0.093878
H33   H     H_    0.853292 0.981227 0.669086 0.111958
H34   H     H_    0.104106 0.674156 0.380085 0.097079
H35   H     H_    0.691928 0.002419 0.642622 0.113338
H36   H     H_    0.582418 0.414808 0.162759 0.144843
H37   H     H_    0.518066 0.321061 0.020058 0.169107
H38   H     H_    0.360241 0.321290 0.990204 0.192708
H39   H     H_    0.414909 0.392324 0.135064 0.141900
H40   H     H_    0.685651 0.615384 0.244950 0.163900
H41   H     H_    0.526734 0.598573 0.241996 0.166149
H42   H     H_    0.578617 0.558110 0.956979 0.087838
H43   H     H_    0.354331 0.429215 0.886998 0.180818
H44   H     H_    0.375148 0.675937 0.114631 0.084888
H45   H     H_    0.435982 0.573481 0.963787 0.127711
H46   H     H_    0.672030 0.676771 0.161833 0.169993
H47   H     H_    0.529272 0.678987 0.177783 0.144384
H48   H     H_    0.355124 0.122883 0.873490 0.130668
H49   H     H_    0.186208 0.037968 0.702829 0.116682
H50   H     H_    0.010150 0.968642 0.697337 0.111825
H51   H     H_    0.172634 0.086914 0.040526 0.117120
H52   H     H_    0.983795 0.826451 0.805314 0.129277
H53   H     H_    0.795082 0.996608 0.950464 0.130621
H54   H     H_    0.953659 0.323111 0.194505 0.118343
H55   H     H_    0.505072 0.661016 0.883759 0.118011
H56   H     H_    0.570050 0.763825 0.082331 0.101052
H57   H     H_    0.760347 0.906427 0.209157 0.116599
H58   H     H_    0.884915 0.955107 0.138868 0.117976
H59   H     H_    0.183215 0.829738 0.359594 0.102214
H60   H     H_    0.027166 0.172316 0.847290 0.110333
H61   H     H_    0.647522 0.323833 0.975144 0.100638
N1    N     N_R   0.947080 0.293830 0.002870 -0.040237
N2    N     N_R   0.054040 0.556820 0.847890 -0.040861
N3    N     N_R   0.848290 0.293830 0.791110 -0.042333
N4    N     N_R   0.995680 0.706170 0.053910 -0.041535
N5    N     N_R   0.052920 0.706170 0.997130 -0.042049
N6    N     N_R   0.791050 0.293830 0.847890 -0.041114
N7    N     N_R   0.846330 0.556820 0.053910 -0.037005
N8    N     N_R   0.997640 0.443180 0.791110 -0.039660
N9    N     N_R   0.208950 0.706170 0.152110 -0.036054
N10   N     N_R   0.153670 0.443180 0.946090 -0.038187
N11   N     N_R   0.002360 0.556820 0.208890 -0.039824
N12   N     N_R   0.210070 0.556820 0.002870 -0.036569
N13   N     N_R   0.945960 0.443180 0.152110 -0.040651
N14   N     N_R   0.151710 0.706170 0.208890 -0.039821
N15   N     N_R   0.004320 0.293830 0.946090 -0.038660
N16   N     N_R   0.789930 0.443180 0.997130 -0.036326
Ni1   Ni    Ni4+2 0.869690 0.369690 0.000000 0.215931
Ni2   Ni    Ni4+2 0.130310 0.630310 0.000000 0.212475
Ni3   Ni    Ni4+2 0.000970 0.369690 0.869780 0.215850
Ni4   Ni    Ni4+2 0.999030 0.630310 0.130220 0.214158
C87   C     C_2   0.494871 0.386709 0.858175 0.467357
H62   H     H_    0.534254 0.394330 0.809981 0.011569
O1    O     O_2   0.425564 0.296296 0.829618 -0.627355
N17   N     N_3   0.370966 0.150253 0.067145 -0.217863
H63   H     H_    0.438138 0.168716 0.055272 0.086289
H64   H     H_    0.385035 0.223057 0.127157 0.102145
N18   N     N_3   0.619176 0.685474 0.784519 -0.221802
H65   H     H_    0.629996 0.740646 0.756032 0.116906
H66   H     H_    0.665376 0.647897 0.771575 0.104553

loop_
_geom_bond_atom_site_label_1
_geom_bond_atom_site_label_2
_ccdc_geom_bond_type
C58   C62   S    
C66   C68   A    
N17   H63   S    
C55   H35   S    
C9    N5    A    
C1    H1    S    
C5    H61   S    
C18   H10   S    
C41   C42   A    
C3    C23   A    
C35   C36   A    
C45   N12   A    
C82   H56   S    
C2    C12   A    
C60   H46   S    
C63   C65   S    
N5    Ni2   S    
C19   H11   S    
C20   C30   S    
C53   C54   A    
N17   H64   S    
C26   C27   A    
C80   C85   A    
C18   C24   A    
N13   Ni1   S    
C28   C29   A    
C38   C39   A    
C56   H54   S    
C11   C14   A    
C40   C50   S    
C87   O1    D    
C73   H52   S    
C84   H58   S    
N8    Ni3   S    
C14   C62   S    
C25   C30   A    
C6    H2    S    
C60   C62   S    
C18   C19   A    
C73   C74   A    
C60   H40   S    
N18   H65   S    
C13   N8    A    
C11   N7    A    
C6    C15   A    
N15   Ni3   S    
C6    N2    A    
C75   C85   S    
C66   C72   A    
C83   C84   A    
C68   C69   A    
C41   H26   S    
C67   H59   S    
N4    N5    A    
C32   H18   S    
C70   C71   A    
C51   C57   A    
C38   H24   S    
C12   H12   S    
C4    C29   S    
C52   H31   S    
C78   C86   A    
C39   H25   S    
C10   H6    S    
C45   H44   S    
N10   N12   A    
C21   C22   A    
C4    C56   A    
C36   H21   S    
N11   N13   A    
C9    H5    S    
C61   C62   S    
C12   N9    A    
C10   N6    A    
C65   H45   S    
C44   C46   A    
N11   Ni4   S    
C81   C82   A    
C77   C79   A    
C34   H34   S    
C23   H23   S    
C4    C34   A    
C58   H36   S    
C22   H14   S    
C74   C75   A    
N6    Ni1   S    
C51   C52   A    
N1    Ni1   S    
N7    N16   A    
C68   H50   S    
C8    N4    A    
N2    Ni2   S    
C76   C77   A    
C28   H16   S    
C2    C67   A    
C24   H9    S    
C16   C46   S    
C39   C40   A    
C11   H7    S    
C21   H13   S    
C53   H32   S    
C15   C26   S    
C58   C59   S    
C3    C45   A    
N12   Ni2   S    
C31   H17   S    
C75   C76   A    
C29   C30   A    
C2    C49   S    
C61   C65   S    
C47   C57   S    
C7    N3    A    
C67   N14   A    
C42   H27   S    
C72   H48   S    
C47   C48   A    
C66   H49   S    
C48   C49   A    
C64   H41   S    
C58   H37   S    
C33   H19   S    
C46   C47   A    
C84   C85   A    
N3    N6    A    
C5    C14   A    
N14   Ni4   S    
C48   H29   S    
C34   N11   A    
C9    C17   A    
C87   H62   S    
C77   C86   S    
C78   N15   A    
C55   C57   A    
C17   C74   S    
C59   H38   S    
C22   C24   A    
N7    Ni4   S    
C69   C79   S    
C8    H4    S    
C42   C43   A    
C5    N16   A    
C7    H3    S    
C52   C53   A    
C64   H47   S    
C76   H53   S    
C44   C50   A    
C1    C86   A    
C54   C55   A    
C36   C37   A    
C31   C32   A    
C7    C16   A    
C51   H30   S    
C80   C81   A    
C73   C79   A    
N10   Ni3   S    
N9    N14   A    
C65   H43   S    
C3    C63   S    
C59   H39   S    
C59   C63   S    
C8    C17   A    
C13   H8    S    
C60   C64   S    
C61   C87   S    
N1    N15   A    
C32   C33   A    
C19   C20   A    
C13   C15   A    
C25   C26   A    
C80   N18   S    
C38   C43   A    
C56   N13   A    
C35   H20   S    
C10   C16   A    
C83   H57   S    
C25   H15   S    
N9    Ni2   S    
C27   C37   S    
N4    Ni4   S    
C23   N10   A    
C81   H55   S    
C33   C35   A    
C61   H42   S    
C71   N17   S    
C43   H22   S    
N2    N8    A    
C69   C70   A    
N18   H66   S    
N16   Ni1   S    
C78   H60   S    
C44   H28   S    
C63   C64   S    
C31   C37   A    
C71   C72   A    
C20   C21   A    
C70   H51   S    
C49   C50   A    
C27   C28   A    
C1    N1    A    
C40   C41   A    
C82   C83   A    
C54   H33   S    
N3    Ni3   S    
