data_mof_unit_67046.cif
_audit_creation_date              2013-03-05T15:58:15-0500
_audit_creation_method            fapswitch 2.2
_symmetry_space_group_name_H-M    P1
_symmetry_Int_Tables_number       1
_space_group_crystal_system       triclinic
_cell_length_a                    8.354738
_cell_length_b                    12.923245
_cell_length_c                    14.348695
_cell_angle_alpha                 93.644008
_cell_angle_beta                  91.493046
_cell_angle_gamma                 98.582241
_cell_volume                      1527.79703537

loop_
_atom_site_label
_atom_site_type_symbol
_atom_site_description
_atom_site_fract_x
_atom_site_fract_y
_atom_site_fract_z
_atom_type_partial_charge
P1    P     P_3+3 0.054400 0.427280 0.286870 0.500200
O1    O     O_2   0.887370 0.460630 0.272300 -0.351593
O2    O     O_3   0.129410 0.451380 0.388510 -0.404301
O3    O     O_3   0.670210 0.653170 0.329170 -0.376519
O4    O     O_2   0.772349 0.562857 0.169114 -0.357670
O5    O     O_3   0.015825 0.293121 0.259971 -0.574108
O6    O     O_3   0.704238 0.741486 0.141317 -0.499141
H1    H     H_    0.795325 0.859639 0.234303 0.126209
C1    C     C_3   0.655512 0.916365 0.126673 -1.011106
H2    H     H_    0.651887 0.991679 0.167208 0.225710
H3    H     H_    0.751169 0.929490 0.074994 0.268450
P2    P     P_3+3 0.668300 0.742890 0.573060 0.450450
P3    P     P_3+3 0.138302 0.842251 0.385730 0.511410
O7    O     O_2   0.845380 0.761330 0.544970 -0.375049
O8    O     O_3   0.088930 0.704860 0.376040 -0.292764
O9    O     O_2   0.026214 0.880469 0.459700 -0.389615
O10   O     O_3   0.686934 0.763407 0.695044 -0.571531
O11   O     O_3   0.065429 0.893371 0.284711 -0.597421
C2    C     C_3   0.164488 0.893174 0.206267 1.223435
C3    C     C_3   0.071687 0.930273 0.123856 -0.971272
H4    H     H_    0.973905 0.867011 0.097390 0.257805
H5    H     H_    0.018711 0.001404 0.144838 0.261722
C4    C     C_3   0.217326 0.757499 0.655006 0.416998
H6    H     H_    0.322700 0.728031 0.622678 0.079887
H7    H     H_    0.112138 0.743074 0.604810 0.142343
C5    C     C_3   0.258276 0.875122 0.678312 -0.939702
H8    H     H_    0.384832 0.893241 0.709304 0.244462
H9    H     H_    0.250907 0.917738 0.613479 0.250617
H10   H     H_    0.170468 0.902513 0.729189 0.281896
Ba1   Ba    Ba6+2 0.855630 0.555280 0.454520 1.595430
C6    C     C_3   0.959167 0.238320 0.335529 0.305374
H11   H     H_    0.842060 0.261148 0.356609 0.122214
H12   H     H_    0.048121 0.252216 0.395672 0.123798
C7    C     C_3   0.938312 0.123381 0.300212 -0.359926
H13   H     H_    0.872181 0.112794 0.231264 0.232238
H14   H     H_    0.059472 0.099948 0.292103 0.223590
C8    C     C_3   0.718265 0.672097 0.734853 0.426400
H15   H     H_    0.830805 0.648463 0.707247 0.086874
H16   H     H_    0.615427 0.607433 0.720561 0.129723
C9    C     C_3   0.739730 0.695071 0.840276 -0.969020
H17   H     H_    0.846318 0.756514 0.856876 0.266748
H18   H     H_    0.758503 0.623417 0.874917 0.224773
H19   H     H_    0.629861 0.722829 0.868499 0.271298
P4    P     P_3+3 0.135310 0.572810 0.713130 0.452377
O12   O     O_2   0.302330 0.539400 0.727760 -0.361840
O13   O     O_3   0.060300 0.548700 0.611500 -0.421793
O14   O     O_3   0.519500 0.346920 0.670840 -0.376102
O15   O     O_3   0.180232 0.708588 0.737715 -0.566172
P5    P     P_3+3 0.056823 0.159190 0.632187 0.462743
O16   O     O_3   0.614310 0.373510 0.452640 -0.372932
O17   O     O_3   0.100780 0.295230 0.623970 -0.366492
O18   O     O_2   0.166975 0.111209 0.561951 -0.383320
O19   O     O_3   0.129302 0.130282 0.741593 -0.505537
Ba2   Ba    Ba6+2 0.334200 0.444810 0.545490 1.564901
P6    P     P_3+3 0.649324 0.631305 0.205137 0.542641
C10   C     C_3   0.683352 0.832973 0.193449 0.483862
H20   H     H_    0.583634 0.821884 0.242297 0.104605
H21   H     H_    0.541479 0.890844 0.085480 0.321418
O20   O     O_3   0.575400 0.626570 0.547370 -0.410914
C11   C     C_3   0.436175 0.245539 0.265295 0.237423
H22   H     H_    0.308739 0.215396 0.278353 0.095397
H23   H     H_    0.455709 0.332169 0.278049 0.082106
C12   C     C_3   0.477423 0.215072 0.165209 0.383501
H24   H     H_    0.508517 0.135054 0.162328 0.128252
P7    P     P_3+3 0.529122 0.239138 0.438726 0.423451
O21   O     O_2   0.344320 0.238700 0.455090 -0.388589
O22   O     O_3   0.539322 0.198339 0.321847 -0.636907
H25   H     H_    0.150406 0.948233 0.063806 0.269141
C13   C     C_3   0.055998 0.184870 0.813072 0.498791
H26   H     H_    0.151899 0.238110 0.854788 0.181188
H27   H     H_    0.967810 0.234506 0.788331 0.004823
C14   C     C_3   0.970883 0.106381 0.876926 -0.940758
H28   H     H_    0.910879 0.148071 0.932931 0.242957
H29   H     H_    0.879073 0.049654 0.835719 0.234852
H30   H     H_    0.059264 0.062135 0.909157 0.304057
P8    P     P_3+3 0.540751 0.352671 0.791515 0.444443
C15   C     C_3   0.552057 0.154603 0.781034 0.470297
H31   H     H_    0.683229 0.183408 0.774936 0.005889
O23   O     O_2   0.419472 0.421343 0.831519 -0.395072
O24   O     O_3   0.471874 0.228429 0.829361 -0.487289
H32   H     H_    0.494509 0.134605 0.710197 0.116690
H33   H     H_    0.594033 0.074244 0.905392 0.271123
C16   C     C_3   0.536750 0.055876 0.834359 -0.903430
H34   H     H_    0.598509 0.996149 0.796803 0.206813
H35   H     H_    0.406993 0.023571 0.840935 0.293059
C17   C     C_R   0.985516 0.442943 0.057200 -0.065619
C18   C     C_R   0.184278 0.485600 0.193593 0.330607
C19   C     C_R   0.344685 0.520199 0.222057 -0.396355
C20   C     C_R   0.455433 0.563654 0.159941 0.296464
C21   C     C_R   0.411241 0.571159 0.066522 -0.146148
C22   C     C_R   0.252598 0.535265 0.033600 0.143294
C23   C     C_R   0.138235 0.487480 0.095864 0.094792
H36   H     H_    0.382744 0.517992 0.294560 0.150495
C24   C     C_R   0.057235 0.500102 0.900040 -0.024253
C25   C     C_R   0.945050 0.448600 0.961291 0.078433
C26   C     C_R   0.011445 0.501401 0.802432 0.260456
C27   C     C_R   0.858530 0.450517 0.770427 -0.501649
C28   C     C_R   0.747332 0.406154 0.832511 0.228268
C29   C     C_R   0.790798 0.404273 0.926187 -0.325431
C30   C     C_R   0.209744 0.545603 0.938857 -0.133850
H37   H     H_    0.499717 0.608030 0.020193 0.149872
H38   H     H_    0.701543 0.367711 0.970747 0.148233
H39   H     H_    0.821969 0.450507 0.697411 0.166390
H40   H     H_    0.898096 0.402387 0.101107 0.163009
H41   H     H_    0.298058 0.587813 0.895884 0.173300
C31   C     C_R   0.747358 0.178223 0.566270 -0.485895
C32   C     C_R   0.437599 0.817467 0.464897 -0.446572
C33   C     C_R   0.397589 0.996801 0.452147 -0.235546
C34   C     C_R   0.344403 0.889777 0.434217 0.209064
C35   C     C_R   0.577777 0.849537 0.520677 0.269837
C36   C     C_R   0.633324 0.959750 0.541776 -0.040285
C37   C     C_R   0.542564 0.034099 0.504205 -0.052966
C38   C     C_R   0.603729 0.143559 0.514663 0.288541
C39   C     C_R   0.840473 0.107379 0.601471 0.170613
C40   C     C_R   0.781129 0.998658 0.592586 -0.221918
H42   H     H_    0.322171 0.049668 0.425646 0.197973
H43   H     H_    0.857318 0.945635 0.618778 0.195788
H44   H     H_    0.796779 0.260769 0.569161 0.165660
H45   H     H_    0.393531 0.734620 0.451186 0.173898
C41   C     C_3   0.845706 0.054129 0.366530 -0.950592
H46   H     H_    0.905734 0.071018 0.435730 0.289921
H47   H     H_    0.718465 0.066559 0.363264 0.271304
H48   H     H_    0.846174 0.970970 0.348332 0.297854
S1    S     S_3+6 0.317321 0.213524 0.079259 -0.086462
O25   O     O_2   0.153532 0.191532 0.120749 -0.301564
O26   O     O_2   0.330854 0.128410 0.004757 -0.307082
O27   O     O_3   0.334319 0.328858 0.030568 -0.553690
H49   H     H_    0.427045 0.329220 0.989289 0.379893
C42   C     C_3   0.631353 0.282363 0.139381 -1.018490
H50   H     H_    0.611191 0.365291 0.133536 0.257437
H51   H     H_    0.728428 0.278743 0.192105 0.282741
H52   H     H_    0.671177 0.247165 0.072818 0.249570
S2    S     S_3+6 0.204155 0.765872 0.170006 -0.078910
O28   O     O_2   0.317057 0.731601 0.240397 -0.383630
O29   O     O_2   0.048260 0.691068 0.163849 -0.272156
O30   O     O_3   0.287969 0.769179 0.064624 -0.595133
H53   H     H_    0.195759 0.762387 0.018654 0.351631
C43   C     C_3   0.321424 0.968235 0.224231 -1.046166
H54   H     H_    0.297211 0.041022 0.260950 0.224505
H55   H     H_    0.410881 0.935379 0.266390 0.232951
H56   H     H_    0.373895 0.985464 0.156649 0.258599

loop_
_geom_bond_atom_site_label_1
_geom_bond_atom_site_label_2
_geom_bond_distance
_ccdc_geom_bond_type
P1    C18   1.869921 S    
C18   C19   1.390029 A    
C12   C42   1.509808 S    
O2    Ba1   2.966466 S    
C2    C3    1.537693 S    
P8    O23   1.541983 D    
O6    P6    1.751923 S    
O19   C13   1.412219 S    
H1    C10   1.089534 S    
P5    O17   1.753721 S    
P2    C35   1.857302 S    
C39   C40   1.414990 A    
C15   H31   1.111139 S    
C10   H20   1.101563 S    
Ba1   Ba2   4.625700 S    
C30   H41   1.080976 S    
O16   Ba2   2.958168 S    
P3    O11   1.761794 S    
C31   C39   1.396206 A    
C11   C12   1.526631 S    
O14   P8    1.731734 S    
C7    H13   1.111080 S    
C8    C9    1.523629 S    
O2    Ba2   2.806247 S    
C25   C29   1.397090 A    
C15   C16   1.519913 S    
P8    C28   1.828104 S    
C27   C28   1.390833 A    
C33   C34   1.393541 A    
C11   H23   1.109670 S    
P1    O1    1.533823 D    
C4    C5    1.521086 S    
C13   H27   1.112077 S    
C35   C36   1.440935 A    
P3    C34   1.842253 S    
P2    O20   1.601385 S    
C9    H19   1.111053 S    
C36   C37   1.432058 A    
C11   O22   1.398762 S    
P4    O13   1.566103 S    
P7    O22   1.733857 S    
P2    O10   1.752895 S    
S2    O30   1.683173 S    
C4    H6    1.110919 S    
C6    H12   1.111905 S    
C24   C30   1.406151 A    
C22   C30   1.416378 A    
C1    H2    1.106456 S    
C41   H48   1.090309 S    
C14   H28   1.110824 S    
C42   H52   1.111898 S    
C9    H18   1.107668 S    
P5    C39   1.862674 S    
Ba1   O16   2.856450 S    
C17   H40   1.075517 S    
C18   C23   1.447062 A    
C31   H44   1.082689 S    
C32   C34   1.387413 A    
C13   H26   1.109845 S    
O6    C10   1.394200 S    
O7    Ba1   2.901201 S    
C14   H30   1.108116 S    
O4    P6    1.531994 D    
C32   H45   1.082751 S    
C37   C38   1.427567 A    
C41   H47   1.098834 S    
C12   S1    1.792607 S    
Ba2   O20   2.855774 S    
C7    C41   1.498334 S    
C31   C38   1.392868 A    
P1    O5    1.732183 S    
C14   H29   1.108528 S    
C17   C25   1.417540 A    
C22   C23   1.425117 A    
O11   C2    1.414445 S    
C40   H43   1.080013 S    
C33   C37   1.410747 A    
C11   H22   1.102860 S    
P1    O2    1.566223 S    
C13   C14   1.520145 S    
C21   H37   1.084487 S    
C8    H15   1.106337 S    
P4    C26   1.870520 S    
C16   H34   1.110356 S    
C15   H32   1.111362 S    
P5    O18   1.544760 D    
Ba1   O20   2.958968 S    
O13   Ba2   2.967245 S    
C5    H8    1.122023 S    
C6    C7    1.521844 S    
C1    C10   1.525797 S    
O10   C8    1.399038 S    
C19   C20   1.384712 A    
C24   C26   1.444003 A    
C1    H3    1.106241 S    
C27   H39   1.083634 S    
C43   H55   1.099372 S    
O14   Ba2   2.821475 S    
C9    H17   1.110908 S    
C16   H35   1.110721 S    
P2    O7    1.531697 D    
O12   Ba2   2.851702 S    
C28   C29   1.385828 A    
P3    O8    1.757575 S    
O3    P6    1.784056 S    
S2    O28   1.495983 D    
C32   C35   1.395734 A    
P7    O21   1.566990 D    
O27   H49   0.987015 S    
P4    O12   1.534186 D    
O8    Ba1   2.840871 S    
S1    O26   1.503126 D    
C42   H50   1.117374 S    
C15   O24   1.403838 S    
C19   H36   1.083245 S    
C1    H21   1.103584 S    
C4    O15   1.400016 S    
C26   C27   1.398493 A    
P2    Ba1   3.459475 S    
P7    C38   1.861974 S    
C3    H25   1.112748 S    
C6    H11   1.107258 S    
P8    O24   1.747961 S    
C3    H5    1.106679 S    
O30   H53   0.991096 S    
C43   H56   1.096622 S    
Ba2   O21   2.901420 S    
C2    S2    1.774814 S    
C5    H9    1.115685 S    
Ba1   O13   2.805674 S    
O1    Ba1   2.851166 S    
O17   Ba2   2.841468 S    
C33   H42   1.075837 S    
C8    H16   1.110552 S    
C17   C23   1.403703 A    
C21   C22   1.396813 A    
C2    C43   1.515771 S    
P5    O19   1.750182 S    
P1    Ba1   3.435560 S    
O5    C6    1.387557 S    
C7    H14   1.105912 S    
C4    H7    1.107648 S    
C24   C25   1.423021 A    
O16   P7    1.772447 S    
C43   H54   1.096667 S    
C12   H24   1.101743 S    
P4    Ba2   3.436037 S    
C29   H38   1.070610 S    
C3    H4    1.106814 S    
C5    H10   1.126491 S    
P6    C20   1.805413 S    
H33   C16   1.110923 S    
P3    O9    1.539680 D    
S1    O27   1.674574 S    
S2    O29   1.498693 D    
C41   H46   1.094949 S    
C36   C40   1.424927 A    
C20   C21   1.394243 A    
O3    Ba1   2.822076 S    
P4    O15   1.749891 S    
S1    O25   1.501881 D    
C42   H51   1.102794 S    
