data_mof_unit_56697.cif
_audit_creation_date              2012-12-11T15:08:33-0500
_audit_creation_method            fapswitch 2.2
_symmetry_space_group_name_H-M    P1
_symmetry_Int_Tables_number       1
_space_group_crystal_system       triclinic
_cell_length_a                    26.041691
_cell_length_b                    27.554163
_cell_length_c                    8.390619
_cell_angle_alpha                 90.001315
_cell_angle_beta                  96.050268
_cell_angle_gamma                 89.845922
_cell_volume                      5987.18879751

loop_
_atom_site_label
_atom_site_type_symbol
_atom_type_description
_atom_site_fract_x
_atom_site_fract_y
_atom_site_fract_z
_atom_type_partial_charge
Ba1   Ba    Ba6+2 0.999910 0.465960 0.844870 1.654256
Ba2   Ba    Ba6+2 0.999910 0.534040 0.344870 1.633633
Ba3   Ba    Ba6+2 0.499910 0.965960 0.844870 1.635571
Ba4   Ba    Ba6+2 0.499910 0.034040 0.344870 1.630518
C1    C     C_3   0.023666 0.227628 0.576863 -0.242178
C2    C     C_3   0.036519 0.760894 0.063724 -0.273687
C3    C     C_3   0.529961 0.735513 0.542320 -0.264950
C4    C     C_3   0.536182 0.261143 0.064144 -0.273485
C5    C     C_R   0.884888 0.390610 0.151503 0.082616
C6    C     C_R   0.884948 0.609203 0.651309 0.064899
C7    C     C_R   0.384186 0.891078 0.151737 0.070664
C8    C     C_R   0.385107 0.109304 0.650962 0.066907
C9    C     C_R   0.845091 0.357586 0.100923 -0.127487
C10   C     C_R   0.845570 0.642625 0.599602 -0.146882
C11   C     C_R   0.344100 0.858225 0.102040 -0.136930
C12   C     C_R   0.345585 0.142608 0.599436 -0.146423
C13   C     C_R   0.833230 0.318180 0.200015 0.012682
C14   C     C_R   0.834370 0.682417 0.697511 0.015958
C15   C     C_R   0.331105 0.819909 0.204150 -0.003850
C16   C     C_R   0.334265 0.182348 0.697391 0.015838
C17   C     C_R   0.861271 0.314230 0.353471 -0.101393
C18   C     C_R   0.862238 0.686509 0.850786 -0.085453
C19   C     C_R   0.358308 0.817187 0.358869 -0.116229
C20   C     C_R   0.362208 0.186524 0.850554 -0.086018
C21   C     C_R   0.901557 0.346433 0.401989 -0.056269
C22   C     C_R   0.901657 0.653451 0.901273 -0.006767
C23   C     C_R   0.399296 0.848697 0.404647 -0.024520
C24   C     C_R   0.401749 0.153559 0.900933 -0.007222
C25   C     C_R   0.793555 0.232836 0.186516 0.408214
C26   C     C_R   0.797736 0.768482 0.674072 0.408471
C27   C     C_R   0.290238 0.734699 0.202207 0.406030
C28   C     C_R   0.297086 0.268224 0.674002 0.409078
C29   C     C_R   0.249896 0.702810 0.149953 -0.099602
C30   C     C_R   0.255883 0.300197 0.622162 -0.135114
C31   C     C_R   0.751982 0.201451 0.139214 -0.115026
C32   C     C_R   0.756759 0.800663 0.621950 -0.133531
C33   C     C_R   0.206562 0.718150 0.048219 0.007789
C34   C     C_R   0.208679 0.282870 0.546921 0.026849
C35   C     C_R   0.707046 0.217924 0.047551 0.012172
C36   C     C_R   0.709553 0.783572 0.546112 0.026845
C37   C     C_R   0.204610 0.767108 0.999888 -0.083584
C38   C     C_R   0.203598 0.232698 0.519940 -0.069192
C39   C     C_R   0.704165 0.267471 0.006667 -0.082426
C40   C     C_R   0.704177 0.733438 0.518983 -0.071879
C41   C     C_R   0.744841 0.299371 0.056070 -0.138238
C42   C     C_R   0.744674 0.701234 0.567193 -0.146935
C43   C     C_R   0.244814 0.799351 0.050276 -0.130670
C44   C     C_R   0.244334 0.200705 0.567823 -0.148042
C45   C     C_3   0.016772 0.265460 0.125835 0.344447
C46   C     C_3   0.980578 0.708498 0.567514 0.336109
C47   C     C_3   0.486230 0.789127 0.029871 0.374304
C48   C     C_3   0.480543 0.208654 0.567968 0.336747
C49   C     C_R   0.790216 0.282977 0.147303 0.008006
C50   C     C_R   0.791947 0.717986 0.644572 0.020348
C51   C     C_R   0.288522 0.784155 0.152055 -0.000120
C52   C     C_R   0.291576 0.217698 0.644731 0.020501
C53   C     C_R   0.135770 0.687771 0.840537 -0.133933
C54   C     C_R   0.135965 0.311501 0.344184 -0.141828
C55   C     C_R   0.635441 0.188253 0.841700 -0.135726
C56   C     C_R   0.637535 0.812778 0.342108 -0.139255
C57   C     C_R   0.097034 0.654255 0.788410 0.005860
C58   C     C_R   0.096243 0.344435 0.293518 -0.038459
C59   C     C_R   0.596720 0.154681 0.789449 0.005415
C60   C     C_R   0.598303 0.846121 0.290986 0.002426
C61   C     C_R   0.114040 0.609573 0.037480 0.062358
C62   C     C_R   0.114349 0.390081 0.539888 0.077139
C63   C     C_R   0.614037 0.109741 0.038053 0.063665
C64   C     C_R   0.615172 0.890656 0.539140 0.075922
C65   C     C_R   0.152485 0.643278 0.090796 -0.129077
C66   C     C_R   0.154364 0.357378 0.590795 -0.101655
C67   C     C_R   0.652809 0.143262 0.090841 -0.127491
C68   C     C_R   0.655217 0.858003 0.590216 -0.101929
C69   C     C_R   0.163896 0.683148 0.993642 -0.000528
C70   C     C_R   0.165253 0.317192 0.494607 0.018027
C71   C     C_R   0.663930 0.183310 0.994101 -0.000442
C72   C     C_R   0.666450 0.818125 0.493235 0.006226
C73   C     C_R   0.085359 0.616431 0.889161 -0.287007
C74   C     C_R   0.084417 0.382203 0.394368 -0.264766
C75   C     C_R   0.585129 0.116804 0.890169 -0.286053
C76   C     C_R   0.586047 0.883490 0.392168 -0.281627
C77   C     C_3   0.999506 0.216047 0.060968 -0.339012
C78   C     C_3   0.954470 0.757632 0.541375 -0.334915
C79   C     C_3   0.464773 0.739514 0.979728 -0.339582
C80   C     C_3   0.454446 0.257781 0.541274 -0.336067
C81   C     C_3   0.147163 0.469114 0.221437 0.316618
C82   C     C_3   0.147753 0.530336 0.722732 0.311681
C83   C     C_3   0.648107 0.969545 0.222322 0.315802
C84   C     C_3   0.647278 0.030611 0.722408 0.312834
C85   C     C_3   0.195749 0.437984 0.241977 -0.391900
C86   C     C_3   0.196584 0.560882 0.743365 -0.391813
C87   C     C_3   0.697017 0.938838 0.241221 -0.393979
C88   C     C_3   0.696047 0.061235 0.744075 -0.394584
C89   C     C_3   0.851842 0.531072 0.966979 0.312287
C90   C     C_3   0.851900 0.469098 0.467096 0.313631
C91   C     C_3   0.352135 0.031250 0.967165 0.313113
C92   C     C_3   0.350602 0.969831 0.464426 0.312417
C93   C     C_3   0.802923 0.561770 0.948455 -0.389399
C94   C     C_3   0.802938 0.438720 0.448561 -0.388959
C95   C     C_3   0.303205 0.061925 0.947667 -0.390863
C96   C     C_3   0.301025 0.940346 0.445132 -0.389029
C97   C     C_3   0.991225 0.272569 0.528522 0.325814
C98   C     C_3   0.015465 0.709702 0.080377 0.337633
C99   C     C_3   0.493950 0.778818 0.506196 0.303482
C100  C     C_3   0.515378 0.209871 0.081142 0.338111
C101  C     C_R   0.914237 0.383199 0.298611 -0.271570
C102  C     C_R   0.913990 0.616212 0.799067 -0.286426
C103  C     C_R   0.413031 0.884300 0.299485 -0.279780
C104  C     C_R   0.414188 0.116385 0.798611 -0.286751
H1    H     H_    0.016471 0.300906 0.483260 -0.049845
H2    H     H_    0.043567 0.687830 0.159866 0.069358
H3    H     H_    0.517198 0.810229 0.472020 -0.018422
H4    H     H_    0.543544 0.188155 0.160929 0.069630
H5    H     H_    0.224515 0.454364 0.333370 0.122285
H6    H     H_    0.225588 0.543651 0.832437 0.123520
H7    H     H_    0.726205 0.955858 0.329867 0.123163
H8    H     H_    0.724726 0.044277 0.834777 0.123016
H9    H     H_    0.186599 0.400979 0.281403 0.064470
H10   H     H_    0.187946 0.597714 0.785959 0.066102
H11   H     H_    0.688595 0.901973 0.283491 0.063130
H12   H     H_    0.687179 0.098194 0.784989 0.065911
H13   H     H_    0.212697 0.435254 0.126219 0.124709
H14   H     H_    0.213012 0.564166 0.626939 0.127665
H15   H     H_    0.713116 0.935675 0.124201 0.123697
H16   H     H_    0.713000 0.064181 0.628409 0.126665
H17   H     H_    0.866629 0.527462 0.848789 0.013297
H18   H     H_    0.866720 0.472600 0.348936 0.010432
H19   H     H_    0.367279 0.027740 0.849493 0.015165
H20   H     H_    0.365028 0.973902 0.345869 0.015743
H21   H     H_    0.880906 0.549302 0.053113 0.059824
H22   H     H_    0.880946 0.450718 0.553270 0.058006
H23   H     H_    0.380983 0.049405 0.054173 0.060574
H24   H     H_    0.379576 0.950572 0.548542 0.053878
H25   H     H_    0.773417 0.544382 0.861757 0.125940
H26   H     H_    0.773452 0.456302 0.361871 0.126193
H27   H     H_    0.273975 0.044662 0.859742 0.126174
H28   H     H_    0.271333 0.959392 0.362991 0.127337
H29   H     H_    0.811086 0.598404 0.903852 0.059811
H30   H     H_    0.811042 0.402051 0.403925 0.061715
H31   H     H_    0.311486 0.098654 0.904165 0.060107
H32   H     H_    0.307966 0.904228 0.394397 0.066438
H33   H     H_    0.787333 0.565493 0.066079 0.124916
H34   H     H_    0.787339 0.435094 0.566195 0.125689
H35   H     H_    0.287191 0.065404 0.064720 0.124127
H36   H     H_    0.286263 0.935427 0.563537 0.124326
H37   H     H_    0.961323 0.261815 0.430607 -0.029466
H38   H     H_    0.011674 0.693338 0.958611 -0.064186
H39   H     H_    0.465671 0.768817 0.403311 -0.013303
H40   H     H_    0.511734 0.193427 0.959511 -0.064274
H41   H     H_    0.035973 0.209956 0.468210 0.012256
H42   H     H_    0.071554 0.759276 0.999103 0.041402
H43   H     H_    0.547417 0.725229 0.431861 0.039107
H44   H     H_    0.571291 0.259622 0.999864 0.040426
H45   H     H_    0.985452 0.194247 0.158157 0.049709
H46   H     H_    0.912803 0.754098 0.555519 0.125866
H47   H     H_    0.474092 0.713063 0.078338 0.083149
H48   H     H_    0.412925 0.254435 0.557647 0.126332
H49   H     H_    0.173524 0.637820 0.207552 0.088451
H50   H     H_    0.177305 0.363709 0.704106 0.077520
H51   H     H_    0.674479 0.137562 0.206578 0.087876
H52   H     H_    0.677765 0.864015 0.704408 0.079441
H53   H     H_    0.253435 0.665415 0.188940 0.078772
H54   H     H_    0.261198 0.338943 0.635668 0.055810
H55   H     H_    0.755788 0.163576 0.172638 0.071753
H56   H     H_    0.762237 0.839386 0.635660 0.055780
H57   H     H_    0.823171 0.363155 0.985480 0.081263
H58   H     H_    0.823434 0.637205 0.484417 0.087727
H59   H     H_    0.322961 0.863143 0.985109 0.085685
H60   H     H_    0.323375 0.137093 0.484425 0.087556
H61   H     H_    0.171456 0.781003 0.924971 0.078834
H62   H     H_    0.167682 0.218012 0.463282 0.071832
H63   H     H_    0.669894 0.281979 0.938786 0.078766
H64   H     H_    0.668225 0.718956 0.461880 0.074173
H65   H     H_    0.740108 0.337367 0.025162 0.082661
H66   H     H_    0.738612 0.662810 0.546054 0.082161
H67   H     H_    0.240765 0.836800 0.012145 0.082984
H68   H     H_    0.238478 0.162248 0.546836 0.081257
H69   H     H_    0.144847 0.716279 0.759464 0.084359
H70   H     H_    0.145416 0.282915 0.263583 0.074501
H71   H     H_    0.644423 0.216975 0.761222 0.084343
H72   H     H_    0.646732 0.784010 0.261831 0.086720
H73   H     H_    0.850893 0.287451 0.438522 0.126680
H74   H     H_    0.852214 0.714228 0.933359 0.088303
H75   H     H_    0.347308 0.791584 0.446528 0.135354
H76   H     H_    0.352092 0.214176 0.933223 0.088118
H77   H     H_    0.055985 0.590349 0.847400 0.067073
H78   H     H_    0.054582 0.408047 0.353077 0.057811
H79   H     H_    0.555704 0.090763 0.848479 0.066609
H80   H     H_    0.556060 0.909216 0.351094 0.063036
H81   H     H_    0.000377 0.201196 0.638441 0.085638
H82   H     H_    0.007254 0.783800 0.993108 0.082014
H83   H     H_    0.507889 0.704049 0.581432 0.077922
H84   H     H_    0.506849 0.283860 0.993031 0.082026
H85   H     H_    0.944609 0.408512 0.338411 0.061849
H86   H     H_    0.944038 0.590515 0.839730 0.068659
H87   H     H_    0.444072 0.909073 0.337860 0.066553
H88   H     H_    0.444291 0.090738 0.839223 0.068881
H89   H     H_    0.982693 0.285776 0.160630 -0.021110
H90   H     H_    0.959899 0.682348 0.483154 0.097552
H91   H     H_    0.470218 0.816049 0.940148 0.119507
H92   H     H_    0.459608 0.182328 0.484725 0.096615
H93   H     H_    0.045197 0.259245 0.232045 -0.050713
H94   H     H_    0.977239 0.696961 0.692778 -0.050069
H95   H     H_    0.473967 0.798789 0.148629 -0.088456
H96   H     H_    0.477530 0.197439 0.693756 -0.050966
H97   H     H_    0.968195 0.220250 0.961341 0.126717
H98   H     H_    0.958415 0.770981 0.418459 0.145998
H99   H     H_    0.422302 0.741876 0.949697 0.067253
H100  H     H_    0.457771 0.270692 0.417485 0.146531
H101  H     H_    0.032500 0.196569 0.016094 0.118303
H102  H     H_    0.972148 0.784203 0.630218 0.118832
H103  H     H_    0.482091 0.726324 0.872436 0.154304
H104  H     H_    0.472602 0.284602 0.628413 0.119123
H105  H     H_    0.131392 0.472239 0.338344 0.006175
H106  H     H_    0.132331 0.526939 0.840058 0.012289
H107  H     H_    0.633020 0.972869 0.340211 0.009494
H108  H     H_    0.631455 0.027321 0.839126 0.012909
H109  H     H_    0.118562 0.451321 0.132814 0.066624
H110  H     H_    0.119077 0.548678 0.635247 0.061871
H111  H     H_    0.619247 0.951384 0.135360 0.061878
H112  H     H_    0.618818 0.048806 0.633912 0.063490
O1    O     O_2   0.898940 0.431940 0.867860 -0.457623
O2    O     O_2   0.898940 0.568060 0.367860 -0.461359
O3    O     O_2   0.398940 0.931940 0.867860 -0.460445
O4    O     O_2   0.398940 0.068060 0.367860 -0.462331
O5    O     O_3   0.160512 0.484492 0.667281 -0.638779
O6    O     O_3   0.160367 0.515030 0.167918 -0.635427
O7    O     O_3   0.660333 0.984729 0.668003 -0.638538
O8    O     O_3   0.660640 0.015402 0.166993 -0.635863
O9    O     O_3   0.039319 0.290477 0.006052 -0.543391
O10   O     O_3   0.032546 0.712205 0.538068 -0.582427
O11   O     O_3   0.540160 0.787400 0.035816 -0.591704
O12   O     O_3   0.532404 0.212187 0.537041 -0.581828
O13   O     O_3   0.058810 0.523750 0.066650 -0.496671
O14   O     O_3   0.058810 0.476250 0.566650 -0.497529
O15   O     O_3   0.558810 0.023750 0.066650 -0.494665
O16   O     O_3   0.558810 0.976250 0.566650 -0.495786
O17   O     O_3   0.941140 0.476130 0.123050 -0.496716
O18   O     O_3   0.941140 0.523870 0.623050 -0.494904
O19   O     O_3   0.441140 0.976130 0.123050 -0.494186
O20   O     O_3   0.441140 0.023870 0.623050 -0.492900
O21   O     O_3   0.982430 0.389880 0.635700 -0.463078
O22   O     O_3   0.982430 0.610120 0.135700 -0.482977
O23   O     O_3   0.482430 0.889880 0.635700 -0.468166
O24   O     O_3   0.482430 0.110120 0.135700 -0.482412
O25   O     O_2   0.897775 0.351028 0.733640 -0.472772
O26   O     O_2   0.898558 0.651369 0.234619 -0.493663
O27   O     O_2   0.399157 0.848920 0.738580 -0.497727
O28   O     O_2   0.398425 0.151261 0.234159 -0.493187
O29   O     O_3   0.839337 0.485379 0.023378 -0.637824
O30   O     O_3   0.839390 0.514849 0.523490 -0.635265
O31   O     O_3   0.339445 0.985519 0.022736 -0.635738
O32   O     O_3   0.339080 0.015302 0.524768 -0.635884
O33   O     O_3   0.967203 0.289406 0.660362 -0.560148
O34   O     O_3   0.967633 0.711550 0.144592 -0.611442
O35   O     O_3   0.467446 0.789391 0.639743 -0.602780
O36   O     O_3   0.467500 0.211566 0.145104 -0.611107
O37   O     O_2   0.100770 0.431440 0.821660 -0.452812
O38   O     O_2   0.100770 0.568560 0.321660 -0.459081
O39   O     O_2   0.600770 0.931440 0.821660 -0.455144
O40   O     O_2   0.600770 0.068560 0.321660 -0.459652
O41   O     O_3   0.017130 0.389790 0.053700 -0.468431
O42   O     O_3   0.017130 0.610210 0.553700 -0.494830
O43   O     O_3   0.517130 0.889790 0.053700 -0.500992
O44   O     O_3   0.517130 0.110210 0.553700 -0.494025
O45   O     O_2   0.107049 0.356400 0.974768 -0.460474
O46   O     O_2   0.101443 0.650631 0.457143 -0.478529
O47   O     O_2   0.605238 0.852901 0.965856 -0.457102
O48   O     O_2   0.601608 0.150597 0.458443 -0.478643
P1    P     P_3+3 0.893960 0.447890 0.040050 0.987872
P2    P     P_3+3 0.893960 0.552110 0.540050 0.982829
P3    P     P_3+3 0.393960 0.947890 0.040050 0.982884
P4    P     P_3+3 0.393960 0.052110 0.540050 0.983772
P5    P     P_3+3 0.105800 0.447360 0.649510 0.986273
P6    P     P_3+3 0.105800 0.552640 0.149510 0.982565
P7    P     P_3+3 0.605800 0.947360 0.649510 0.986592
P8    P     P_3+3 0.605800 0.052640 0.149510 0.983474
P9    P     P_3+3 0.065014 0.344817 0.085543 0.987809
P10   P     P_3+3 0.063011 0.656515 0.584440 0.956094
P11   P     P_3+3 0.565223 0.844801 0.086694 0.960490
P12   P     P_3+3 0.562919 0.156619 0.584934 0.955597
P13   P     P_3+3 0.936143 0.656146 0.104419 0.938974
P14   P     P_3+3 0.935934 0.344146 0.606183 0.986284
P15   P     P_3+3 0.436119 0.156143 0.104312 0.939512
P16   P     P_3+3 0.435393 0.844811 0.604391 0.943451
C105  C     C_1   0.069989 0.240444 0.683368 0.333069
N1    N     N_1   0.106616 0.250396 0.767127 -0.268907
C106  C     C_1   0.050472 0.783309 0.220856 0.330832
N2    N     N_1   0.061656 0.801141 0.344458 -0.271404
C107  C     C_1   0.571618 0.747171 0.667987 0.320430
N3    N     N_1   0.604579 0.756144 0.766964 -0.250825
C108  C     C_1   0.549878 0.283763 0.221105 0.330995
N4    N     N_1   0.560855 0.301763 0.344566 -0.271716
O49   O     O_3   0.835795 0.214509 0.281170 -0.657599
C109  C     C_3   0.866516 0.186727 0.186184 0.261680
H113  H     H_    0.890409 0.211441 0.119772 0.045617
H114  H     H_    0.843407 0.162920 0.098274 0.020360
C110  C     C_3   0.901727 0.154033 0.295613 -0.326718
H115  H     H_    0.878128 0.129348 0.363138 0.124915
H116  H     H_    0.926228 0.131745 0.223152 0.060585
H117  H     H_    0.926911 0.176260 0.382220 0.118012
O50   O     O_3   0.845583 0.785956 0.737395 -0.660542
C111  C     C_3   0.840746 0.817846 0.867034 0.247727
H118  H     H_    0.812153 0.804453 0.946812 0.025546
H119  H     H_    0.829385 0.854663 0.821933 0.050557
C112  C     C_3   0.892846 0.822089 0.966675 -0.334037
H120  H     H_    0.922287 0.835670 0.891123 0.121201
H121  H     H_    0.889905 0.847780 0.067288 0.069541
H122  H     H_    0.905261 0.786138 0.016622 0.142238
O51   O     O_3   0.328843 0.716947 0.312362 -0.655044
C113  C     C_3   0.370951 0.701829 0.232142 0.252252
H123  H     H_    0.393117 0.734085 0.200713 0.041791
H124  H     H_    0.358668 0.680430 0.121797 0.027078
C114  C     C_3   0.406137 0.669982 0.344448 -0.324663
H125  H     H_    0.385497 0.636364 0.372801 0.122107
H126  H     H_    0.441165 0.659933 0.287031 0.057571
H127  H     H_    0.417921 0.689764 0.457636 0.132299
O52   O     O_3   0.344871 0.285955 0.736812 -0.660466
C115  C     C_3   0.339982 0.317652 0.866915 0.247889
H128  H     H_    0.311638 0.303949 0.947025 0.025432
H129  H     H_    0.328252 0.354436 0.822346 0.051065
C116  C     C_3   0.392177 0.322161 0.965866 -0.333810
H130  H     H_    0.421378 0.336052 0.889978 0.121626
H131  H     H_    0.389189 0.347708 0.066847 0.070158
H132  H     H_    0.404955 0.286240 0.015272 0.141577

loop_
_geom_bond_atom_site_label_1
_geom_bond_atom_site_label_2
_ccdc_geom_bond_type
Ba4   P4    S    
C77   H101  S    
C83   C87   S    
C20   H76   S    
C110  H116  S    
C57   P10   S    
C108  N4    T    
C95   H31   S    
C46   H90   S    
C21   C101  A    
O50   C111  S    
O46   P10   D    
C94   H30   S    
C95   H35   S    
C91   C95   S    
C59   P12   S    
C84   O7    S    
C60   P11   S    
C1    H41   S    
Ba1   O1    S    
C48   C80   S    
C5    C9    A    
C22   P13   S    
C38   H62   S    
Ba3   O15   S    
C7    C11   A    
C8    C12   A    
Ba1   O13   S    
C66   C70   A    
C42   H66   S    
C74   H78   S    
Ba4   O40   S    
O15   P8    S    
C40   C42   A    
C111  H119  S    
C46   H94   S    
C1    C97   S    
C61   C73   A    
C63   C75   A    
C96   H36   S    
C8    C104  A    
C15   C19   A    
C37   H61   S    
C56   C72   A    
C31   H55   S    
C36   C72   S    
C28   C30   A    
C29   H53   S    
C40   H64   S    
O3    P3    D    
O27   P16   D    
C41   H65   S    
Ba2   P6    S    
Ba2   O13   S    
C64   C68   A    
C4    C100  S    
C47   C79   S    
C115  C116  S    
O5    P5    S    
O32   P4    S    
C53   C57   A    
C26   C32   A    
C25   C31   A    
C55   C59   A    
O11   P11   S    
C56   C60   A    
O12   P12   S    
C2    C106  S    
C1    H81   S    
C80   H48   S    
Ba2   O42   S    
C4    H84   S    
Ba3   O39   S    
O13   P6    S    
O9    P9    S    
Ba4   O19   S    
C86   H6    S    
C48   H96   S    
C116  H130  S    
C62   P5    S    
O38   P6    D    
C93   H25   S    
C16   C52   S    
C99   H39   S    
C102  H86   S    
C45   H89   S    
C26   C50   A    
C97   H37   S    
C90   H22   S    
O10   P10   S    
C4    H44   S    
O8    P8    S    
C61   C65   A    
C114  H126  S    
C79   H47   S    
C5    C101  A    
C77   H45   S    
O26   P13   D    
O18   P2    S    
C82   H110  S    
C53   C69   A    
C63   P8    S    
C115  H129  S    
C57   C73   A    
C112  H121  S    
C65   H49   S    
C48   H92   S    
C35   C71   S    
C10   H58   S    
Ba3   O20   S    
C2    C98   S    
C41   C49   A    
C87   H15   S    
C94   H34   S    
Ba4   O16   S    
C11   H59   S    
C90   O30   S    
C93   H29   S    
C37   C43   A    
C45   H93   S    
C47   O11   S    
C6    C10   A    
C25   O49   S    
C23   P16   S    
C100  H4    S    
C39   H63   S    
C82   H106  S    
C19   H75   S    
O49   C109  S    
O23   P16   S    
C39   C41   A    
C80   H100  S    
Ba4   O44   S    
C116  H132  S    
C107  N3    T    
C76   H80   S    
C54   H70   S    
C38   C44   A    
O39   P7    D    
Ba2   O22   S    
C47   H91   S    
C85   H9    S    
C28   O52   S    
C83   O8    S    
C6    P2    S    
C87   H11   S    
C6    C102  A    
Ba3   Ba4   S    
C89   C93   S    
C78   H98   S    
C54   C70   A    
C34   C70   S    
C5    P1    S    
Ba3   O3    S    
O36   P15   S    
C14   C18   A    
C7    P3    S    
C58   C74   A    
C20   C24   A    
C30   H54   S    
Ba2   O17   S    
Ba3   P7    S    
C62   C66   A    
Ba3   O43   S    
C9    C13   A    
C27   C51   A    
C88   H12   S    
C18   H74   S    
C53   H69   S    
C64   P7    S    
C92   C96   S    
Ba4   O15   S    
C46   O10   S    
C1    C105  S    
C33   C37   A    
C24   C104  A    
O40   P8    D    
C36   C40   A    
O41   P9    S    
C82   O5    S    
Ba4   O24   S    
C43   H67   S    
C96   H28   S    
C78   H102  S    
C4    C108  S    
C54   C58   A    
C99   O35   S    
C100  H40   S    
O21   P14   S    
C22   C102  A    
O1    P1    D    
C27   O51   S    
C11   C15   A    
O14   P5    S    
C86   H10   S    
C43   C51   A    
C88   H16   S    
C109  H113  S    
C90   C94   S    
C97   H1    S    
Ba2   O2    S    
C92   H20   S    
C99   H3    S    
C45   C77   S    
C17   C21   A    
Ba2   O14   S    
C65   C69   A    
C58   P9    S    
C104  H88   S    
C84   H108  S    
C91   H23   S    
C60   C76   A    
C3    H83   S    
C89   H21   S    
C47   H95   S    
Ba1   O37   S    
Ba2   P2    S    
O29   P1    S    
C109  C110  S    
C91   O31   S    
C81   C85   S    
C29   C33   A    
C84   H112  S    
C98   O34   S    
C31   C35   A    
C105  N1    T    
Ba3   O16   S    
C26   O50   S    
C9    H57   S    
C106  N2    T    
C85   H5    S    
C23   C103  A    
Ba1   O14   S    
C42   C50   A    
C95   H27   S    
C93   H33   S    
C3    H43   S    
C82   C86   S    
C98   H2    S    
C92   O32   S    
C13   C49   S    
O33   P14   S    
C46   C78   S    
C15   C51   S    
C113  H123  S    
O24   P15   S    
C8    P4    S    
C68   H52   S    
C80   H104  S    
C56   H72   S    
O48   P12   D    
O16   P7    S    
C55   H71   S    
C3    C107  S    
O45   P9    D    
C114  H125  S    
C85   H13   S    
O43   P11   S    
O47   P11   D    
C87   H7    S    
C63   C67   A    
C45   O9    S    
C89   H17   S    
C2    H42   S    
C91   H19   S    
Ba1   P1    S    
C112  H120  S    
C18   C22   A    
C32   H56   S    
C83   H107  S    
O17   P1    S    
O6    P6    S    
C66   H50   S    
C21   P14   S    
C28   C52   A    
O28   P15   D    
C113  C114  S    
C13   C17   A    
C64   C76   A    
C24   P15   S    
C109  H114  S    
C73   H77   S    
C110  H115  S    
C10   C14   A    
C97   O33   S    
C68   C72   A    
C103  H87   S    
Ba3   P3    S    
C59   C75   A    
O51   C113  S    
C17   H73   S    
C111  C112  S    
C75   H79   S    
C34   C38   A    
O4    P4    D    
O42   P10   S    
Ba1   Ba2   S    
C81   H109  S    
C96   H32   S    
C84   C88   S    
C116  H131  S    
O35   P16   S    
C79   H99   S    
C27   C29   A    
C83   H111  S    
O22   P13   S    
Ba1   P5    S    
C12   C16   A    
C92   H24   S    
C86   H14   S    
C89   O29   S    
C90   H18   S    
Ba4   P8    S    
C16   C20   A    
C32   C36   A    
O31   P3    S    
C48   O12   S    
C114  H127  S    
C35   C39   A    
Ba4   O4    S    
O2    P2    D    
C115  H128  S    
C81   H105  S    
C88   H8    S    
C112  H122  S    
C2    H82   S    
Ba3   O23   S    
Ba1   O21   S    
Ba1   O41   S    
C62   C74   A    
Ba2   O38   S    
C19   C23   A    
C7    C103  A    
C110  H117  S    
O30   P2    S    
C113  H124  S    
C55   C71   A    
O7    P7    S    
C77   H97   S    
C44   C52   A    
C33   C69   S    
C111  H118  S    
C101  H85   S    
C61   P6    S    
C30   C34   A    
Ba1   O18   S    
C67   H51   S    
C94   H26   S    
O37   P5    D    
C100  O36   S    
O19   P3    S    
O20   P4    S    
C98   H38   S    
C67   C71   A    
C25   C49   A    
C12   H60   S    
O44   P12   S    
O52   C115  S    
C14   C50   S    
C78   H46   S    
O34   P13   S    
O25   P14   D    
C3    C99   S    
C81   O6    S    
C44   H68   S    
C79   H103  S    
