data_mof_unit_44112.cif
_audit_creation_date              2012-12-11T16:24:07-0500
_audit_creation_method            fapswitch 2.2
_symmetry_space_group_name_H-M    P1
_symmetry_Int_Tables_number       1
_space_group_crystal_system       triclinic
_cell_length_a                    14.725994
_cell_length_b                    14.750568
_cell_length_c                    33.320533
_cell_angle_alpha                 96.021508
_cell_angle_beta                  96.182883
_cell_angle_gamma                 61.253187
_cell_volume                      6297.11715501

loop_
_atom_site_label
_atom_site_type_symbol
_atom_type_description
_atom_site_fract_x
_atom_site_fract_y
_atom_site_fract_z
_atom_type_partial_charge
C1    C     C_R   0.390793 0.700730 0.446088 0.542580
C2    C     C_R   0.331097 0.345518 0.308760 0.026414
C3    C     C_R   0.409111 0.260652 0.329292 0.001325
C4    C     C_R   0.428117 0.271639 0.371089 -0.127855
C5    C     C_R   0.393977 0.251835 0.165831 -0.103633
C6    C     C_R   0.384957 0.233883 0.124031 -0.123402
C7    C     C_R   0.209230 0.376776 0.121949 -0.122183
C8    C     C_R   0.218467 0.394439 0.163791 -0.106280
C9    C     C_R   0.309684 0.329972 0.185818 0.041074
C10   C     C_1   0.314487 0.338343 0.229076 -0.003057
C11   C     C_1   0.320255 0.342286 0.265378 -0.002452
C12   C     C_R   0.405834 0.386437 0.433982 0.545032
C13   C     C_R   0.291107 0.293800 0.101869 0.019306
C14   C     C_R   0.754637 0.375061 0.409701 -0.002374
C15   C     C_R   0.783496 0.439670 0.392561 -0.107310
C16   C     C_R   0.810641 0.421003 0.352363 0.100516
C17   C     C_R   0.809153 0.335852 0.329169 0.062652
C18   C     C_R   0.790587 0.265693 0.347665 -0.143890
C19   C     C_R   0.763152 0.285289 0.387582 -0.138367
C20   C     C_R   0.825142 0.305780 0.203562 0.347859
C21   C     C_R   0.817130 0.324657 0.285156 0.347095
C22   C     C_R   0.820039 0.385787 0.140784 -0.149594
C23   C     C_R   0.700512 0.410260 0.447431 0.545172
C24   C     C_R   0.851770 0.378814 0.102096 -0.032259
C25   C     C_R   0.913853 0.193283 0.098561 -0.121389
C26   C     C_R   0.881186 0.200132 0.137253 0.100829
C27   C     C_R   0.839641 0.296671 0.159708 0.045631
C28   C     C_R   0.905051 0.280697 0.081560 -0.015225
C29   C     C_R   0.371070 0.758286 0.408956 -0.047511
C30   C     C_R   0.274153 0.795235 0.386148 -0.034544
C31   C     C_R   0.265795 0.820002 0.345773 0.050914
C32   C     C_R   0.353148 0.809699 0.328142 0.088727
C33   C     C_R   0.445189 0.787311 0.352160 0.050526
C34   C     C_R   0.393411 0.701419 0.561219 0.542023
C35   C     C_R   0.453425 0.764473 0.392742 -0.036796
C36   C     C_R   0.348988 0.824364 0.203231 0.338046
C37   C     C_R   0.349587 0.817527 0.284186 0.407044
C38   C     C_R   0.263087 0.826606 0.134445 -0.112612
C39   C     C_R   0.241502 0.859030 0.095143 -0.128299
C40   C     C_R   0.382500 0.901627 0.104273 -0.125098
C41   C     C_R   0.403478 0.870043 0.143634 -0.112727
C42   C     C_R   0.340882 0.836816 0.159616 0.038360
C43   C     C_R   0.297958 0.901336 0.080440 0.022161
C44   C     C_R   0.372106 0.369254 0.585239 0.022047
C45   C     C_R   0.407337 0.388820 0.549000 0.544728
C46   C     C_R   0.285467 0.448660 0.604053 -0.129428
C47   C     C_R   0.267357 0.440009 0.643320 -0.118391
C48   C     C_R   0.335740 0.351938 0.664308 0.034148
C49   C     C_R   0.416549 0.268740 0.644088 -0.120038
C50   C     C_R   0.434438 0.277209 0.604844 -0.127998
C51   C     C_R   0.322238 0.352046 0.788998 0.349544
C52   C     C_R   0.328824 0.350227 0.707910 0.344878
C53   C     C_R   0.219745 0.404480 0.849774 -0.113950
C54   C     C_R   0.206599 0.384893 0.888286 0.074715
C55   C     C_R   0.390247 0.257645 0.894312 -0.044467
C56   C     C_R   0.701214 0.413727 0.562701 0.541455
C57   C     C_R   0.401051 0.277733 0.855580 -0.133078
C58   C     C_R   0.314964 0.346873 0.832322 -0.000197
C59   C     C_R   0.290663 0.305744 0.910123 0.041444
C60   C     C_R   0.752701 0.381783 0.603117 0.020148
C61   C     C_R   0.778662 0.448611 0.629111 -0.126452
C62   C     C_R   0.804709 0.430572 0.670092 -0.107303
C63   C     C_R   0.805608 0.345475 0.685446 0.037745
C64   C     C_R   0.786382 0.275001 0.659432 -0.111768
C65   C     C_R   0.760351 0.292787 0.618429 -0.123302
C66   C     C_R   0.867687 0.225216 0.822803 -0.083243
C67   C     C_R   0.370012 0.366655 0.392561 0.004921
C68   C     C_R   0.898458 0.208332 0.863681 0.080606
C69   C     C_R   0.874510 0.384119 0.874185 -0.131928
C70   C     C_R   0.844489 0.400165 0.833059 0.104924
C71   C     C_R   0.845091 0.318505 0.807204 0.036806
C72   C     C_1   0.830012 0.327008 0.764190 0.010888
C73   C     C_1   0.819467 0.334479 0.728214 -0.008761
C74   C     C_R   0.907062 0.287118 0.889739 0.001583
C75   C     C_R   0.376075 0.754884 0.601866 0.020144
C76   C     C_R   0.279892 0.791482 0.618575 -0.124106
C77   C     C_R   0.269795 0.820430 0.659736 -0.106266
C78   C     C_R   0.287295 0.448160 0.372120 -0.129349
C79   C     C_R   0.355407 0.813486 0.684579 0.039721
C80   C     C_R   0.449621 0.783428 0.667853 -0.111812
C81   C     C_R   0.459916 0.754625 0.626629 -0.125401
C82   C     C_R   0.398536 0.875380 0.832022 -0.106302
C83   C     C_R   0.382205 0.902561 0.873299 0.092157
C84   C     C_R   0.224985 0.884935 0.862956 -0.160161
C85   C     C_R   0.242055 0.857768 0.821974 -0.005191
C86   C     C_R   0.327461 0.856389 0.806245 0.003221
C87   C     C_1   0.340313 0.840997 0.763470 -0.009693
C88   C     C_1   0.348238 0.829336 0.727533 -0.010390
C89   C     C_R   0.268394 0.437665 0.330461 -0.123674
C90   C     C_R   0.291523 0.912175 0.888704 0.027618
C91   C     C_R   0.962834 0.264341 0.045457 0.545029
C92   C     C_R   0.272695 0.259353 0.060064 0.539474
C93   C     C_R   0.259391 0.959359 0.043666 0.544010
C94   C     C_R   0.962275 0.267589 0.930605 0.542104
C95   C     C_R   0.271096 0.264576 0.945344 0.561403
C96   C     C_R   0.256601 0.964513 0.928954 0.553948
Cr1   Cr    Cr6+3 0.576280 0.580550 0.506370 1.049354
Cr2   Cr    Cr6+3 0.346780 0.572400 0.496520 1.038590
Cr3   Cr    Cr6+3 0.576960 0.347070 0.497150 1.022176
Cr4   Cr    Cr6+3 0.087320 0.083240 0.984860 1.012258
Cr5   Cr    Cr6+3 0.087720 0.316210 0.996740 1.058196
Cr6   Cr    Cr6+3 0.317350 0.090340 0.995890 1.054930
H1    H     H_    0.449358 0.169485 0.109474 0.134609
H2    H     H_    0.742116 0.233683 0.400170 0.143245
H3    H     H_    0.790244 0.199358 0.330425 0.144176
H4    H     H_    0.784270 0.461223 0.156890 0.149226
H5    H     H_    0.951336 0.117871 0.082593 0.135992
H6    H     H_    0.176551 0.856941 0.077243 0.132657
H7    H     H_    0.465027 0.201842 0.182757 0.130950
H8    H     H_    0.214257 0.800248 0.145888 0.141541
H9    H     H_    0.428049 0.932947 0.093615 0.136470
H10   H     H_    0.465249 0.876815 0.162193 0.144446
H11   H     H_    0.235625 0.520284 0.589554 0.133271
H12   H     H_    0.501125 0.214185 0.590928 0.133871
H13   H     H_    0.203585 0.504868 0.657986 0.140208
H14   H     H_    0.469232 0.198940 0.659229 0.135781
H15   H     H_    0.153047 0.460861 0.832676 0.145108
H16   H     H_    0.476461 0.236207 0.842996 0.144581
H17   H     H_    0.865928 0.163181 0.802724 0.144829
H18   H     H_    0.787308 0.208690 0.671110 0.116601
H19   H     H_    0.740578 0.239980 0.599269 0.130610
H20   H     H_    0.773223 0.517920 0.618328 0.131027
H21   H     H_    0.877408 0.446406 0.893637 0.134705
H22   H     H_    0.491716 0.207756 0.386438 0.136217
H23   H     H_    0.819909 0.485305 0.690080 0.126698
H24   H     H_    0.465375 0.871950 0.819675 0.114145
H25   H     H_    0.516273 0.777935 0.686935 0.114652
H26   H     H_    0.535147 0.726255 0.614746 0.130520
H27   H     H_    0.213948 0.792564 0.600327 0.133654
H28   H     H_    0.156375 0.889733 0.874251 0.139408
H29   H     H_    0.196484 0.843881 0.672491 0.127791
H30   H     H_    0.241218 0.522348 0.387804 0.146019
H31   H     H_    0.152978 0.455317 0.179120 0.124218
H32   H     H_    0.135881 0.424142 0.105775 0.141225
H33   H     H_    0.207875 0.503217 0.314902 0.126288
H34   H     H_    0.779536 0.507937 0.409691 0.148521
N1    N     N_R   0.779927 0.400578 0.223414 -0.237140
N2    N     N_R   0.246190 0.424982 0.727262 -0.224127
N3    N     N_R   0.408410 0.277073 0.729925 -0.232664
N4    N     N_R   0.405029 0.277741 0.769644 -0.228682
N5    N     N_R   0.775566 0.409831 0.263341 -0.169570
N6    N     N_R   0.860926 0.229709 0.265452 -0.230819
N7    N     N_R   0.865666 0.220586 0.225478 -0.168087
N8    N     N_R   0.300491 0.778484 0.218448 -0.227198
N9    N     N_R   0.301417 0.774521 0.258178 -0.190126
N10   N     N_R   0.398004 0.863429 0.268967 -0.166945
N11   N     N_R   0.397541 0.866939 0.229253 -0.215903
N12   N     N_R   0.242644 0.425435 0.767009 -0.221310
O1    O     O_R   0.679450 0.499830 0.463150 -0.500249
O2    O     O_R   0.356040 0.477400 0.534170 -0.501901
O3    O     O_R   0.495910 0.323070 0.537100 -0.518569
O4    O     O_R   0.663920 0.359620 0.542290 -0.502107
O5    O     O_3   0.500010 0.500010 0.500010 -0.246738
O6    O     O_R   0.170070 0.978950 0.027680 -0.518270
O7    O     O_R   0.001760 0.175230 0.026640 -0.504865
O8    O     O_R   0.984760 0.333570 0.037150 -0.494255
O9    O     O_R   0.183410 0.309240 0.041890 -0.502978
O10   O     O_R   0.340240 0.172500 0.045430 -0.517275
O11   O     O_R   0.309670 0.000990 0.032050 -0.504050
O12   O     O_R   0.480650 0.664000 0.464630 -0.482300
O13   O     O_R   0.168330 0.982130 0.939200 -0.536714
O14   O     O_R   0.000140 0.178170 0.944610 -0.508212
O15   O     O_R   0.983010 0.336750 0.948660 -0.501673
O16   O     O_R   0.181800 0.312190 0.959860 -0.457979
O17   O     O_R   0.338500 0.175680 0.956950 -0.491173
O18   O     O_R   0.308050 0.003930 0.950020 -0.458313
O19   O     O_3   0.164130 0.163270 0.992500 -0.251732
O20   O     O_R   0.323930 0.675950 0.455370 -0.495403
O21   O     O_R   0.354700 0.475360 0.451930 -0.499581
O22   O     O_R   0.494470 0.320860 0.448390 -0.515888
O23   O     O_R   0.662580 0.357570 0.460050 -0.501054
O24   O     O_R   0.680900 0.502040 0.551870 -0.517855
O25   O     O_R   0.481990 0.666040 0.546870 -0.501884
O26   O     O_R   0.325370 0.678160 0.544080 -0.515230
C97   C     C_1   0.830683 0.473583 0.084969 0.226159
N13   N     N_1   0.813649 0.549611 0.071312 -0.287419
N14   N     N_3   0.836782 0.489614 0.334691 -0.593611
H35   H     H_    0.829245 0.551072 0.355270 0.227750
H36   H     H_    0.915222 0.447738 0.328707 0.237319
N15   N     N_3   0.893136 0.108836 0.154063 -0.580850
H37   H     H_    0.931352 0.043264 0.134666 0.223313
H38   H     H_    0.818715 0.118208 0.156105 0.236752
C98   C     C_1   0.182055 0.808232 0.403392 0.220607
N16   N     N_1   0.108299 0.818809 0.417053 -0.291543
C99   C     C_1   0.548609 0.745540 0.416582 0.223049
N17   N     N_1   0.624696 0.730703 0.435455 -0.297310
N18   N     N_3   0.168633 0.855181 0.322126 -0.594238
H39   H     H_    0.145109 0.798355 0.320920 0.246140
H40   H     H_    0.113128 0.922872 0.336494 0.245898
N19   N     N_3   0.532591 0.781853 0.334396 -0.585220
H41   H     H_    0.552774 0.835328 0.350228 0.250121
H42   H     H_    0.595248 0.707421 0.337193 0.253657
N20   N     N_3   0.105825 0.442294 0.903869 -0.588494
H43   H     H_    0.084836 0.521031 0.905202 0.225171
H44   H     H_    0.052906 0.430531 0.883412 0.234182
C100  C     C_1   0.473672 0.163574 0.307837 0.200583
N21   N     N_1   0.525327 0.085818 0.290637 -0.269721
C101  C     C_1   0.482893 0.185202 0.916363 0.230731
N22   N     N_1   0.557233 0.127188 0.933940 -0.282850
N23   N     N_3   0.923757 0.109198 0.876994 -0.621912
H45   H     H_    0.003406 0.068934 0.884540 0.263902
H46   H     H_    0.882310 0.119932 0.902204 0.250932
N24   N     N_3   0.818366 0.497178 0.817031 -0.620780
H47   H     H_    0.827174 0.547540 0.839707 0.222153
H48   H     H_    0.739578 0.531788 0.807462 0.232963
N25   N     N_3   0.455432 0.923835 0.899048 -0.574691
H49   H     H_    0.512816 0.921187 0.882271 0.226482
H50   H     H_    0.493003 0.864289 0.918948 0.227823
C102  C     C_1   0.168483 0.835959 0.796279 0.207906
N26   N     N_1   0.109577 0.818498 0.775684 -0.288087

loop_
_geom_bond_atom_site_label_1
_geom_bond_atom_site_label_2
_ccdc_geom_bond_type
C8    C9    A    
C66   C68   A    
N24   H47   S    
Cr6   O19   S    
C89   H33   S    
C55   C59   A    
C41   C42   A    
C74   C94   S    
C36   C42   S    
C87   C88   T    
Cr6   O10   S    
C57   C58   A    
C7    C8    A    
Cr3   O22   S    
C85   C86   A    
C16   N14   S    
C25   C28   A    
C47   H13   S    
N24   H48   S    
C26   C27   A    
N19   H41   S    
Cr1   O24   S    
C59   C95   S    
Cr4   O19   S    
C22   C24   A    
Cr4   O6    S    
C93   O6    A    
C21   N6    A    
C38   C42   A    
C83   N25   S    
Cr5   O16   S    
C5    C6    A    
Cr2   O26   S    
C53   H15   S    
C55   C101  S    
Cr3   O23   S    
C69   H21   S    
C68   C74   A    
C15   C16   A    
C100  N21   T    
C52   N3    A    
C18   C19   A    
C96   O13   A    
C4    H22   S    
C92   O10   A    
C45   O2    A    
C77   H29   S    
C93   O11   A    
C78   H30   S    
C82   H24   S    
C32   C37   S    
C43   C93   S    
Cr2   O21   S    
C40   C43   A    
C31   C32   A    
C53   C54   A    
N15   H38   S    
N23   H45   S    
N14   H36   S    
C41   H10   S    
C52   N2    A    
C70   C71   A    
Cr1   O5    S    
C37   N10   A    
C38   H8    S    
C29   C30   A    
C9    C10   S    
C94   O14   A    
C34   C75   S    
C72   C73   T    
C51   N4    A    
C23   O1    A    
Cr2   O5    S    
Cr5   O9    S    
Cr6   O18   S    
C54   N20   S    
C56   O24   A    
C20   N7    A    
C61   C62   A    
C67   C78   A    
C84   C90   A    
C2    C11   S    
C95   O17   A    
C79   C88   S    
C44   C46   A    
C102  N26   T    
C40   H9    S    
C54   C59   A    
C77   C79   A    
C78   C89   A    
C39   H6    S    
C12   C67   S    
C20   N1    A    
Cr1   O25   S    
Cr1   O12   S    
Cr5   O15   S    
C38   C39   A    
C76   C77   A    
C7    H32   S    
N2    N12   A    
C86   C87   S    
C16   C17   A    
C12   O22   A    
C15   H34   S    
C63   C73   S    
Cr5   O8    S    
N20   H44   S    
C25   C26   A    
C82   C86   A    
Cr3   O3    S    
C92   O9    A    
C17   C21   S    
C79   C80   A    
C60   C61   A    
C45   O3    A    
C14   C23   S    
C2    C89   A    
C75   C76   A    
C66   C71   A    
C91   O7    A    
C62   C63   A    
C34   O26   A    
C62   H23   S    
C76   H27   S    
C36   N11   A    
C47   C48   A    
C7    C13   A    
C35   C99   S    
C1    C29   S    
C17   C18   A    
C101  N22   T    
C98   N16   T    
C69   C74   A    
C51   C58   S    
C6    H1    S    
C84   C85   A    
Cr4   O13   S    
N14   H35   S    
Cr4   O7    S    
C40   C41   A    
C20   C27   S    
C60   C65   A    
C82   C83   A    
Cr6   O17   S    
C65   H19   S    
C66   H17   S    
C55   C57   A    
C13   C92   S    
C49   C50   A    
C96   O18   A    
C56   O4    A    
C3    C4    A    
N15   H37   S    
C25   H5    S    
N10   N11   A    
Cr2   O2    S    
C44   C50   A    
C70   N24   S    
C83   C90   A    
N1    N5    A    
C46   C47   A    
C48   C49   A    
N19   H42   S    
C46   H11   S    
C8    H31   S    
N6    N7    A    
C64   H18   S    
C14   C19   A    
C1    O12   A    
C75   C81   A    
C44   C45   S    
C24   C28   A    
C5    C9    A    
C80   C81   A    
C19   H2    S    
C85   C102  S    
Cr6   O11   S    
C4    C67   A    
C39   C43   A    
C53   C58   A    
C30   C98   S    
C90   C96   S    
C12   O21   A    
C80   H25   S    
C26   N15   S    
Cr5   O19   S    
Cr3   O4    S    
C29   C35   A    
C3    C100  S    
C1    O20   A    
C68   N23   S    
C22   C27   A    
C37   N9    A    
C64   C65   A    
C2    C3    A    
C36   N8    A    
C18   H3    S    
C21   N5    A    
C91   O8    A    
C81   H26   S    
C97   N13   T    
C22   H4    S    
C95   O16   A    
C32   C33   A    
C6    C13   A    
N3    N4    A    
C99   N17   T    
C30   C31   A    
C5    H7    S    
C51   N12   A    
C33   N19   S    
Cr3   O5    S    
C84   H28   S    
C33   C35   A    
C28   C91   S    
N25   H50   S    
C69   C70   A    
N18   H40   S    
Cr4   O14   S    
C10   C11   T    
C63   C64   A    
C56   C60   S    
N8    N9    A    
C48   C52   S    
C49   H14   S    
C71   C72   S    
N23   H46   S    
N20   H43   S    
C31   N18   S    
C34   O25   A    
Cr1   O1    S    
C14   C15   A    
C61   H20   S    
N18   H39   S    
C50   H12   S    
C24   C97   S    
C94   O15   A    
Cr2   O20   S    
N25   H49   S    
C57   H16   S    
C23   O23   A    
