data_mof_unit_11949.cif
_audit_creation_date              2013-03-05T15:56:12-0500
_audit_creation_method            fapswitch 2.2
_symmetry_space_group_name_H-M    P1
_symmetry_Int_Tables_number       1
_space_group_crystal_system       triclinic
_cell_length_a                    12.396228
_cell_length_b                    13.206102
_cell_length_c                    19.301045
_cell_angle_alpha                 77.363806
_cell_angle_beta                  100.945464
_cell_angle_gamma                 116.758261
_cell_volume                      2737.81498195

loop_
_atom_site_label
_atom_site_type_symbol
_atom_site_description
_atom_site_fract_x
_atom_site_fract_y
_atom_site_fract_z
_atom_type_partial_charge
O1    O     O_R   0.972510 0.318130 0.520450 -0.534506
O2    O     O_R   0.806530 0.359650 0.492990 -0.598455
C1    C     C_R   0.854829 0.287339 0.513278 0.829736
O3    O     O_R   0.083010 0.479220 0.613590 -0.531337
O4    O     O_R   0.917030 0.520740 0.586130 -0.619470
C2    C     C_R   0.999236 0.499513 0.632257 0.862450
Cu1   Cu    Cu3+1 0.098280 0.475420 0.516260 1.118528
Cu2   Cu    Cu3+1 0.901720 0.524580 0.483740 0.991928
O5    O     O_R   0.193470 0.640350 0.507010 -0.500642
O6    O     O_R   0.027490 0.681870 0.479550 -0.596313
O7    O     O_R   0.082970 0.479260 0.413870 -0.539368
O8    O     O_R   0.916990 0.520780 0.386410 -0.553739
C3    C     C_R   0.145184 0.713295 0.492174 0.901909
C4    C     C_R   0.999641 0.498745 0.367986 0.868856
C5    C     C_R   0.101914 0.515075 0.755846 -0.051379
H1    H     H_    0.184726 0.527558 0.737109 0.224755
C6    C     C_R   0.102395 0.517192 0.827768 0.394576
C7    C     C_R   0.994721 0.502159 0.852815 -0.180547
C8    C     C_R   0.888190 0.485114 0.804877 0.324939
C9    C     C_R   0.891409 0.484048 0.732951 -0.247683
H2    H     H_    0.810416 0.471493 0.696073 0.196224
C10   C     C_R   0.997498 0.499238 0.708141 -0.172718
N1    N     N_R   0.966018 0.401287 0.974853 -0.178757
N2    N     N_R   0.966838 0.400443 0.044004 -0.199906
C11   C     C_R   0.994203 0.498634 0.069012 0.468730
N3    N     N_R   0.021215 0.597782 0.022244 -0.192201
N4    N     N_R   0.020968 0.598815 0.953172 -0.162552
C12   C     C_R   0.992696 0.500455 0.928474 0.453187
C13   C     C_R   0.001045 0.406085 0.195980 -0.087557
H3    H     H_    0.003756 0.334374 0.178998 0.202095
C14   C     C_R   0.002617 0.404206 0.268689 0.426228
C15   C     C_R   0.000280 0.498238 0.291986 -0.229991
C16   C     C_R   0.996110 0.591919 0.241016 0.306437
C17   C     C_R   0.992457 0.590029 0.168476 -0.168591
H4    H     H_    0.989494 0.662151 0.129915 0.213914
C18   C     C_R   0.995443 0.497975 0.145538 -0.111358
C19   C     C_R   0.295585 0.011896 0.400281 -0.048559
H5    H     H_    0.112070 0.884854 0.399796 0.216068
H6    H     H_    0.273440 0.062421 0.352409 0.220930
C20   C     C_R   0.230071 0.835392 0.483298 -0.148281
C21   C     C_R   0.786637 0.132111 0.613178 0.421453
C22   C     C_R   0.689886 0.042581 0.647023 -0.229173
C23   C     C_R   0.576527 0.995109 0.609602 -0.094621
C24   C     C_R   0.557562 0.027235 0.535272 0.052393
C25   C     C_R   0.655551 0.116382 0.499420 -0.152548
C26   C     C_R   0.440499 0.980206 0.497062 -0.085460
C27   C     C_R   0.416067 0.043194 0.431371 -0.023908
C28   C     C_R   0.512341 0.131949 0.395689 0.424513
C29   C     C_R   0.632661 0.157521 0.426048 0.330898
C30   C     C_R   0.347823 0.871385 0.520596 0.311140
C31   C     C_R   0.202730 0.910435 0.427574 -0.183724
C32   C     C_R   0.770445 0.169760 0.539284 -0.103716
H7    H     H_    0.502751 0.939551 0.641325 0.200057
H8    H     H_    0.699289 0.016439 0.704256 0.168962
C33   C     C_R   0.355616 0.340722 0.619001 -0.281948
H9    H     H_    0.552211 0.305038 0.642150 0.173489
H10   H     H_    0.356884 0.276322 0.664601 0.196901
N5    N     N_R   0.246290 0.438200 0.540910 -0.294043
C34   C     C_R   0.765983 0.651159 0.406811 0.017239
C35   C     C_R   0.680402 0.696556 0.392301 0.242335
C36   C     C_R   0.579049 0.643702 0.431012 -0.157562
C37   C     C_R   0.558674 0.543030 0.480943 -0.020497
C38   C     C_R   0.654666 0.507533 0.497731 0.270277
C39   C     C_R   0.451626 0.481456 0.518618 -0.066133
C40   C     C_R   0.453694 0.398692 0.578679 0.063462
C41   C     C_R   0.551544 0.369941 0.596774 -0.190307
C42   C     C_R   0.648029 0.420648 0.555837 -0.168109
C43   C     C_R   0.340492 0.493932 0.497952 0.437541
C44   C     C_R   0.253102 0.361827 0.600001 0.471054
N6    N     N_R   0.754310 0.561190 0.459520 -0.241265
H11   H     H_    0.846237 0.691389 0.378703 0.204483
H12   H     H_    0.521894 0.687029 0.424596 0.238764
H13   H     H_    0.717243 0.391127 0.572979 0.191203
O9    O     O_3   0.486735 0.185188 0.328657 -0.687193
H14   H     H_    0.561454 0.251937 0.313001 0.384609
N7    N     N_R   0.376280 0.790739 0.575041 0.109614
O10   O     O_R   0.312521 0.740543 0.629187 -0.387912
O11   O     O_R   0.460657 0.761782 0.568057 -0.328657
O12   O     O_3   0.891375 0.195210 0.653225 -0.665866
H15   H     H_    0.887048 0.159953 0.704179 0.352358
O13   O     O_3   0.724906 0.221411 0.382748 -0.725092
H16   H     H_    0.789960 0.194991 0.399460 0.324911
N8    N     N_R   0.150682 0.291434 0.638406 0.169411
O14   O     O_R   0.149972 0.314648 0.700376 -0.326538
O15   O     O_R   0.088702 0.186191 0.626086 -0.317118
O16   O     O_3   0.209962 0.534040 0.870932 -0.662363
H17   H     H_    0.201690 0.537247 0.920231 0.344122
N9    N     N_R   0.317066 0.543462 0.426203 0.120696
O17   O     O_R   0.311975 0.494128 0.373464 -0.326071
O18   O     O_R   0.313710 0.642972 0.412431 -0.318467
N10   N     N_R   0.698235 0.797821 0.340282 0.149189
O19   O     O_R   0.794565 0.848775 0.306135 -0.287494
O20   O     O_R   0.618045 0.839698 0.326209 -0.280900
N11   N     N_R   0.775926 0.467215 0.827896 0.149610
O21   O     O_R   0.672548 0.409146 0.793111 -0.331195
O22   O     O_R   0.775917 0.517666 0.878721 -0.290045
O23   O     O_3   0.004592 0.308029 0.313917 -0.665333
H18   H     H_    0.986253 0.306296 0.361817 0.328072
N12   N     N_R   0.000815 0.691790 0.262122 0.132855
O24   O     O_R   0.079371 0.738081 0.314129 -0.363868
O25   O     O_R   0.940707 0.746833 0.222663 -0.292062

loop_
_geom_bond_atom_site_label_1
_geom_bond_atom_site_label_2
_geom_bond_distance
_ccdc_geom_bond_type
Cu2   O6    1.951982 S    
C21   C22   1.394920 A    
C8    C9    1.399675 A    
O23   H18   0.986299 S    
Cu1   Cu2   2.723566 S    
Cu1   O7    1.940741 S    
C13   C18   1.399502 A    
N3    N4    1.329688 A    
C13   H3    1.083542 S    
N8    O14   1.300574 A    
C39   C43   1.432161 A    
N7    O11   1.301810 A    
C7    C8    1.417802 A    
O4    C2    1.308879 A    
C19   C31   1.389409 A    
O7    C4    1.307582 A    
C20   C30   1.414482 A    
C5    H1    1.083658 S    
C2    C10   1.468077 S    
Cu1   O5    1.940075 S    
C17   H4    1.083240 S    
C29   O13   1.379691 S    
O5    C3    1.304494 A    
C3    C20   1.468441 S    
C37   C39   1.444640 A    
C23   H7    1.077723 S    
C5    C10   1.398155 A    
C27   C28   1.404200 A    
N1    N2    1.330419 A    
C42   H13   1.065152 S    
C19   C27   1.404946 A    
Cu1   N5    2.052460 S    
C41   C42   1.381828 A    
C34   C35   1.396330 A    
N11   O21   1.301800 A    
O3    Cu1   1.937064 S    
C33   C40   1.389414 A    
C24   C26   1.420524 A    
C6    C7    1.420947 A    
C38   C42   1.402900 A    
O9    H14   0.990347 S    
C6    O16   1.383357 S    
C28   O9    1.384199 S    
C7    C12   1.460348 S    
N7    O10   1.301965 A    
O3    C2    1.309583 A    
C4    C15   1.469901 S    
N10   O19   1.301693 A    
O16   H17   0.988086 S    
H5    C31   1.083121 S    
C34   N6    1.356403 A    
C25   C32   1.426365 A    
C11   N3    1.358026 A    
O13   H16   0.990680 S    
C35   C36   1.400935 A    
O1    C1    1.313924 A    
C23   C24   1.410288 A    
C37   C38   1.424831 A    
C44   N8    1.420817 S    
C30   N7    1.439034 S    
N10   O20   1.301733 A    
N12   O24   1.300326 A    
C38   N6    1.378737 A    
C25   C29   1.425052 A    
Cu2   O8    1.937064 S    
C9    H2    1.082827 S    
C16   C17   1.397543 A    
N1    C12   1.354740 A    
N2    C11   1.358356 A    
N11   O22   1.300890 A    
C33   C44   1.387192 A    
C8    N11   1.443117 S    
C36   H12   1.070242 S    
N5    C43   1.385492 A    
C28   C29   1.408237 A    
N12   O25   1.301379 A    
N9    O18   1.300586 A    
C33   H10   1.085115 S    
C43   N9    1.432467 S    
C22   C23   1.381574 A    
C24   C25   1.419650 A    
C35   N10   1.440821 S    
C5    C6    1.393382 A    
C26   C27   1.418033 A    
C21   C32   1.411566 A    
N8    O15   1.300857 A    
O1    Cu1   1.951982 S    
C14   C15   1.423631 A    
O2    Cu2   1.940075 S    
C9    C10   1.399509 A    
O6    C3    1.313090 A    
C21   O12   1.379875 S    
O4    Cu2   1.940742 S    
C1    C32   1.467332 S    
N5    C44   1.364556 A    
C20   C31   1.396941 A    
C26   C30   1.420329 A    
Cu2   N6    2.040502 S    
C15   C16   1.416624 A    
O2    C1    1.298432 A    
O8    C4    1.308791 A    
C19   H6    1.083123 S    
C22   H8    1.083308 S    
H9    C41   1.084880 S    
C39   C40   1.413752 A    
C17   C18   1.399100 A    
C14   O23   1.382257 S    
C36   C37   1.410528 A    
C11   C18   1.472342 S    
O12   H15   0.992001 S    
N9    O17   1.301283 A    
C13   C14   1.394720 A    
C40   C41   1.390414 A    
N4    C12   1.354591 A    
C16   N12   1.437242 S    
C34   H11   1.081310 S    
