data_mof_unit_63756.cif
_audit_creation_date              2012-12-10T20:01:09-0500
_audit_creation_method            fapswitch 2.2
_symmetry_space_group_name_H-M    P1
_symmetry_Int_Tables_number       1
_space_group_crystal_system       triclinic
_cell_length_a                    32.129716
_cell_length_b                    32.129684
_cell_length_c                    23.549939
_cell_angle_alpha                 90.001132
_cell_angle_beta                  89.99957
_cell_angle_gamma                 89.94163
_cell_volume                      24311.0044078

loop_
_atom_site_label
_atom_site_type_symbol
_atom_type_description
_atom_site_fract_x
_atom_site_fract_y
_atom_site_fract_z
_atom_type_partial_charge
C1    C     C_R   0.000020 0.419378 0.500003 0.911316
C2    C     C_1   0.161965 0.000157 0.500027 -0.036825
C3    C     C_R   0.728012 0.982392 0.453701 -0.054536
C4    C     C_R   0.015881 0.271990 0.547432 -0.054525
C5    C     C_R   0.727950 0.017354 0.546271 -0.054104
C6    C     C_R   0.982317 0.728013 0.546233 -0.054517
C7    C     C_R   0.272040 0.985406 0.548038 -0.053990
C8    C     C_R   0.483683 0.772054 0.953081 -0.054066
C9    C     C_R   0.771987 0.516438 0.952887 -0.054526
C10   C     C_R   0.516455 0.227958 0.953068 -0.054068
C11   C     C_R   0.228005 0.483365 0.953067 -0.054531
C12   C     C_R   0.516546 0.771985 0.047064 -0.054520
C13   C     C_1   0.999954 0.838040 0.499989 -0.036463
C14   C     C_R   0.227955 0.516410 0.046932 -0.054053
C15   C     C_R   0.483338 0.228002 0.046885 -0.054546
C16   C     C_R   0.772052 0.483780 0.047002 -0.054058
C17   C     C_R   0.999919 0.293487 0.500155 -0.014464
C18   C     C_R   0.293488 0.000195 0.500046 -0.014798
C19   C     C_R   0.999953 0.706519 0.500067 -0.014378
C20   C     C_R   0.706518 0.999943 0.499928 -0.014398
C21   C     C_R   0.500049 0.793483 0.000129 -0.014365
C22   C     C_R   0.793483 0.500044 0.999891 -0.014375
C23   C     C_R   0.499961 0.206516 0.000020 -0.014396
C24   C     C_1   0.838039 0.999939 0.500011 -0.036519
C25   C     C_R   0.206516 0.499953 0.999951 -0.014389
C26   C     C_R   0.033002 0.295905 0.595943 0.145936
C27   C     C_R   0.075447 0.306042 0.597593 -0.135107
C28   C     C_R   0.091326 0.329497 0.642665 -0.143800
C29   C     C_R   0.064898 0.343078 0.686060 -0.107805
C30   C     C_R   0.022537 0.333221 0.684436 -0.135713
C31   C     C_R   0.006552 0.309733 0.639462 -0.179744
C32   C     C_R   0.296002 0.970713 0.597993 0.147106
C33   C     C_R   0.307322 0.998752 0.640957 -0.144212
C34   C     C_R   0.330909 0.985077 0.687258 -0.141536
C35   C     C_1   0.500050 0.661961 0.000013 -0.036608
C36   C     C_R   0.343402 0.943455 0.690734 -0.108789
C37   C     C_R   0.332333 0.915446 0.647890 -0.137940
C38   C     C_R   0.308752 0.929008 0.601520 -0.172122
C39   C     C_R   0.963566 0.704098 0.593608 0.145642
C40   C     C_R   0.988504 0.690303 0.638776 -0.179578
C41   C     C_R   0.971001 0.666855 0.682725 -0.136011
C42   C     C_R   0.928628 0.657009 0.681681 -0.107415
C43   C     C_R   0.903708 0.670558 0.636640 -0.142961
C44   C     C_R   0.921108 0.693972 0.592587 -0.135067
C45   C     C_R   0.703977 0.034746 0.594583 0.147050
C46   C     C_1   0.661961 0.500046 0.999994 -0.036627
C47   C     C_R   0.692655 0.009144 0.640294 -0.143136
C48   C     C_R   0.669114 0.025336 0.685109 -0.142507
C49   C     C_R   0.656673 0.067047 0.684367 -0.108183
C50   C     C_R   0.667741 0.092624 0.638779 -0.136277
C51   C     C_R   0.691275 0.076542 0.593882 -0.173364
C52   C     C_R   0.968204 0.296039 0.403515 0.147289
C53   C     C_R   0.995313 0.307532 0.359536 -0.143257
C54   C     C_R   0.980607 0.331119 0.313827 -0.142294
C55   C     C_R   0.938877 0.343435 0.311950 -0.108507
C56   C     C_R   0.911795 0.332193 0.355807 -0.136951
C57   C     C_1   0.499959 0.338038 0.999986 -0.036621
C58   C     C_R   0.926390 0.308613 0.401592 -0.173458
C59   C     C_R   0.704095 0.963731 0.406259 0.145658
C60   C     C_R   0.693970 0.921271 0.407128 -0.135053
C61   C     C_R   0.670555 0.903954 0.363014 -0.143001
C62   C     C_R   0.657006 0.928960 0.318061 -0.107416
C63   C     C_R   0.666852 0.971334 0.317168 -0.136014
C64   C     C_R   0.690300 0.988754 0.361179 -0.179616
C65   C     C_R   0.034933 0.703978 0.405537 0.146982
C66   C     C_R   0.009412 0.692656 0.359743 -0.143156
C67   C     C_R   0.025682 0.669115 0.314981 -0.142478
C68   C     C_1   0.338038 0.499953 0.000007 -0.036618
C69   C     C_R   0.067392 0.656673 0.315861 -0.108132
C70   C     C_R   0.092889 0.667740 0.361533 -0.136100
C71   C     C_R   0.076728 0.691275 0.406377 -0.173247
C72   C     C_R   0.295940 0.029751 0.402138 0.147254
C73   C     C_R   0.307402 0.001707 0.359221 -0.144584
C74   C     C_R   0.330954 0.015401 0.312923 -0.141441
C75   C     C_R   0.343270 0.057049 0.309401 -0.108466
C76   C     C_R   0.332063 0.085062 0.352200 -0.137694
C77   C     C_R   0.308519 0.071481 0.398569 -0.171850
C78   C     C_R   0.534144 0.795899 0.095257 0.145606
C79   C     C_1   0.000029 0.338129 0.500100 -0.007605
C80   C     C_R   0.576616 0.805970 0.096185 -0.135006
C81   C     C_R   0.592945 0.829391 0.140989 -0.143517
C82   C     C_R   0.566938 0.843003 0.184838 -0.107550
C83   C     C_R   0.524551 0.833213 0.183936 -0.135801
C84   C     C_R   0.508118 0.809758 0.139232 -0.179627
C85   C     C_R   0.796031 0.467584 0.096070 0.147068
C86   C     C_R   0.807472 0.494323 0.140495 -0.143110
C87   C     C_R   0.831051 0.479246 0.185988 -0.142322
C88   C     C_R   0.843410 0.437516 0.187204 -0.108536
C89   C     C_R   0.832218 0.410803 0.142902 -0.136805
C90   C     C_1   0.338129 0.000132 0.500015 -0.007635
C91   C     C_R   0.808647 0.425769 0.097332 -0.173399
C92   C     C_R   0.465603 0.204071 0.094966 0.145675
C93   C     C_R   0.491501 0.190209 0.139078 -0.179490
C94   C     C_R   0.474950 0.166694 0.183641 -0.135947
C95   C     C_R   0.432573 0.156846 0.184264 -0.108134
C96   C     C_R   0.406694 0.170467 0.140281 -0.143452
C97   C     C_R   0.423140 0.193949 0.095618 -0.135000
C98   C     C_R   0.203987 0.532803 0.095889 0.147108
C99   C     C_R   0.192559 0.506244 0.140519 -0.143218
C100  C     C_R   0.169014 0.521510 0.185929 -0.142372
C101  C     C_1   0.999912 0.661876 0.500042 -0.007588
C102  C     C_R   0.156676 0.563250 0.186858 -0.108229
C103  C     C_R   0.167851 0.589782 0.142348 -0.136646
C104  C     C_R   0.191388 0.574627 0.096860 -0.173422
C105  C     C_R   0.467380 0.796036 0.904082 0.147005
C106  C     C_R   0.494012 0.807440 0.859521 -0.143062
C107  C     C_R   0.478840 0.831030 0.814098 -0.142369
C108  C     C_R   0.437121 0.843437 0.813087 -0.108634
C109  C     C_R   0.410515 0.832281 0.857525 -0.136727
C110  C     C_R   0.425577 0.808698 0.903025 -0.173329
C111  C     C_R   0.204080 0.465667 0.904954 0.145644
C112  C     C_R   0.419378 0.000021 0.499996 0.911544
C113  C     C_1   0.661875 0.999908 0.499951 -0.007582
C114  C     C_R   0.193987 0.423198 0.904214 -0.135007
C115  C     C_R   0.170534 0.406780 0.859502 -0.143523
C116  C     C_R   0.156912 0.432694 0.815559 -0.107793
C117  C     C_R   0.166727 0.475078 0.816272 -0.135823
C118  C     C_R   0.190214 0.491600 0.860883 -0.179568
C119  C     C_R   0.532886 0.203993 0.904131 0.147146
C120  C     C_R   0.506362 0.192572 0.859458 -0.143228
C121  C     C_R   0.521662 0.169028 0.814068 -0.142409
C122  C     C_R   0.563401 0.156685 0.813201 -0.108238
C123  C     C_R   0.589899 0.167854 0.857753 -0.136693
C124  C     C_1   0.500092 0.838126 0.000106 -0.007543
C125  C     C_R   0.574709 0.191390 0.903222 -0.173433
C126  C     C_R   0.795903 0.533930 0.904625 0.145607
C127  C     C_R   0.809783 0.507803 0.860773 -0.179628
C128  C     C_R   0.833242 0.524138 0.816007 -0.135827
C129  C     C_R   0.843014 0.566528 0.814918 -0.107567
C130  C     C_R   0.829381 0.592634 0.858644 -0.143562
C131  C     C_R   0.805956 0.576404 0.903512 -0.134997
C132  C     C_3   0.032923 0.204122 0.598635 -0.389089
C133  C     C_3   0.077516 0.189636 0.588013 -0.847604
C134  C     C_3   0.204255 0.968995 0.599688 -0.390759
C135  C     C_1   0.838126 0.500088 0.999915 -0.007550
C136  C     C_3   0.190280 0.004782 0.637841 -0.844580
C137  C     C_3   0.963330 0.795887 0.596160 -0.389672
C138  C     C_3   0.919199 0.810406 0.582457 -0.846881
C139  C     C_3   0.795726 0.036221 0.596368 -0.392680
C140  C     C_3   0.809676 0.002471 0.637847 -0.839705
C141  C     C_3   0.966765 0.204293 0.401627 -0.392278
C142  C     C_3   0.001840 0.190448 0.362181 -0.840202
C143  C     C_3   0.795885 0.963497 0.403709 -0.389674
C144  C     C_3   0.810405 0.919339 0.417255 -0.846788
C145  C     C_3   0.036439 0.795726 0.403776 -0.392430
C146  C     C_1   0.499921 0.161874 0.999991 -0.007568
C147  C     C_3   0.002778 0.809682 0.362165 -0.839519
C148  C     C_3   0.204193 0.031550 0.400495 -0.389574
C149  C     C_3   0.190386 0.995816 0.362188 -0.845676
C150  C     C_3   0.534251 0.704108 0.097840 -0.389710
C151  C     C_3   0.578692 0.689566 0.086197 -0.846487
C152  C     C_3   0.704283 0.466198 0.097971 -0.392634
C153  C     C_3   0.690386 0.500980 0.137867 -0.839636
C154  C     C_3   0.465491 0.295860 0.097613 -0.389710
C155  C     C_3   0.421077 0.310387 0.085756 -0.846621
C156  C     C_3   0.295735 0.534202 0.097740 -0.392583
C157  C     C_1   0.161874 0.499915 0.999978 -0.007565
C158  C     C_3   0.309639 0.499584 0.137895 -0.839716
C159  C     C_3   0.465977 0.704287 0.902184 -0.392607
C160  C     C_3   0.500663 0.690373 0.862143 -0.839632
C161  C     C_3   0.295869 0.465562 0.902322 -0.389689
C162  C     C_3   0.310406 0.421142 0.914115 -0.846612
C163  C     C_3   0.534288 0.295742 0.902297 -0.392607
C164  C     C_3   0.499704 0.309650 0.862093 -0.839741
C165  C     C_3   0.704113 0.534023 0.902027 -0.389738
C166  C     C_3   0.689563 0.578487 0.913481 -0.846444
C167  C     C_1   0.000055 0.375315 0.500050 -0.170783
C168  C     C_1   0.375316 0.000075 0.500001 -0.170741
C169  C     C_1   0.999929 0.624688 0.500020 -0.170797
C170  C     C_1   0.624688 0.999928 0.499975 -0.170810
C171  C     C_1   0.500073 0.875313 0.000063 -0.170771
C172  C     C_R   0.999979 0.580623 0.500001 0.911095
C173  C     C_1   0.875313 0.500071 0.999951 -0.170764
C174  C     C_1   0.499933 0.124687 0.999985 -0.170788
C175  C     C_1   0.124687 0.499931 0.999994 -0.170770
C176  C     C_1   0.999932 0.124739 0.500020 -0.207066
C177  C     C_1   0.124740 0.000086 0.500006 -0.206637
C178  C     C_1   0.999990 0.875264 0.499998 -0.206657
C179  C     C_1   0.875263 0.999981 0.500001 -0.206797
C180  C     C_1   0.500013 0.624737 0.000007 -0.206837
C181  C     C_1   0.624737 0.500011 0.999996 -0.206848
C182  C     C_1   0.499991 0.375263 0.999998 -0.206840
C183  C     C_R   0.580623 0.999979 0.499998 0.911121
C184  C     C_1   0.375263 0.499988 0.999999 -0.206832
C185  C     C_R   0.000000 0.499997 0.390462 0.912122
C186  C     C_R   0.499995 1.000000 0.390462 0.912043
C187  C     C_R   1.000000 0.499997 0.609537 0.911884
C188  C     C_R   0.499995 0.000000 0.609537 0.912228
C189  C     C_R   0.499999 1.000000 0.890462 0.912168
C190  C     C_R   1.000000 0.499999 0.890462 0.911915
C191  C     C_R   0.499999 0.000000 0.109537 0.911914
C192  C     C_R   0.999999 0.500000 0.109537 0.912172
C193  C     C_R   0.080629 0.000012 0.500000 0.911907
C194  C     C_R   0.500021 0.919377 0.000011 0.911255
C195  C     C_R   1.000000 0.919372 0.499999 0.912760
C196  C     C_R   0.919372 0.999997 0.500000 0.912591
C197  C     C_R   0.999989 0.080629 0.500002 0.911989
C198  C     C_R   0.580628 0.500002 1.000000 0.912541
C199  C     C_R   0.499998 0.419372 0.999999 0.912548
C200  C     C_R   0.419372 0.499998 0.000000 0.912556
C201  C     C_R   0.500002 0.580628 0.000001 0.912551
C202  C     C_1   0.000000 0.499993 0.330322 -0.194343
C203  C     C_1   0.499988 0.999999 0.330322 -0.194601
C204  C     C_1   0.999999 0.499992 0.669678 -0.194869
C205  C     C_R   0.919377 0.500021 0.999992 0.911257
C206  C     C_1   0.499989 0.000001 0.669678 -0.194257
C207  C     C_1   0.499996 1.000000 0.830322 -0.194342
C208  C     C_1   0.999999 0.499996 0.830322 -0.194790
C209  C     C_1   0.499995 0.999999 0.169678 -0.194888
C210  C     C_1   0.999999 0.499998 0.169678 -0.194234
C211  C     C_1   1.000000 0.499992 0.279598 -0.006791
C212  C     C_1   0.499985 0.999998 0.279598 -0.007371
C213  C     C_1   0.999999 0.499990 0.720402 -0.007571
C214  C     C_1   0.499986 0.000001 0.720402 -0.006810
C215  C     C_1   0.499990 0.000000 0.779598 -0.006869
C216  C     C_R   0.499979 0.080623 0.999992 0.911219
C217  C     C_1   0.999999 0.499992 0.779598 -0.007539
C218  C     C_1   0.499989 0.999999 0.220402 -0.007583
C219  C     C_1   0.999999 0.499995 0.220402 -0.006738
C220  C     C_R   0.015918 0.228106 0.547771 0.095173
C221  C     C_R   0.228162 0.985098 0.548252 0.095291
C222  C     C_R   0.982196 0.771898 0.546529 0.095377
C223  C     C_R   0.771829 0.017524 0.546579 0.094821
C224  C     C_R   0.983804 0.228181 0.452516 0.094679
C225  C     C_R   0.771897 0.982269 0.453407 0.095340
C226  C     C_R   0.017634 0.771829 0.453488 0.094710
C227  C     C_R   0.080623 0.499979 0.000003 0.911231
C228  C     C_R   0.228132 0.015390 0.451896 0.095122
C229  C     C_R   0.516647 0.728100 0.047362 0.095293
C230  C     C_R   0.728175 0.483621 0.047329 0.094746
C231  C     C_R   0.483239 0.271885 0.047212 0.095293
C232  C     C_R   0.271832 0.516571 0.047240 0.094751
C233  C     C_R   0.483522 0.728177 0.952751 0.094752
C234  C     C_R   0.271889 0.483266 0.952747 0.095296
C235  C     C_R   0.516617 0.271836 0.952767 0.094762
C236  C     C_R   0.728103 0.516536 0.952583 0.095288
C237  C     C_R   0.999930 0.206605 0.500080 0.060867
C238  C     C_1   0.999902 0.161964 0.500055 -0.036748
C239  C     C_R   0.206606 0.000228 0.500065 0.060327
C240  C     C_R   0.999859 0.793401 0.499953 0.061348
C241  C     C_R   0.793400 0.999840 0.500048 0.061315
C242  C     C_R   0.500143 0.706601 0.999997 0.061282
C243  C     C_R   0.706601 0.500137 0.000013 0.061272
C244  C     C_R   0.499870 0.293399 0.999944 0.061261
C245  C     C_R   0.293399 0.499862 0.000042 0.061269
C246  C     C_R   0.984000 0.272058 0.452823 -0.054026
C247  C     C_R   0.272010 0.015043 0.452086 -0.053906
C248  C     C_R   0.017456 0.727951 0.453791 -0.054063
H1    H     H_    0.096072 0.295982 0.563899 0.123064
H2    H     H_    0.300504 0.907165 0.568358 0.126945
H3    H     H_    0.776838 0.059446 0.619858 0.209198
H4    H     H_    0.019107 0.217907 0.345993 0.252672
H5    H     H_    0.023840 0.169550 0.384765 0.263711
H6    H     H_    0.988565 0.173311 0.325478 0.244695
H7    H     H_    0.948816 0.176687 0.415942 0.204211
H8    H     H_    0.944276 0.223161 0.376815 0.209117
H9    H     H_    0.831470 0.919193 0.454613 0.260918
H10   H     H_    0.783277 0.899007 0.426204 0.253090
H11   H     H_    0.827565 0.906435 0.380301 0.245460
H12   H     H_    0.776914 0.962617 0.364375 0.209833
H13   H     H_    0.021389 0.697632 0.639779 0.127958
H14   H     H_    0.823183 0.983169 0.392952 0.207004
H15   H     H_    0.986026 0.782275 0.344845 0.252610
H16   H     H_    0.980072 0.830608 0.383355 0.264151
H17   H     H_    0.017330 0.826820 0.326375 0.244747
H18   H     H_    0.053936 0.823281 0.419272 0.204153
H19   H     H_    0.059711 0.776836 0.380377 0.209313
H20   H     H_    0.217860 0.978257 0.346533 0.252892
H21   H     H_    0.169526 0.974226 0.385484 0.262876
H22   H     H_    0.173216 0.008469 0.325084 0.246139
H23   H     H_    0.176563 0.049751 0.414252 0.205777
H24   H     H_    0.990290 0.656242 0.717520 0.132525
H25   H     H_    0.223021 0.053602 0.374969 0.209382
H26   H     H_    0.579690 0.668500 0.048864 0.260966
H27   H     H_    0.599234 0.716684 0.078127 0.252999
H28   H     H_    0.590726 0.672402 0.123688 0.245465
H29   H     H_    0.534230 0.723085 0.137188 0.209808
H30   H     H_    0.514327 0.676820 0.107745 0.207011
H31   H     H_    0.717821 0.518160 0.154301 0.252669
H32   H     H_    0.669473 0.523118 0.115563 0.264047
H33   H     H_    0.673250 0.487428 0.174383 0.244579
H34   H     H_    0.676702 0.448324 0.083393 0.204142
H35   H     H_    0.915131 0.638813 0.715689 0.119392
H36   H     H_    0.723161 0.443555 0.122507 0.209183
H37   H     H_    0.420171 0.331459 0.048424 0.260966
H38   H     H_    0.400567 0.283261 0.077575 0.253005
H39   H     H_    0.408937 0.327540 0.123192 0.245448
H40   H     H_    0.465416 0.276874 0.136951 0.209768
H41   H     H_    0.485378 0.323154 0.107629 0.207006
H42   H     H_    0.282206 0.482473 0.154469 0.252659
H43   H     H_    0.330547 0.477355 0.115751 0.264061
H44   H     H_    0.326782 0.513286 0.174300 0.244586
H45   H     H_    0.323313 0.552015 0.083017 0.204122
H46   H     H_    0.870944 0.662794 0.635774 0.127089
H47   H     H_    0.276862 0.556946 0.122111 0.209202
H48   H     H_    0.517816 0.717801 0.845633 0.252651
H49   H     H_    0.522844 0.669454 0.884355 0.264058
H50   H     H_    0.487022 0.673240 0.825687 0.244593
H51   H     H_    0.448126 0.676714 0.916841 0.204130
H52   H     H_    0.443286 0.723171 0.877740 0.209202
H53   H     H_    0.331478 0.420212 0.951446 0.260966
H54   H     H_    0.283285 0.400620 0.922265 0.253001
H55   H     H_    0.327562 0.409035 0.876662 0.245454
H56   H     H_    0.276885 0.465513 0.862982 0.209789
H57   H     H_    0.901652 0.704015 0.557616 0.123275
H58   H     H_    0.323159 0.485463 0.892337 0.207010
H59   H     H_    0.482605 0.282219 0.845487 0.252653
H60   H     H_    0.477456 0.330556 0.884206 0.264073
H61   H     H_    0.513434 0.326796 0.825711 0.244566
H62   H     H_    0.552090 0.323319 0.917052 0.204104
H63   H     H_    0.557051 0.276871 0.877958 0.209178
H64   H     H_    0.668493 0.579567 0.950806 0.260976
H65   H     H_    0.716677 0.599052 0.921470 0.252983
H66   H     H_    0.672401 0.590433 0.875937 0.245461
H67   H     H_    0.723093 0.533915 0.862684 0.209797
H68   H     H_    0.701882 0.976720 0.641003 0.124604
H69   H     H_    0.676828 0.514072 0.892202 0.207001
H70   H     H_    0.660407 0.005527 0.720322 0.131572
H71   H     H_    0.638391 0.079521 0.719038 0.120173
H72   H     H_    0.657997 0.124876 0.638173 0.127502
H73   H     H_    0.124083 0.337272 0.643860 0.126901
H74   H     H_    0.699533 0.096507 0.558591 0.126092
H75   H     H_    0.027756 0.298405 0.360871 0.124419
H76   H     H_    0.001577 0.339963 0.279956 0.131532
H77   H     H_    0.927551 0.361756 0.276594 0.121387
H78   H     H_    0.879528 0.341842 0.354386 0.127386
H79   H     H_    0.905262 0.300227 0.435541 0.126074
H80   H     H_    0.704014 0.901748 0.442030 0.123282
H81   H     H_    0.662792 0.871188 0.363764 0.127093
H82   H     H_    0.638810 0.915527 0.284005 0.119415
H83   H     H_    0.656238 0.990689 0.282441 0.132503
H84   H     H_    0.077221 0.361310 0.720854 0.120516
H85   H     H_    0.697628 0.021641 0.360292 0.127915
H86   H     H_    0.976990 0.701885 0.358927 0.124611
H87   H     H_    0.005935 0.660408 0.279703 0.131581
H88   H     H_    0.079927 0.638391 0.281231 0.120139
H89   H     H_    0.125139 0.657995 0.362246 0.127587
H90   H     H_    0.096630 0.699532 0.441734 0.126206
H91   H     H_    0.298278 0.969324 0.361835 0.123479
H92   H     H_    0.339771 0.993711 0.279871 0.131257
H93   H     H_    0.361565 0.067590 0.273593 0.122206
H94   H     H_    0.341714 0.117265 0.349510 0.127697
H95   H     H_    0.002083 0.343861 0.717955 0.132502
H96   H     H_    0.300163 0.093329 0.431695 0.127354
H97   H     H_    0.596915 0.795880 0.062140 0.123315
H98   H     H_    0.625722 0.837112 0.141628 0.127049
H99   H     H_    0.579608 0.861205 0.219428 0.119904
H100  H     H_    0.504423 0.843876 0.217807 0.132549
H101  H     H_    0.475215 0.802473 0.138721 0.127938
H102  H     H_    0.798311 0.526765 0.139675 0.124615
H103  H     H_    0.839854 0.499931 0.220204 0.131620
H104  H     H_    0.861724 0.425904 0.222394 0.121210
H105  H     H_    0.841899 0.378536 0.143812 0.127426
H106  H     H_    0.973667 0.302402 0.638386 0.127863
H107  H     H_    0.800299 0.404927 0.063037 0.126097
H108  H     H_    0.524397 0.197529 0.138775 0.127890
H109  H     H_    0.494980 0.156023 0.217615 0.132509
H110  H     H_    0.419813 0.138590 0.218739 0.120637
H111  H     H_    0.373926 0.162701 0.140702 0.126978
H112  H     H_    0.402943 0.204037 0.061461 0.123233
H113  H     H_    0.201710 0.473796 0.139928 0.124556
H114  H     H_    0.160224 0.500964 0.220306 0.131530
H115  H     H_    0.138391 0.575009 0.221987 0.120673
H116  H     H_    0.158186 0.622057 0.143036 0.127527
H117  H     H_    0.298064 0.031117 0.638377 0.123782
H118  H     H_    0.199729 0.595331 0.062408 0.126150
H119  H     H_    0.526447 0.798246 0.860183 0.124609
H120  H     H_    0.499442 0.839806 0.779776 0.131632
H121  H     H_    0.425436 0.861761 0.777953 0.121438
H122  H     H_    0.378257 0.841999 0.856775 0.127473
H123  H     H_    0.404818 0.800380 0.937427 0.126135
H124  H     H_    0.204080 0.402972 0.938336 0.123252
H125  H     H_    0.162793 0.374007 0.859011 0.126993
H126  H     H_    0.138682 0.419956 0.781043 0.120239
H127  H     H_    0.156056 0.495135 0.782328 0.132566
H128  H     H_    0.339619 0.006763 0.720346 0.131399
H129  H     H_    0.197514 0.524500 0.861251 0.127940
H130  H     H_    0.473914 0.201725 0.860001 0.124530
H131  H     H_    0.501143 0.160243 0.779658 0.131482
H132  H     H_    0.575187 0.138402 0.778088 0.120638
H133  H     H_    0.622173 0.158185 0.857113 0.127460
H134  H     H_    0.595386 0.199725 0.937707 0.126111
H135  H     H_    0.802512 0.474899 0.861428 0.127907
H136  H     H_    0.843921 0.503933 0.782231 0.132504
H137  H     H_    0.861218 0.579122 0.780280 0.119960
H138  H     H_    0.837089 0.625413 0.857862 0.127042
H139  H     H_    0.361726 0.932929 0.726543 0.122313
H140  H     H_    0.795851 0.596780 0.937462 0.123316
H141  H     H_    0.078996 0.168587 0.550690 0.260742
H142  H     H_    0.098126 0.216780 0.580442 0.252926
H143  H     H_    0.089099 0.172468 0.625763 0.245517
H144  H     H_    0.032384 0.223094 0.637981 0.209674
H145  H     H_    0.012912 0.176807 0.608069 0.206999
H146  H     H_    0.217676 0.022428 0.653454 0.252895
H147  H     H_    0.169345 0.026283 0.614445 0.263326
H148  H     H_    0.173143 0.992172 0.674979 0.245726
H149  H     H_    0.176708 0.950711 0.585963 0.205266
H150  H     H_    0.342120 0.883263 0.650546 0.127452
H151  H     H_    0.223150 0.947035 0.625330 0.209248
H152  H     H_    0.919124 0.831471 0.545098 0.260910
H153  H     H_    0.898884 0.783277 0.573436 0.253109
H154  H     H_    0.906224 0.827566 0.619365 0.245464
H155  H     H_    0.962377 0.776916 0.635490 0.209845
H156  H     H_    0.982982 0.823185 0.606985 0.207023
H157  H     H_    0.782267 0.985685 0.655099 0.252640
H158  H     H_    0.830601 0.979808 0.616570 0.264179
H159  H     H_    0.826814 0.016944 0.673698 0.244538
H160  H     H_    0.823282 0.053748 0.580944 0.203948
O1    O     O_R   0.965560 0.438990 0.499980 -0.617745
O2    O     O_R   0.938990 0.534440 0.999980 -0.617090
O3    O     O_R   0.534440 0.061010 0.999980 -0.617688
O4    O     O_R   0.061010 0.465560 0.999980 -0.617130
O5    O     O_R   0.534440 0.938990 0.000020 -0.617084
O6    O     O_R   0.061010 0.534440 0.000020 -0.617681
O7    O     O_R   0.465560 0.061010 0.000020 -0.617138
O8    O     O_R   0.938990 0.465560 0.000020 -0.617757
O9    O     O_R   0.060930 0.999970 0.453240 -0.617617
O10   O     O_R   0.999970 0.939070 0.453240 -0.617142
O11   O     O_R   0.939070 0.000030 0.453240 -0.618601
O12   O     O_R   0.438990 0.034440 0.499980 -0.617551
O13   O     O_R   0.000030 0.060930 0.453240 -0.617680
O14   O     O_R   0.939070 0.999970 0.546760 -0.617351
O15   O     O_R   0.000030 0.939070 0.546760 -0.618624
O16   O     O_R   0.060930 0.000030 0.546760 -0.617434
O17   O     O_R   0.999970 0.060930 0.546760 -0.618415
O18   O     O_R   0.560930 0.499970 0.953240 -0.618534
O19   O     O_R   0.499970 0.439070 0.953240 -0.617351
O20   O     O_R   0.439070 0.500030 0.953240 -0.618546
O21   O     O_R   0.500030 0.560930 0.953240 -0.617346
O22   O     O_R   0.439070 0.499970 0.046760 -0.617347
O23   O     O_R   0.034440 0.561010 0.499980 -0.617597
O24   O     O_R   0.500030 0.439070 0.046760 -0.618555
O25   O     O_R   0.560930 0.500030 0.046760 -0.617347
O26   O     O_R   0.499970 0.560930 0.046760 -0.618535
O27   O     O_R   0.965560 0.499980 0.417220 -0.617459
O28   O     O_R   0.499980 0.034440 0.417220 -0.617679
O29   O     O_R   0.034440 0.500020 0.417220 -0.617382
O30   O     O_R   0.500020 0.965560 0.417220 -0.617277
O31   O     O_R   0.034440 0.499980 0.582780 -0.617476
O32   O     O_R   0.500020 0.034440 0.582780 -0.617375
O33   O     O_R   0.965560 0.500020 0.582780 -0.617410
O34   O     O_R   0.561010 0.965560 0.499980 -0.616995
O35   O     O_R   0.499980 0.965560 0.582780 -0.617510
O36   O     O_R   0.465560 0.999980 0.917220 -0.617555
O37   O     O_R   0.999980 0.534440 0.917220 -0.617373
O38   O     O_R   0.534440 0.000020 0.917220 -0.617313
O39   O     O_R   0.000020 0.465560 0.917220 -0.617506
O40   O     O_R   0.534440 0.999980 0.082780 -0.617373
O41   O     O_R   0.000020 0.534440 0.082780 -0.617326
O42   O     O_R   0.465560 0.000020 0.082780 -0.617524
O43   O     O_R   0.999980 0.465560 0.082780 -0.617498
O44   O     O_R   0.034440 0.438990 0.500020 -0.617227
O45   O     O_R   0.561010 0.034440 0.500020 -0.617618
O46   O     O_R   0.965560 0.561010 0.500020 -0.616994
O47   O     O_R   0.438990 0.965560 0.500020 -0.617693
O48   O     O_R   0.465560 0.938990 0.999980 -0.617737
Zn1   Zn    Zn3+2 0.954010 0.500000 0.500000 0.957965
Zn2   Zn    Zn3+2 0.000000 0.000000 0.562390 0.952249
Zn3   Zn    Zn3+2 0.500000 0.500000 0.937610 0.952249
Zn4   Zn    Zn3+2 0.500000 0.500000 0.062390 0.952248
Zn5   Zn    Zn3+2 0.500000 0.045990 0.500000 0.957489
Zn6   Zn    Zn3+2 0.045990 0.500000 0.500000 0.957902
Zn7   Zn    Zn3+2 0.500000 0.954010 0.500000 0.958102
Zn8   Zn    Zn3+2 0.454010 0.000000 0.000000 0.957777
Zn9   Zn    Zn3+2 1.000000 0.545990 0.000000 0.958125
Zn10  Zn    Zn3+2 0.545990 0.000000 0.000000 0.958076
Zn11  Zn    Zn3+2 1.000000 0.454010 0.000000 0.957825
Zn12  Zn    Zn3+2 0.000000 0.000000 0.437610 0.952756

loop_
_geom_bond_atom_site_label_1
_geom_bond_atom_site_label_2
_ccdc_geom_bond_type
C187  O31   A    
C105  C110  A    
C75   C76   A    
C126  C127  A    
O26   Zn4   S    
C48   H70   S    
C158  H44   S    
C176  C197  S    
C147  H17   S    
C114  C115  A    
O7    Zn8   S    
C228  C247  A    
C1    O1    A    
C140  H159  S    
C10   C235  A    
C55   H77   S    
C142  H5    S    
C177  C193  S    
O34   Zn7   S    
C111  C118  A    
C135  C173  T    
C46   C181  T    
O2    Zn9   S    
C160  H48   S    
C133  H142  S    
C106  C107  A    
C1    C167  S    
C122  H132  S    
C131  H140  S    
C76   H94   S    
C208  C217  T    
C108  C109  A    
C41   H24   S    
C73   C74   A    
O45   Zn5   S    
O36   Zn8   S    
C74   H92   S    
C92   C97   A    
C114  H124  S    
C145  H18   S    
C2    C177  T    
C155  H37   S    
C151  H28   S    
O1    Zn1   S    
C8    C233  A    
C206  C214  T    
C28   H73   S    
C59   C60   A    
C63   H83   S    
C46   C243  S    
C201  O26   A    
C188  O35   A    
C45   C47   A    
C189  O38   A    
C33   C34   A    
C180  C201  S    
C196  O11   A    
C58   H79   S    
C91   H107  S    
C137  C222  S    
C16   C22   A    
C141  H7    S    
C44   H57   S    
C43   C44   A    
C88   H104  S    
O43   Zn11  S    
C37   C38   A    
C50   H72   S    
O41   Zn9   S    
C164  H60   S    
C186  O30   A    
C198  O18   A    
C29   H84   S    
C76   C77   A    
C192  C210  S    
C154  C155  S    
C103  H116  S    
C52   C58   A    
C130  H138  S    
C144  H9    S    
C16   C85   S    
C123  H133  S    
C158  H42   S    
C205  O8    A    
C147  H15   S    
C145  C226  S    
C139  C223  S    
C80   H97   S    
C70   H89   S    
C68   C184  T    
C86   H102  S    
C161  H58   S    
C194  O5    A    
C182  C199  S    
C94   H109  S    
C72   C73   A    
C115  H125  S    
C139  C140  S    
C113  C170  T    
O21   Zn3   S    
C22   C135  S    
C156  C158  S    
C130  C131  A    
C27   H1    S    
O37   Zn9   S    
C229  C242  A    
C165  H67   S    
O10   Zn12  S    
C223  C241  A    
C136  H147  S    
C200  O20   A    
C120  H130  S    
C69   C70   A    
C66   H86   S    
C151  H26   S    
O32   Zn5   S    
C55   C56   A    
C1    O44   A    
C88   C89   A    
C98   C99   A    
C36   H139  S    
O3    Zn10  S    
C79   C167  T    
C143  C144  S    
C6    C222  A    
C118  H129  S    
C154  C231  S    
C148  C228  S    
C202  C211  T    
C128  C129  A    
C42   H35   S    
C12   C229  A    
C5    C20   A    
C85   C86   A    
C6    C19   A    
C164  H59   S    
C139  H3    S    
C156  H45   S    
C221  C239  A    
C153  H32   S    
C49   H71   S    
C36   C37   A    
C149  H22   S    
C57   C244  S    
O12   Zn5   S    
C234  C245  A    
C20   C113  S    
C7    C221  A    
C78   C80   A    
C2    C239  S    
C33   H117  S    
C11   C25   A    
C13   C178  T    
C216  O3    A    
C140  H158  S    
C166  H64   S    
O30   Zn7   S    
C222  C240  A    
C185  O27   A    
C10   C119  S    
C18   C247  A    
C137  H155  S    
C47   C48   A    
C184  C200  S    
C107  C108  A    
C154  H40   S    
C205  O2    A    
C89   C91   A    
C7    C18   A    
C66   C67   A    
O5    Zn10  S    
C237  C238  S    
C159  H51   S    
C143  C225  S    
O22   Zn4   S    
C57   C182  T    
C152  H34   S    
C19   C248  A    
C14   C98   S    
C152  C230  S    
C23   C146  S    
C97   H112  S    
C96   H111  S    
C39   C40   A    
C62   H82   S    
C69   H88   S    
C166  H66   S    
C210  C219  T    
C132  C220  S    
C160  H49   S    
C29   C30   A    
C162  H54   S    
C40   H13   S    
C156  C232  S    
C83   C84   A    
O46   Zn1   S    
O47   Zn7   S    
O25   Zn4   S    
C143  H14   S    
C163  H62   S    
C83   H100  S    
O40   Zn10  S    
C183  O45   A    
C191  C209  S    
C224  C246  A    
C65   C248  S    
C117  H127  S    
C183  O34   A    
C60   H80   S    
C138  H153  S    
C139  H160  S    
C120  C121  A    
C129  C130  A    
C54   C55   A    
C7    C32   S    
C156  H47   S    
C90   C168  T    
C47   H68   S    
C148  H25   S    
C141  H8    S    
C14   C232  A    
C77   H96   S    
C188  O32   A    
C226  C248  A    
C39   C44   A    
C211  C219  S    
C112  O47   A    
C142  H6    S    
C95   H110  S    
C185  O29   A    
C231  C244  A    
C150  H29   S    
C117  C118  A    
C133  H141  S    
C38   H2    S    
C127  H135  S    
C56   C58   A    
C186  C203  S    
C174  C216  S    
C34   H128  S    
C61   C62   A    
C99   H113  S    
C163  C235  S    
C63   C64   A    
C233  C242  A    
C67   H87   S    
C199  O24   A    
C136  H146  S    
C49   C50   A    
O35   Zn7   S    
O31   Zn6   S    
C150  C151  S    
C132  H145  S    
C151  H27   S    
O44   Zn6   S    
C152  H36   S    
C89   H105  S    
C51   H74   S    
C176  C238  T    
C87   C88   A    
C41   C42   A    
C161  C162  S    
C52   C53   A    
C93   H108  S    
C188  C206  S    
C26   C27   A    
C165  C166  S    
C236  C243  A    
C28   C29   A    
C56   H78   S    
C30   C31   A    
C123  C125  A    
C225  C241  A    
C204  C213  T    
C175  C227  S    
O14   Zn2   S    
O15   Zn2   S    
C144  H11   S    
O17   Zn2   S    
C189  O36   A    
C95   C96   A    
C4    C220  A    
C101  C169  T    
C70   C71   A    
C100  H114  S    
C84   H101  S    
C15   C231  A    
C192  O41   A    
C191  O42   A    
O48   Zn8   S    
C8    C105  S    
C159  C233  S    
C148  H23   S    
C158  H43   S    
C145  C147  S    
C179  C196  S    
O9    Zn12  S    
C199  O19   A    
C226  C240  A    
C11   C111  S    
C18   C90   S    
C142  H4    S    
C195  O15   A    
C133  H143  S    
C86   C87   A    
C53   C54   A    
C5    C45   S    
C87   H103  S    
C60   C61   A    
O20   Zn3   S    
C190  O39   A    
C107  H120  S    
C159  C160  S    
C136  H148  S    
C207  C215  T    
C50   C51   A    
C24   C241  S    
C145  H19   S    
C155  H38   S    
C146  C174  T    
C195  O10   A    
C121  C122  A    
C4    C17   A    
C119  C125  A    
C48   C49   A    
C128  H136  S    
C201  O21   A    
C220  C237  A    
C42   C43   A    
C209  C218  T    
C163  H63   S    
C127  C128  A    
C137  C138  S    
C227  O6    A    
O8    Zn11  S    
C186  O28   A    
C154  H41   S    
C134  H151  S    
C196  O14   A    
C4    C26   S    
C119  C120  A    
C172  O23   A    
C172  O46   A    
C68   C245  S    
C105  C106  A    
C153  H31   S    
C71   H90   S    
C32   C33   A    
C21   C124  S    
O38   Zn10  S    
C149  H21   S    
C109  C110  A    
C124  C171  T    
C189  C207  S    
C125  H134  S    
C187  C204  S    
C16   C230  A    
C92   C93   A    
C34   C36   A    
C111  C114  A    
C14   C25   A    
C94   C95   A    
C112  O12   A    
C235  C244  A    
C37   H150  S    
C192  O43   A    
C165  C236  S    
C82   C83   A    
C43   H46   S    
C103  C104  A    
C134  H149  S    
C6    C39   S    
C173  C205  S    
C149  H20   S    
C147  H16   S    
C82   H99   S    
C115  C116  A    
O39   Zn11  S    
C108  H121  S    
C185  C202  S    
C165  H69   S    
C93   C94   A    
C200  O22   A    
C170  C183  S    
O24   Zn4   S    
C163  C164  S    
C132  H144  S    
C81   C82   A    
C85   C91   A    
C102  H115  S    
C59   C64   A    
C62   C63   A    
C150  C229  S    
C109  H122  S    
C81   H98   S    
C17   C246  A    
C72   C247  S    
C190  O37   A    
C9    C22   A    
C45   C51   A    
C112  C168  S    
C17   C79   S    
C116  C117  A    
C232  C245  A    
C64   H85   S    
O33   Zn1   S    
C161  H56   S    
C160  H50   S    
C162  H55   S    
C15   C92   S    
C161  C234  S    
O27   Zn1   S    
O16   Zn2   S    
C132  C133  S    
C12   C78   S    
C230  C243  A    
C32   C38   A    
C144  H10   S    
C224  C237  A    
C3    C225  A    
C129  H137  S    
C227  O4    A    
O6    Zn9   S    
C15   C23   A    
C26   C31   A    
C138  H152  S    
C9    C236  A    
C104  H118  S    
C102  C103  A    
C138  H154  S    
C171  C194  S    
C181  C198  S    
C116  H126  S    
C13   C240  S    
C53   H75   S    
C121  H131  S    
C74   C75   A    
C153  H33   S    
C140  H157  S    
C3    C20   A    
C148  C149  S    
C228  C239  A    
C213  C217  S    
C214  C215  S    
C134  C136  S    
C164  H61   S    
C30   H95   S    
C65   C71   A    
C12   C21   A    
C73   H91   S    
C191  O40   A    
C67   C69   A    
C150  H30   S    
C198  O25   A    
C72   C77   A    
C137  H156  S    
C99   C100  A    
C134  C221  S    
C96   C97   A    
C24   C179  T    
C100  C102  A    
C8    C21   A    
C152  C153  S    
O18   Zn3   S    
C157  C175  T    
C190  C208  S    
C40   C41   A    
C5    C223  A    
C187  O33   A    
C25   C157  S    
C169  C172  S    
C197  O13   A    
C203  C212  T    
C54   H76   S    
C159  H52   S    
C155  H39   S    
O28   Zn5   S    
C31   H106  S    
C193  O9    A    
C35   C180  T    
C75   H93   S    
C194  O48   A    
C143  H12   S    
C80   C81   A    
C52   C246  S    
O11   Zn12  S    
O13   Zn12  S    
C10   C23   A    
C166  H65   S    
O42   Zn8   S    
C178  C195  S    
C9    C126  S    
O29   Zn6   S    
C162  H53   S    
C141  C142  S    
C19   C101  S    
C193  O16   A    
C212  C218  S    
C126  C131  A    
C11   C234  A    
C98   C104  A    
C106  H119  S    
O19   Zn3   S    
C141  C224  S    
C78   C84   A    
C35   C242  S    
C65   C66   A    
C216  O7    A    
C27   C28   A    
C110  H123  S    
C197  O17   A    
O23   Zn6   S    
C61   H81   S    
C122  C123  A    
O4    Zn11  S    
C3    C59   S    
