data_mof_unit_36317.cif
_audit_creation_date              2013-03-05T15:44:59-0500
_audit_creation_method            fapswitch 2.2
_symmetry_space_group_name_H-M    P1
_symmetry_Int_Tables_number       1
_space_group_crystal_system       triclinic
_cell_length_a                    10.952737
_cell_length_b                    10.972975
_cell_length_c                    18.75494
_cell_angle_alpha                 90.198246
_cell_angle_beta                  90.004975
_cell_angle_gamma                 120.402024
_cell_volume                      1944.08893262

loop_
_atom_site_label
_atom_site_type_symbol
_atom_site_description
_atom_site_fract_x
_atom_site_fract_y
_atom_site_fract_z
_atom_type_partial_charge
O1    O     O_R   0.766500 0.250040 0.579790 -0.516087
O2    O     O_R   0.798570 0.516780 0.574780 -0.493587
C1    C     C_R   0.865193 0.638024 0.603669 0.541705
O3    O     O_R   0.984000 0.732950 0.581090 -0.495102
O4    O     O_R   0.218600 0.700890 0.574760 -0.516882
C2    C     C_R   0.270177 0.632143 0.603777 0.535090
O5    O     O_R   0.249390 0.515350 0.579940 -0.456915
O6    O     O_R   0.982790 0.280900 0.573700 -0.514883
C3    C     C_R   0.860230 0.220953 0.600916 0.529432
O7    O     O_R   0.766600 0.251130 0.419260 -0.488243
O8    O     O_R   0.798660 0.517790 0.425980 -0.454758
C4    C     C_R   0.863113 0.640641 0.398620 0.577183
O9    O     O_R   0.984100 0.734040 0.420570 -0.434529
O10   O     O_R   0.218690 0.701900 0.425960 -0.495934
C5    C     C_R   0.274721 0.635977 0.397311 0.533373
O11   O     O_R   0.249490 0.516440 0.419420 -0.491986
O12   O     O_R   0.982880 0.281910 0.424890 -0.458518
C6    C     C_R   0.862491 0.230565 0.395556 0.558212
Cr1   Cr    Cr6+3 0.791660 0.390250 0.499930 1.107033
Cr2   Cr    Cr6+3 0.098520 0.708290 0.500540 1.106957
Cr3   Cr    Cr6+3 0.109770 0.401430 0.499480 1.122764
O13   O     O_3   0.999980 0.499990 0.499980 -0.298613
C7    C     C_R   0.188810 0.609228 0.726121 -0.091740
H1    H     H_    0.081741 0.560426 0.705403 0.145698
C8    C     C_R   0.212129 0.619868 0.799771 0.214573
C9    C     C_R   0.353771 0.686839 0.823526 0.031726
C10   C     C_R   0.466087 0.732575 0.775092 -0.160657
H2    H     H_    0.574287 0.781675 0.793825 0.097005
C11   C     C_R   0.440272 0.713477 0.702687 -0.118030
H3    H     H_    0.527404 0.745954 0.665793 0.143718
C12   C     C_R   0.302447 0.656579 0.678403 -0.002857
C13   C     C_R   0.828362 0.153100 0.819548 0.026516
C14   C     C_R   0.086086 0.259605 0.825437 -0.118969
C15   C     C_R   0.214961 0.305790 0.791064 -0.072950
C16   C     C_R   0.217214 0.274557 0.719100 0.329535
C17   C     C_R   0.091083 0.207839 0.680593 -0.051925
C18   C     C_R   0.962789 0.182573 0.711554 -0.066834
C19   C     C_R   0.958528 0.196081 0.786259 -0.001703
H4    H     H_    0.312487 0.361476 0.821218 0.185375
H5    H     H_    0.087547 0.281039 0.881919 0.171990
C20   C     C_R   0.709293 0.097650 0.703174 -0.013257
C21   C     C_R   0.706517 0.121185 0.776469 -0.034738
C22   C     C_R   0.581296 0.034368 0.663620 -0.149163
C23   C     C_R   0.453944 0.004305 0.695399 -0.079926
C24   C     C_R   0.453344 0.043640 0.765894 0.304385
C25   C     C_R   0.580519 0.111780 0.803546 -0.039862
C26   C     C_R   0.840731 0.148050 0.669738 -0.025087
H6    H     H_    0.094353 0.175721 0.626409 0.185014
H7    H     H_    0.578751 0.161347 0.852985 0.199411
H8    H     H_    0.356950 0.953004 0.664623 0.180450
H9    H     H_    0.579232 0.005367 0.608174 0.136474
C27   C     C_R   0.757995 0.544270 0.720119 -0.034350
H10   H     H_    0.733674 0.439830 0.703156 0.176863
C28   C     C_R   0.736254 0.565512 0.790821 -0.021673
H11   H     H_    0.691117 0.476490 0.826956 0.183283
C29   C     C_R   0.782299 0.702466 0.815339 0.023219
C30   C     C_R   0.843507 0.816558 0.768313 -0.115322
H12   H     H_    0.880177 0.922337 0.787410 0.133592
C31   C     C_R   0.860934 0.794801 0.697045 -0.095676
H13   H     H_    0.912012 0.884587 0.661556 0.146519
C32   C     C_R   0.820046 0.658538 0.673031 0.032548
C33   C     C_R   0.400146 0.602328 0.297813 -0.112289
H14   H     H_    0.400665 0.516954 0.325991 0.207573
C34   C     C_R   0.437052 0.619949 0.226871 -0.127311
H15   H     H_    0.467141 0.549533 0.202548 0.142155
C35   C     C_R   0.427495 0.721546 0.186637 0.031579
C36   C     C_R   0.390579 0.813455 0.219729 -0.091269
H16   H     H_    0.386308 0.895496 0.189867 0.163238
C37   C     C_R   0.351192 0.794234 0.291325 -0.111530
H17   H     H_    0.314221 0.859544 0.315158 0.192100
C38   C     C_R   0.350155 0.684264 0.329787 0.007249
C39   C     C_R   0.768233 0.060911 0.296446 -0.060982
H18   H     H_    0.706913 0.974901 0.332981 0.131753
C40   C     C_R   0.763055 0.034947 0.224051 -0.129424
H19   H     H_    0.698277 0.927692 0.205013 0.086153
C41   C     C_R   0.838606 0.146094 0.175953 0.034786
C42   C     C_R   0.926395 0.285655 0.200218 0.194008
C43   C     C_R   0.934491 0.309480 0.273773 -0.060833
H20   H     H_    0.000788 0.415559 0.294602 0.137127
C44   C     C_R   0.855539 0.197657 0.321068 0.076548
C45   C     C_R   0.903040 0.794489 0.294208 0.180375
C46   C     C_R   0.899916 0.797285 0.221095 -0.124461
H21   H     H_    0.967376 0.897283 0.195136 0.179897
C47   C     C_R   0.809215 0.676902 0.181126 -0.036389
C48   C     C_R   0.715440 0.551615 0.214997 -0.137417
H22   H     H_    0.639483 0.461435 0.183883 0.170074
C49   C     C_R   0.715272 0.543665 0.289113 0.141308
C50   C     C_R   0.817517 0.663078 0.329128 -0.009939
O14   O     O_R   0.895110 0.806860 0.920430 -0.435568
O15   O     O_R   0.872260 0.046970 0.925000 -0.524154
C51   C     C_R   0.805139 0.103095 0.894467 0.543533
O16   O     O_R   0.691430 0.085060 0.918550 -0.522862
O17   O     O_R   0.451490 0.822460 0.925250 -0.463164
C52   C     C_R   0.393630 0.699766 0.897343 0.625430
O18   O     O_R   0.413330 0.603360 0.920440 -0.521452
O19   O     O_R   0.676110 0.626250 0.926750 -0.493868
C53   C     C_R   0.773429 0.730335 0.890110 0.548956
O20   O     O_R   0.895350 0.809870 0.080950 -0.497536
O21   O     O_R   0.872490 0.049760 0.073800 -0.495423
C54   C     C_R   0.809357 0.108318 0.101827 0.597986
O22   O     O_R   0.691680 0.088070 0.079070 -0.508051
O23   O     O_R   0.451720 0.825250 0.074050 -0.478204
C55   C     C_R   0.458521 0.728523 0.110844 0.557623
O24   O     O_R   0.413580 0.606370 0.080960 -0.459736
O25   O     O_R   0.676340 0.629040 0.075550 -0.521855
C56   C     C_R   0.796685 0.697210 0.105906 0.584346
Cr4   Cr    Cr6+3 0.874790 0.925890 0.000070 1.066557
Cr5   Cr    Cr6+3 0.574120 0.948670 0.999300 1.084277
Cr6   Cr    Cr6+3 0.551420 0.625320 0.000920 1.062430
O26   O     O_3   0.666780 0.833290 0.000090 -0.335807
S1    S     S_3+6 0.295485 0.010959 0.808116 0.031451
O27   O     O_2   0.186215 0.990702 0.753629 -0.277386
O28   O     O_2   0.238672 0.880533 0.852822 -0.256913
O29   O     O_3   0.330326 0.146790 0.862525 -0.541460
H23   H     H_    0.244312 0.112668 0.892182 0.361006
N1    N     N_R   0.093012 0.562979 0.848039 0.093289
O30   O     O_R   0.110425 0.580302 0.916761 -0.257316
O31   O     O_R   0.964498 0.491228 0.823297 -0.379717
N2    N     N_R   0.005075 0.402361 0.152256 0.080160
O32   O     O_R   0.034333 0.381629 0.087681 -0.285345
O33   O     O_R   0.055333 0.531702 0.174381 -0.332620
S2    S     S_3+6 0.020007 0.959007 0.337301 0.023595
O34   O     O_2   0.953216 0.972598 0.404589 -0.260085
O35   O     O_2   0.157372 0.966678 0.355712 -0.254277
O36   O     O_3   0.057623 0.096281 0.283710 -0.538413
H24   H     H_    0.143996 0.115925 0.257298 0.361196
N3    N     N_R   0.612384 0.413505 0.322223 0.089691
O37   O     O_R   0.542201 0.415492 0.377776 -0.318020
O38   O     O_R   0.574067 0.293104 0.291158 -0.333073
S3    S     S_3+6 0.376603 0.313336 0.677548 0.019282
O39   O     O_2   0.445791 0.458222 0.645492 -0.296339
O40   O     O_2   0.473347 0.308881 0.732480 -0.317008
O41   O     O_3   0.345334 0.194302 0.612948 -0.516058
H25   H     H_    0.440101 0.220617 0.594218 0.367937

loop_
_geom_bond_atom_site_label_1
_geom_bond_atom_site_label_2
_geom_bond_distance
_ccdc_geom_bond_type
C9    C52   1.436392 S    
C49   C50   1.429035 A    
O17   C52   1.272656 A    
C10   C11   1.380530 A    
C20   C21   1.400986 A    
C16   C17   1.392316 A    
C49   N3    1.439670 S    
C45   C46   1.372490 A    
O15   C51   1.307004 A    
O4    Cr2   1.944879 S    
C42   C43   1.397591 A    
C29   C30   1.397468 A    
C25   H7    1.078498 S    
O8    Cr1   1.947532 S    
C9    C10   1.403142 A    
C33   H14   1.079700 S    
C40   C41   1.404363 A    
O4    C2    1.272182 A    
C17   C18   1.412632 A    
C18   C19   1.411653 A    
O15   Cr4   1.948958 S    
O2    C1    1.268224 A    
C27   C32   1.399731 A    
O17   Cr5   1.937634 S    
O24   Cr6   2.064163 S    
C43   C44   1.404970 A    
C30   C31   1.387077 A    
C13   C51   1.484661 S    
C5    O11   1.267164 A    
N1    O30   1.302023 A    
C15   C16   1.394669 A    
C21   C25   1.424542 A    
C37   C38   1.403126 A    
C33   C34   1.376150 A    
O23   C55   1.301294 A    
O16   Cr5   2.062536 S    
S1    O27   1.501672 D    
N1    O31   1.300838 A    
O6    C3    1.266465 A    
C47   C56   1.446295 S    
C7    H1    1.084371 S    
O23   Cr5   1.942323 S    
C13   C19   1.402293 A    
C18   C26   1.425122 A    
O22   Cr5   2.055807 S    
C1    C32   1.448529 S    
C35   C36   1.405061 A    
C31   H13   1.083230 S    
Cr3   O13   1.982910 S    
C20   C22   1.417326 A    
C52   O18   1.259938 A    
C29   C53   1.447956 S    
C27   C28   1.386874 A    
O29   H23   0.990765 S    
C17   H6    1.080965 S    
N2    O33   1.301785 A    
C14   C15   1.394004 A    
C28   C29   1.397238 A    
O1    Cr1   2.067173 S    
C14   H5    1.082673 S    
C31   C32   1.398791 A    
C40   H19   1.080691 S    
C4    C50   1.461225 S    
C48   C49   1.393003 A    
C36   H16   1.082752 S    
O10   Cr2   1.945972 S    
Cr1   O13   1.968556 S    
O1    C3    1.282653 A    
C41   C42   1.407695 A    
C39   C40   1.381616 A    
O18   Cr6   2.062065 S    
C8    N1    1.446072 S    
C51   O16   1.243190 A    
C43   H20   1.084480 S    
C8    C9    1.410317 A    
C48   H22   1.083756 S    
O12   Cr3   1.936672 S    
O20   Cr4   2.067826 S    
C15   H4    1.082165 S    
O14   C53   1.291721 A    
C36   C37   1.394145 A    
C34   C35   1.395393 A    
S3    O40   1.496393 D    
C22   C23   1.394807 A    
N3    O38   1.301717 A    
C11   H3    1.083579 S    
O21   C54   1.270731 A    
O7    Cr1   2.062676 S    
O8    C4    1.273007 A    
O19   C53   1.298546 A    
O14   Cr4   2.065721 S    
O12   C6    1.266729 A    
C20   C26   1.402952 A    
S1    O28   1.498490 D    
C47   C48   1.387624 A    
C16   S3    1.756889 S    
C6    C44   1.434045 S    
Cr2   O13   1.972887 S    
C3    C26   1.478467 S    
C46   C47   1.399495 A    
O41   H25   0.990736 S    
Cr4   O26   1.969767 S    
S3    O41   1.681500 S    
S2    O35   1.503800 D    
N3    O37   1.301489 A    
C55   O24   1.296158 A    
O21   Cr4   1.944715 S    
C27   H10   1.083522 S    
O19   Cr6   1.945914 S    
C23   H8    1.082124 S    
O25   Cr6   1.943073 S    
C28   H11   1.083399 S    
O9    Cr2   2.064191 S    
O2    Cr1   1.945309 S    
C35   C55   1.454814 S    
C23   C24   1.390431 A    
C39   H18   1.083653 S    
C42   N2    1.443221 S    
O6    Cr3   1.942284 S    
N2    O32   1.301226 A    
C24   S1    1.766264 S    
O11   Cr3   2.061047 S    
C2    O5    1.262854 A    
C41   C54   1.438290 S    
C5    C38   1.459074 S    
O25   C56   1.272821 A    
C14   C19   1.410079 A    
O20   C56   1.251829 A    
C45   S2    1.789515 S    
C34   H15   1.081223 S    
S2    O36   1.682663 S    
S3    O39   1.500201 D    
C39   C44   1.386384 A    
O5    Cr3   2.056706 S    
Cr6   O26   1.971379 S    
C22   H9    1.083310 S    
C30   H12   1.078002 S    
O36   H24   0.990562 S    
O7    C6    1.261302 A    
C54   O22   1.265770 A    
Cr5   O26   1.983363 S    
C33   C38   1.400840 A    
C2    C12   1.434261 S    
S1    O29   1.679925 S    
C7    C8    1.398386 A    
C37   H17   1.081135 S    
C45   C50   1.423086 A    
O3    Cr2   2.066344 S    
C24   C25   1.392830 A    
C4    O9    1.264218 A    
C11   C12   1.385651 A    
C46   H21   1.081734 S    
C10   H2    1.081906 S    
C13   C21   1.442658 A    
O10   C5    1.278772 A    
S2    O34   1.503083 D    
C1    O3    1.260503 A    
C7    C12   1.403187 A    
