data_mof_unit_32360.cif
_audit_creation_date              2012-10-26T20:48:46-0400
_audit_creation_method            fapswitch 2.2
_symmetry_space_group_name_H-M    P1
_symmetry_Int_Tables_number       1
_space_group_crystal_system       triclinic
_cell_length_a                    15.227872
_cell_length_b                    13.952965
_cell_length_c                    9.050221
_cell_angle_alpha                 90.144486
_cell_angle_beta                  92.771805
_cell_angle_gamma                 90.741913
_cell_volume                      1920.51605088

loop_
_atom_site_label
_atom_site_type_symbol
_atom_type_description
_atom_site_fract_x
_atom_site_fract_y
_atom_site_fract_z
_atom_type_partial_charge
C1    C     C_R   0.330143 0.499171 0.507852 0.539601
C2    C     C_R   0.559064 0.892817 0.593178 -0.129860
C3    C     C_R   0.499844 0.499948 0.220753 0.559594
C4    C     C_R   0.500260 0.500096 0.779253 0.563897
C5    C     C_R   0.499964 0.054054 0.501566 -0.062555
C6    C     C_R   0.499710 0.945142 0.501869 -0.058028
C7    C     C_1   0.500013 0.499977 0.065617 -0.014168
C8    C     C_1   0.500152 0.500174 0.934400 -0.014459
C9    C     C_R   0.097700 0.583456 0.561870 -0.118813
C10   C     C_R   0.904818 0.420459 0.514838 -0.120429
C11   C     C_R   0.904918 0.589480 0.458729 -0.119332
C12   C     C_R   0.669564 0.500413 0.488552 0.537969
C13   C     C_R   0.091435 0.424937 0.454924 -0.122887
C14   C     C_R   0.189733 0.580389 0.571940 -0.017338
C15   C     C_R   0.814173 0.415047 0.489595 -0.021868
C16   C     C_R   0.812881 0.588061 0.444815 -0.018082
C17   C     C_R   0.182045 0.416257 0.474270 -0.029912
C18   C     C_R   0.233419 0.497624 0.521125 0.001334
C19   C     C_R   0.766076 0.501106 0.471216 -0.003527
C20   C     C_R   0.048264 0.506314 0.502063 0.013485
C21   C     C_R   0.951176 0.506526 0.496464 0.013648
C22   C     C_R   0.237646 0.661533 0.647305 0.053054
C23   C     C_R   0.543418 0.209014 0.612170 0.358797
C24   C     C_R   0.293478 0.645100 0.772848 -0.061660
C25   C     C_R   0.341026 0.720969 0.840628 -0.062760
C26   C     C_R   0.332248 0.813892 0.785187 -0.093088
C27   C     C_R   0.275420 0.831184 0.662543 -0.110303
C28   C     C_R   0.228095 0.755448 0.593794 -0.060347
C29   C     C_R   0.775393 0.317987 0.460559 0.061955
C30   C     C_R   0.790762 0.242460 0.560722 -0.049337
C31   C     C_R   0.758482 0.150201 0.527281 -0.097232
C32   C     C_R   0.710988 0.132573 0.393769 -0.114963
C33   C     C_R   0.696298 0.206762 0.292776 -0.093654
C34   C     C_R   0.442285 0.790640 0.408159 0.352021
C35   C     C_R   0.729220 0.298773 0.324929 -0.052583
C36   C     C_R   0.769128 0.675890 0.387342 0.058849
C37   C     C_R   0.712804 0.671513 0.259446 -0.052699
C38   C     C_R   0.671532 0.754141 0.205513 -0.075286
C39   C     C_R   0.687502 0.842031 0.276735 -0.106487
C40   C     C_R   0.745064 0.847472 0.401667 -0.105902
C41   C     C_R   0.785876 0.764892 0.456761 -0.053385
C42   C     C_R   0.215889 0.317186 0.462699 0.069685
C43   C     C_R   0.194287 0.261072 0.336324 -0.048639
C44   C     C_R   0.212203 0.163017 0.335591 -0.076074
C45   C     C_R   0.458265 0.206706 0.386964 0.355052
C46   C     C_R   0.252032 0.120102 0.460474 -0.103499
C47   C     C_R   0.273909 0.175034 0.586511 -0.107037
C48   C     C_R   0.254959 0.272821 0.588509 -0.050631
C49   C     C_R   0.557186 0.792082 0.593418 0.353936
C50   C     C_R   0.540864 0.108281 0.617102 -0.124672
C51   C     C_R   0.440130 0.891248 0.410340 -0.132009
C52   C     C_R   0.460324 0.106083 0.384271 -0.127245
Cl1   Cl    Cl    0.609468 0.266138 0.751431 -0.599587
Cl2   Cl    Cl    0.368080 0.731596 0.283094 -0.625585
Cl3   Cl    Cl    0.398607 0.260417 0.239275 -0.597028
Cl4   Cl    Cl    0.630720 0.734625 0.718530 -0.617688
Cu1   Cu    Cu3+1 0.500000 0.596430 0.500000 1.090019
Cu2   Cu    Cu3+1 0.500000 0.403570 0.500000 1.094172
H1    H     H_    0.064605 0.645075 0.605099 0.107098
H2    H     H_    0.384968 0.707604 0.935718 0.163108
H3    H     H_    0.369401 0.872508 0.837288 0.123785
H4    H     H_    0.268597 0.903203 0.620062 0.101956
H5    H     H_    0.185285 0.769674 0.497509 0.125145
H6    H     H_    0.827171 0.255129 0.664843 0.121938
H7    H     H_    0.769639 0.092520 0.605414 0.111204
H8    H     H_    0.684947 0.061635 0.368889 0.107704
H9    H     H_    0.659663 0.192899 0.189284 0.146035
H10   H     H_    0.718585 0.355249 0.244349 0.109224
H11   H     H_    0.700297 0.603968 0.202491 0.095718
H12   H     H_    0.939671 0.355124 0.541207 0.100334
H13   H     H_    0.627236 0.750011 0.108416 0.154171
H14   H     H_    0.655260 0.905825 0.235035 0.113050
H15   H     H_    0.757572 0.915458 0.456893 0.101969
H16   H     H_    0.829562 0.770079 0.554582 0.123523
H17   H     H_    0.162088 0.292966 0.239453 0.112294
H18   H     H_    0.195271 0.120332 0.238087 0.117284
H19   H     H_    0.266416 0.044411 0.459109 0.101558
H20   H     H_    0.304545 0.141560 0.683321 0.117979
H21   H     H_    0.268981 0.313607 0.689096 0.114357
H22   H     H_    0.940688 0.654713 0.434073 0.105440
H23   H     H_    0.053894 0.364851 0.408144 0.102082
H24   H     H_    0.572640 0.073833 0.711631 0.133702
H25   H     H_    0.390603 0.925773 0.340486 0.126070
H26   H     H_    0.429989 0.069896 0.288972 0.135442
H27   H     H_    0.608281 0.928649 0.664045 0.127080
H28   H     H_    0.301033 0.573374 0.816769 0.091805
N1    N     N_R   0.500000 0.258690 0.500000 -0.209268
N2    N     N_R   0.500000 0.741310 0.500000 -0.201092
O1    O     O_R   0.371460 0.581430 0.500010 -0.450791
O2    O     O_R   0.628540 0.418570 0.499990 -0.472563
O3    O     O_R   0.628540 0.581430 0.499990 -0.456134
O4    O     O_R   0.371460 0.418570 0.500010 -0.486064
O5    O     O_R   0.500000 0.581420 0.288390 -0.474751
O6    O     O_R   0.500000 0.418580 0.711610 -0.448152
O7    O     O_R   0.500000 0.581420 0.711610 -0.470742
O8    O     O_R   0.500000 0.418580 0.288390 -0.447929

loop_
_geom_bond_atom_site_label_1
_geom_bond_atom_site_label_2
_ccdc_geom_bond_type
C30   H6    S    
C14   C18   A    
C12   O3    A    
C4    C8    S    
Cu2   N1    S    
C7    C8    T    
C15   C19   A    
C33   H9    S    
C1    C18   S    
C29   C30   A    
Cu1   O1    S    
C48   H21   S    
C12   O2    A    
C36   C37   A    
C27   H4    S    
C26   H3    S    
C37   H11   S    
C10   C15   A    
C5    C6    S    
Cu1   O5    S    
C13   H23   S    
C40   H15   S    
C2    H27   S    
C44   H18   S    
C52   H26   S    
Cu2   O8    S    
C17   C42   S    
C41   H16   S    
C46   C47   A    
C47   C48   A    
C39   H14   S    
C5    C52   A    
C23   Cl1   S    
C3    O8    A    
C25   H2    S    
C6    C51   A    
C23   N1    A    
C49   N2    A    
C36   C41   A    
C2    C6    A    
C44   C46   A    
C15   C29   S    
C10   C21   A    
C43   H17   S    
C38   C39   A    
C24   C25   A    
C39   C40   A    
C9    C14   A    
C23   C50   A    
C42   C48   A    
C45   C52   A    
C25   C26   A    
C11   C21   A    
C34   C51   A    
C9    H1    S    
C43   C44   A    
C37   C38   A    
C2    C49   A    
C4    O7    A    
C11   C16   A    
C9    C20   A    
C31   C32   A    
C17   C18   A    
C26   C27   A    
C3    O5    A    
C34   N2    A    
Cu2   O2    S    
C4    O6    A    
C10   H12   S    
C40   C41   A    
C34   Cl2   S    
C1    O4    A    
C22   C24   A    
C5    C50   A    
C42   C43   A    
C51   H25   S    
C50   H24   S    
C32   H8    S    
C31   H7    S    
C38   H13   S    
C1    O1    A    
Cu1   O3    S    
C13   C20   A    
C45   N1    A    
C46   H19   S    
C49   Cl4   S    
C29   C35   A    
C3    C7    S    
Cu1   N2    S    
C13   C17   A    
C32   C33   A    
C14   C22   S    
Cu2   O6    S    
C16   C36   S    
Cu1   Cu2   S    
C30   C31   A    
Cu2   O4    S    
C35   H10   S    
C16   C19   A    
C12   C19   S    
C33   C35   A    
C11   H22   S    
C28   H5    S    
C20   C21   S    
C45   Cl3   S    
Cu1   O7    S    
C27   C28   A    
C22   C28   A    
C47   H20   S    
C24   H28   S    
