data_mof_unit_44207.cif
_audit_creation_date              2012-12-10T17:17:53-0500
_audit_creation_method            fapswitch 2.2
_symmetry_space_group_name_H-M    P1
_symmetry_Int_Tables_number       1
_space_group_crystal_system       triclinic
_cell_length_a                    15.105062
_cell_length_b                    15.594107
_cell_length_c                    9.629411
_cell_angle_alpha                 90.254818
_cell_angle_beta                  89.288176
_cell_angle_gamma                 89.978989
_cell_volume                      2268.00963301

loop_
_atom_site_label
_atom_site_type_symbol
_atom_type_description
_atom_site_fract_x
_atom_site_fract_y
_atom_site_fract_z
_atom_type_partial_charge
C1    C     C_R   0.386367 0.876177 0.500498 0.761096
C2    C     C_R   0.377995 0.115647 0.500641 0.783050
C3    C     C_R   0.876830 0.385608 0.500470 0.782249
C4    C     C_R   0.887964 0.624847 0.501270 0.760185
C5    C     C_R   0.308057 0.242016 0.403611 -0.190289
C6    C     C_R   0.238030 0.823836 0.457290 -0.177308
C7    C     C_R   0.743262 0.679906 0.443106 -0.175793
C8    C     C_R   0.808699 0.257238 0.406198 -0.195951
C9    C     C_R   0.677680 0.741650 0.440152 -0.190454
C10   C     C_R   0.745930 0.193071 0.405687 -0.222942
C11   C     C_R   0.244453 0.305431 0.402417 -0.219366
C12   C     C_R   0.171691 0.762933 0.458107 -0.198976
C13   C     C_R   0.694056 0.823600 0.491393 -0.045549
C14   C     C_R   0.676328 0.193863 0.501885 -0.069610
C15   C     C_R   0.176347 0.306152 0.501457 -0.080851
C16   C     C_R   0.190728 0.678837 0.493884 -0.040442
C17   C     C_R   0.662418 0.004404 0.141151 -0.241255
C18   C     C_R   0.162310 0.498733 0.141673 -0.247107
C19   C     C_R   0.742531 0.014775 0.069430 0.139600
C20   C     C_R   0.242978 0.497644 0.069929 0.167878
C21   C     C_R   0.741976 0.022381 0.925734 0.176809
C22   C     C_R   0.243232 0.497868 0.926341 0.143317
C23   C     C_R   0.662719 0.009782 0.854975 -0.221948
C24   C     C_R   0.163349 0.499542 0.854807 -0.238200
C25   C     C_R   0.579967 0.003812 0.924350 0.172707
C26   C     C_R   0.080155 0.499713 0.924232 0.188612
C27   C     C_R   0.579887 0.002927 0.073383 0.184779
C28   C     C_R   0.079942 0.499489 0.073433 0.183688
C29   C     C_R   0.424087 0.997267 0.075557 -0.044206
C30   C     C_R   0.924017 0.499991 0.075519 -0.039219
C31   C     C_R   0.615710 0.121265 0.500270 0.759391
C32   C     C_R   0.622330 0.885441 0.497935 0.742633
C33   C     C_R   0.119359 0.617366 0.498621 0.742588
C34   C     C_R   0.115479 0.378538 0.500011 0.762872
C35   C     C_R   0.424236 0.996997 0.928225 -0.055364
C36   C     C_R   0.924111 0.499803 0.928140 -0.058536
C37   C     C_R   0.211200 0.096012 0.676727 0.132942
C38   C     C_R   0.429785 0.685220 0.575900 0.044171
C39   C     C_R   0.925114 0.810762 0.613317 0.085532
C40   C     C_R   0.706702 0.407529 0.672195 0.117158
C41   C     C_R   0.151569 0.101646 0.789288 0.209425
C42   C     C_R   0.450361 0.597091 0.571125 0.235918
C43   C     C_R   0.947738 0.898164 0.617045 0.262949
C44   C     C_R   0.643834 0.403003 0.781624 0.253890
C45   C     C_R   0.887825 0.959294 0.571093 -0.207933
C46   C     C_R   0.588656 0.332166 0.791222 -0.185405
C47   C     C_R   0.095347 0.172156 0.800010 -0.240276
C48   C     C_R   0.385852 0.537740 0.537401 -0.188310
C49   C     C_R   0.802979 0.934859 0.536200 -0.247502
C50   C     C_R   0.595161 0.266483 0.694430 -0.243407
C51   C     C_R   0.099316 0.236430 0.701018 -0.220271
C52   C     C_R   0.299686 0.564594 0.517324 -0.314835
C53   C     C_R   0.779942 0.847465 0.528212 0.094993
C54   C     C_R   0.666123 0.263143 0.597045 0.075108
C55   C     C_R   0.168428 0.238833 0.600065 0.076784
C56   C     C_R   0.278159 0.652718 0.516084 0.089747
C57   C     C_R   0.229381 0.169605 0.593587 0.021831
C58   C     C_R   0.345237 0.715607 0.532712 0.026126
C59   C     C_R   0.844738 0.783130 0.550225 0.000468
C60   C     C_R   0.726641 0.332838 0.590886 0.028731
C61   C     C_R   0.303146 0.175392 0.499960 -0.105454
C62   C     C_R   0.323474 0.803692 0.501624 -0.072566
C63   C     C_R   0.825061 0.697072 0.504146 -0.074962
C64   C     C_R   0.801839 0.325873 0.499579 -0.097582
Cu1   Cu    Cu3+1 0.499990 0.000000 0.640660 0.920646
Cu2   Cu    Cu3+1 0.999990 0.500000 0.640660 0.916242
Cu3   Cu    Cu3+1 0.500010 0.000000 0.359340 0.936905
Cu4   Cu    Cu3+1 0.000010 0.500000 0.359340 0.938356
H1    H     H_    0.362866 0.246161 0.330186 0.166568
H2    H     H_    0.221616 0.887698 0.423077 0.137551
H3    H     H_    0.729118 0.617406 0.399347 0.138744
H4    H     H_    0.864593 0.251971 0.334928 0.154106
H5    H     H_    0.669997 0.003906 0.745892 0.214297
H6    H     H_    0.170801 0.500397 0.745256 0.215958
H7    H     H_    0.361863 0.994634 0.876348 0.120467
H8    H     H_    0.861582 0.499283 0.876052 0.124604
H9    H     H_    0.905124 0.026691 0.569930 0.138593
H10   H     H_    0.536763 0.330259 0.869864 0.166852
H11   H     H_    0.044186 0.174669 0.879769 0.147040
H12   H     H_    0.401505 0.469955 0.533718 0.168705
H13   H     H_    0.756615 0.984961 0.509695 0.113370
H14   H     H_    0.543132 0.219422 0.698961 0.192836
H15   H     H_    0.046441 0.282613 0.706178 0.192042
H16   H     H_    0.250572 0.515573 0.498511 0.134001
H17   H     H_    0.614115 0.725355 0.396560 0.143108
H18   H     H_    0.753775 0.140373 0.333197 0.141328
H19   H     H_    0.250677 0.356392 0.326987 0.158286
H20   H     H_    0.105279 0.781338 0.429076 0.134442
H21   H     H_    0.361623 0.995098 0.131632 0.133884
H22   H     H_    0.861513 0.499955 0.131621 0.141314
H23   H     H_    0.668459 0.998953 0.249970 0.205535
H24   H     H_    0.167996 0.499467 0.250778 0.207206
N1    N     N_R   0.501200 1.000000 0.147910 -0.187584
N2    N     N_R   0.001200 0.500000 0.147910 -0.190064
N3    N     N_R   0.501270 0.000000 0.852040 -0.189362
N4    N     N_R   0.001270 0.500000 0.852040 -0.191190
O1    O     O_R   0.409820 0.909830 0.618810 -0.595201
O2    O     O_R   0.409820 0.090170 0.618810 -0.583655
O3    O     O_R   0.909820 0.409830 0.618810 -0.586308
O4    O     O_R   0.909820 0.590170 0.618810 -0.603678
O5    O     O_R   0.409840 0.909830 0.381240 -0.571011
O6    O     O_R   0.409840 0.090170 0.381240 -0.576054
O7    O     O_R   0.909840 0.409830 0.381240 -0.575279
O8    O     O_R   0.909840 0.590170 0.381240 -0.567798
O9    O     O_R   0.590170 0.090170 0.618760 -0.613045
O10   O     O_R   0.590170 0.909830 0.618760 -0.581772
O11   O     O_R   0.090170 0.590170 0.618760 -0.592248
O12   O     O_R   0.090170 0.409830 0.618760 -0.607426
O13   O     O_R   0.590190 0.090180 0.381190 -0.589857
O14   O     O_R   0.590190 0.909820 0.381190 -0.596994
O15   O     O_R   0.090190 0.590180 0.381190 -0.591934
O16   O     O_R   0.090190 0.409820 0.381190 -0.592945
N5    N     N_3   0.822630 0.040555 0.850793 -0.534860
H25   H     H_    0.853693 0.092342 0.899271 0.212685
H26   H     H_    0.806477 0.064895 0.753458 0.198045
N6    N     N_3   0.326006 0.498010 0.852895 -0.566960
H27   H     H_    0.331112 0.556728 0.801869 0.235562
H28   H     H_    0.325341 0.448453 0.779404 0.222277
N7    N     N_3   0.233690 0.011468 0.630510 -0.589565
H29   H     H_    0.284076 0.988489 0.691880 0.258618
H30   H     H_    0.252444 0.011117 0.526090 0.191338
N8    N     N_3   0.494973 0.740579 0.630756 -0.596907
H31   H     H_    0.467425 0.774953 0.713990 0.259108
H32   H     H_    0.511550 0.780248 0.549707 0.221332
N9    N     N_3   0.982318 0.753958 0.683824 -0.544190
H33   H     H_    0.010872 0.716400 0.607750 0.222611
H34   H     H_    0.945300 0.717684 0.754584 0.257303
N10   N     N_3   0.732801 0.491140 0.627604 -0.612414
H35   H     H_    0.747179 0.491626 0.521397 0.205831
H36   H     H_    0.787319 0.509208 0.684556 0.249549
N11   N     N_3   0.142491 0.030831 0.883415 -0.549366
H37   H     H_    0.200923 0.027175 0.940095 0.198300
H38   H     H_    0.091423 0.042391 0.955411 0.223831
N12   N     N_3   0.537444 0.566742 0.600777 -0.572462
H39   H     H_    0.580463 0.590696 0.524748 0.236047
H40   H     H_    0.556576 0.592182 0.696284 0.247208
N13   N     N_3   0.031745 0.924174 0.670861 -0.506846
H41   H     H_    0.080783 0.900095 0.604037 0.231216
H42   H     H_    0.037275 0.990839 0.666694 0.234472
N14   N     N_3   0.632754 0.470651 0.882373 -0.599439
H43   H     H_    0.676895 0.521034 0.864620 0.226224
H44   H     H_    0.568591 0.495017 0.874151 0.233971
N15   N     N_3   0.825225 0.016786 0.141799 -0.558788
H45   H     H_    0.816773 0.996234 0.244275 0.209366
H46   H     H_    0.846174 0.080598 0.146298 0.198518
N16   N     N_3   0.325731 0.496984 0.142199 -0.555042
H47   H     H_    0.315325 0.491371 0.249150 0.200025
H48   H     H_    0.355984 0.556495 0.126172 0.238465

loop_
_geom_bond_atom_site_label_1
_geom_bond_atom_site_label_2
_ccdc_geom_bond_type
C58   C62   A    
Cu2   Cu4   S    
C6    H2    S    
C40   C60   A    
C51   H15   S    
C31   O13   A    
C34   O16   A    
C13   C32   S    
C17   H23   S    
Cu4   O7    S    
C47   H11   S    
C14   C31   S    
C30   H22   S    
C24   H6    S    
C1    C62   S    
C29   H21   S    
C53   C59   A    
C54   C60   A    
C3    C64   S    
N13   H42   S    
C4    C63   S    
C35   H7    S    
C50   C54   A    
C32   O14   A    
C39   N9    S    
C22   C24   A    
Cu2   N4    S    
C19   C21   A    
N14   H44   S    
Cu1   O2    S    
C5    C11   A    
C7    H3    S    
C2    O6    A    
Cu2   O4    S    
N15   H45   S    
C40   N10   S    
N6    H27   S    
C18   C20   A    
C28   N2    A    
Cu4   O16   S    
C49   H13   S    
C52   H16   S    
C9    C13   A    
C5    H1    S    
C36   H8    S    
C9    H17   S    
C38   C58   A    
C11   C15   A    
Cu3   O13   S    
C12   C16   A    
C11   H19   S    
Cu1   Cu3   S    
C33   O11   A    
C33   O15   A    
C45   C49   A    
C56   C58   A    
Cu2   O11   S    
C15   C34   S    
C13   C53   A    
C2    C61   S    
C22   N6    S    
C44   N14   S    
C32   O10   A    
N10   H35   S    
C31   O9    A    
C23   H5    S    
Cu1   O9    S    
C29   N1    A    
C44   C46   A    
N16   H48   S    
N7    H30   S    
C21   C23   A    
C26   N4    A    
C8    H4    S    
C12   H20   S    
Cu1   N3    S    
C17   C27   A    
C50   H14   S    
C18   C28   A    
N14   H43   S    
C21   N5    S    
C10   C14   A    
C1    O1    A    
C41   N11   S    
C39   C43   A    
Cu4   N2    S    
Cu4   O15   S    
C15   C55   A    
Cu2   O3    S    
C16   C56   A    
N12   H40   S    
C3    O3    A    
C16   C33   S    
C36   N4    A    
Cu3   O14   S    
C37   N7    S    
C48   C52   A    
C39   C59   A    
C41   C47   A    
C5    C61   A    
C42   C48   A    
N9    H34   S    
C43   C45   A    
C7    C63   A    
C38   N8    S    
N16   H47   S    
C8    C64   A    
C14   C54   A    
C20   C22   A    
C25   N3    A    
C55   C57   A    
N9    H33   S    
C20   N16   S    
C27   N1    A    
N8    H32   S    
N11   H37   S    
C1    O5    A    
Cu1   O10   S    
Cu3   O5    S    
C46   H10   S    
N5    H25   S    
C3    O7    A    
N15   H46   S    
C46   C50   A    
C10   H18   S    
C19   N15   S    
C26   C28   A    
Cu4   O8    S    
Cu2   O12   S    
N11   H38   S    
N10   H36   S    
C47   C51   A    
N7    H29   S    
C57   C61   A    
N12   H39   S    
C35   N3    A    
C25   C27   A    
N13   H41   S    
C29   C35   A    
C59   C63   A    
C30   C36   A    
C60   C64   A    
C18   H24   S    
C6    C62   A    
C4    O4    A    
C34   O12   A    
C30   N2    A    
C6    C12   A    
C24   C26   A    
C48   H12   S    
C49   C53   A    
C4    O8    A    
C17   C19   A    
N6    H28   S    
C42   N12   S    
C43   N13   S    
C51   C55   A    
C23   C25   A    
C37   C41   A    
Cu1   O1    S    
C38   C42   A    
C7    C9    A    
C40   C44   A    
C2    O2    A    
C8    C10   A    
Cu3   N1    S    
C45   H9    S    
N8    H31   S    
C37   C57   A    
C52   C56   A    
Cu3   O6    S    
N5    H26   S    
