data_mof_unit_44731.cif
_audit_creation_date              2013-03-05T15:41:38-0500
_audit_creation_method            fapswitch 2.2
_symmetry_space_group_name_H-M    P1
_symmetry_Int_Tables_number       1
_space_group_crystal_system       triclinic
_cell_length_a                    7.90389
_cell_length_b                    8.547428
_cell_length_c                    15.700362
_cell_angle_alpha                 91.231864
_cell_angle_beta                  86.058467
_cell_angle_gamma                 93.1671
_cell_volume                      1056.39211873

loop_
_atom_site_label
_atom_site_type_symbol
_atom_site_description
_atom_site_fract_x
_atom_site_fract_y
_atom_site_fract_z
_atom_type_partial_charge
O1    O     O_R   0.389240 0.738570 0.505550 -0.618650
O2    O     O_R   0.678400 0.711630 0.491050 -0.597979
C1    C     C_R   0.544932 0.793971 0.497919 0.946251
O3    O     O_R   0.355360 0.513470 0.630110 -0.573044
O4    O     O_R   0.644510 0.486530 0.615610 -0.587786
C2    C     C_R   0.502402 0.500926 0.661201 0.878101
Zn1   Zn    Zn3+2 0.306930 0.517990 0.509680 1.117547
Zn2   Zn    Zn3+2 0.693070 0.482010 0.490320 1.109287
O5    O     O_R   0.321600 0.288370 0.508950 -0.594086
O6    O     O_R   0.610760 0.261430 0.494450 -0.621483
O7    O     O_R   0.355490 0.513470 0.384390 -0.586570
O8    O     O_R   0.644640 0.486530 0.369890 -0.582313
C3    C     C_R   0.455074 0.206030 0.502127 0.932089
C4    C     C_R   0.497970 0.500231 0.338873 0.870824
C5    C     C_3   0.413944 0.671430 0.954807 0.490608
C6    C     C_3   0.719395 0.556900 0.943426 0.006834
C7    C     C_3   0.715910 0.541763 0.048201 -0.292952
H1    H     H_    0.492421 0.782066 0.076097 0.247609
C8    C     C_1   0.495964 0.509012 0.250312 -0.035260
C9    C     C_3   0.526891 0.533375 0.916542 -0.100962
C10   C     C_3   0.426723 0.672696 0.054226 -0.426127
C11   C     C_3   0.520214 0.528604 0.083078 0.035942
C12   C     C_3   0.423772 0.380298 0.048583 -0.325708
C13   C     C_3   0.444848 0.374547 0.951269 -0.362310
C14   C     C_1   0.502868 0.518527 0.175041 0.031793
C15   C     C_1   0.519014 0.521992 0.824795 0.063248
C16   C     C_1   0.510468 0.510941 0.749817 0.023772
H2    H     H_    0.320381 0.344581 0.924634 0.243313
H3    H     H_    0.515745 0.272132 0.930332 0.286154
H4    H     H_    0.286932 0.382378 0.069724 0.241747
H5    H     H_    0.298160 0.674370 0.087787 0.250100
H6    H     H_    0.461211 0.269590 0.075545 0.243629
C17   C     C_2   0.568462 0.957593 0.496750 -0.315906
H7    H     H_    0.698172 0.007692 0.490410 0.207852
C18   C     C_2   0.431553 0.042406 0.503367 -0.313653
H8    H     H_    0.301843 0.992306 0.509715 0.210057
N1    N     N_2   0.950340 0.457950 0.477370 0.029591
N2    N     N_2   0.049660 0.542050 0.522630 0.021919
N3    N     N_R   0.235232 0.641609 0.934871 0.227173
O9    O     O_R   0.138511 0.536010 0.975298 -0.416374
O10   O     O_R   0.167261 0.729974 0.881488 -0.220320
N4    N     N_R   0.021636 0.417417 0.397476 0.305837
O11   O     O_R   0.008264 0.509193 0.333534 -0.344331
O12   O     O_R   0.064019 0.274107 0.382409 -0.385536
N5    N     N_R   0.978576 0.581441 0.602655 0.313538
O13   O     O_R   0.989138 0.486867 0.665596 -0.302603
O14   O     O_R   0.939179 0.725237 0.618987 -0.326163
N6    N     N_R   0.469438 0.827548 0.920073 0.249640
O15   O     O_R   0.494498 0.844889 0.837901 -0.307225
O16   O     O_R   0.440725 0.953244 0.966023 -0.347896
C19   C     C_2   0.831183 0.432656 0.895168 0.974114
O17   O     O_2   0.950274 0.475038 0.845748 -0.462309
O18   O     O_R   0.796855 0.271408 0.902897 -0.749732
H9    H     H_    0.879500 0.206595 0.866897 0.393103
N7    N     N_R   0.787602 0.714048 0.911200 0.251729
O19   O     O_R   0.816382 0.733779 0.829246 -0.236540
O20   O     O_R   0.788278 0.841244 0.958248 -0.296602
C20   C     C_2   0.809521 0.682409 0.092917 1.070733
O21   O     O_2   0.959324 0.714939 0.073168 -0.506499
O22   O     O_R   0.729500 0.771171 0.158354 -0.812338
H10   H     H_    0.807284 0.857634 0.181752 0.368817
C21   C     C_2   0.805988 0.397005 0.078191 0.933938
O23   O     O_2   0.752226 0.263551 0.062728 -0.549918
O24   O     O_R   0.947115 0.416302 0.127693 -0.741817
H11   H     H_    0.991384 0.313075 0.144608 0.364105

loop_
_geom_bond_atom_site_label_1
_geom_bond_atom_site_label_2
_geom_bond_distance
_ccdc_geom_bond_type
O4    Zn2   1.978093 S    
C21   O24   1.403133 S    
N7    O19   1.304089 A    
C3    C18   1.401020 S    
N1    N2    1.276830 D    
C7    C21   1.558208 S    
H1    C10   1.103878 S    
C13   H2    1.110130 S    
C2    C16   1.397719 S    
C6    C19   1.568294 S    
Zn2   O8    1.956374 S    
C7    C20   1.556388 S    
C6    C9    1.607636 S    
C12   H6    1.107961 S    
N1    N4    1.384461 S    
N6    O16   1.302832 A    
O2    C1    1.297287 A    
C6    N7    1.504177 S    
N3    O10   1.302116 A    
O1    Zn1   1.961140 S    
O18   H9    1.014309 S    
O24   H11   1.014107 S    
Zn1   O7    1.978093 S    
C10   H5    1.112688 S    
C5    N3    1.475030 S    
C15   C16   1.185184 T    
C21   O23   1.220407 D    
N4    O12   1.300238 A    
C5    N6    1.484637 S    
O3    Zn1   1.956375 S    
O4    C2    1.300017 A    
Zn2   O6    1.961140 S    
N6    O15   1.302111 A    
C17   C18   1.332398 D    
Zn1   N2    2.050867 S    
O8    C4    1.299934 A    
C17   H7    1.087951 S    
N7    O20   1.301164 A    
C5    C9    1.600778 S    
C8    C14   1.183635 T    
O7    C4    1.300647 A    
N4    O11   1.300759 A    
C1    C17   1.400988 S    
C12   C13   1.525521 S    
C20   O22   1.400474 S    
C19   O17   1.222002 D    
C12   H4    1.110313 S    
N5    O13   1.300048 A    
C5    C10   1.570867 S    
C11   C14   1.444909 S    
O3    C2    1.301731 A    
Zn2   N1    2.050867 S    
N5    O14   1.300433 A    
N3    O9    1.297563 A    
Zn1   O5    1.972209 S    
C9    C13   1.564202 S    
C13   H3    1.097665 S    
C6    C7    1.651092 S    
N2    N5    1.383212 S    
O5    C3    1.297309 A    
C19   O18   1.396168 S    
C20   O21   1.221570 D    
C10   C11   1.561621 S    
C4    C8    1.395288 S    
O6    C3    1.292531 A    
C11   C12   1.549752 S    
O2    Zn2   1.972210 S    
C7    C11   1.603724 S    
C9    C15   1.447029 S    
O22   H10   1.014037 S    
O1    C1    1.292545 A    
C18   H8    1.087953 S    
