data_mof_unit_29154.cif
_audit_creation_date              2012-12-11T14:33:48-0500
_audit_creation_method            fapswitch 2.2
_symmetry_space_group_name_H-M    P1
_symmetry_Int_Tables_number       1
_space_group_crystal_system       triclinic
_cell_length_a                    14.106159
_cell_length_b                    14.202323
_cell_length_c                    27.303478
_cell_angle_alpha                 90.559608
_cell_angle_beta                  89.851894
_cell_angle_gamma                 120.080743
_cell_volume                      4733.04436309

loop_
_atom_site_label
_atom_site_type_symbol
_atom_type_description
_atom_site_fract_x
_atom_site_fract_y
_atom_site_fract_z
_atom_type_partial_charge
C1    C     C_R   0.234781 0.787689 0.568797 0.530506
C2    C     C_R   0.214219 0.450967 0.569652 0.534121
C3    C     C_R   0.550336 0.764222 0.569453 0.529467
C4    C     C_3   0.640440 0.713610 0.792540 0.438900
C5    C     C_3   0.276759 0.935284 0.791598 0.440555
C6    C     C_3   0.081154 0.362787 0.794615 0.462646
C7    C     C_3   0.648240 0.717409 0.734849 -0.019723
C8    C     C_3   0.272356 0.943256 0.734092 -0.021597
C9    C     C_3   0.086349 0.377491 0.737215 -0.041495
C10   C     C_1   0.680306 0.841445 0.865659 0.030829
C11   C     C_1   0.152052 0.838660 0.863664 0.037687
C12   C     C_1   0.159108 0.306976 0.863609 0.075307
C13   C     C_1   0.615521 0.804541 0.661442 0.002675
C14   C     C_1   0.190406 0.822941 0.658611 0.015919
C15   C     C_1   0.192459 0.389319 0.661523 0.072188
C16   C     C_1   0.592665 0.791487 0.618432 0.030459
C17   C     C_1   0.204946 0.808578 0.616273 0.036028
C18   C     C_1   0.200464 0.411481 0.618680 0.052478
C19   C     C_R   0.107406 0.222780 0.087718 0.581868
C20   C     C_R   0.778233 0.885199 0.087987 0.579689
C21   C     C_R   0.115148 0.893656 0.087944 0.614642
C22   C     C_R   0.107331 0.220735 0.951532 0.559552
C23   C     C_R   0.777338 0.884952 0.952145 0.555534
C24   C     C_R   0.114400 0.892197 0.951675 0.556231
C25   C     C_R   0.639845 0.902862 0.364516 0.039267
C26   C     C_R   0.095647 0.732537 0.362494 0.041155
C27   C     C_R   0.265080 0.359927 0.364062 0.037732
C28   C     C_R   0.658641 0.917740 0.313382 0.010213
C29   C     C_R   0.082203 0.736676 0.311464 0.022394
C30   C     C_R   0.260609 0.340582 0.312831 0.010118
C31   C     C_R   0.687636 0.939127 0.210180 0.044265
C32   C     C_R   0.059037 0.745211 0.208453 -0.038268
C33   C     C_R   0.253007 0.313217 0.209360 0.044020
C34   C     C_R   0.232917 0.787718 0.431613 0.545653
C35   C     C_R   0.211161 0.443933 0.431961 0.578129
C36   C     C_R   0.555215 0.766391 0.431841 0.572491
C37   C     C_R   0.689019 0.023524 0.238936 0.145754
C38   C     C_R   0.977165 0.657642 0.236438 0.115106
C39   C     C_R   0.336802 0.311690 0.237367 0.148066
C40   C     C_R   0.675166 0.012605 0.289676 0.410584
C41   C     C_R   0.988634 0.655692 0.287007 0.514411
C42   C     C_R   0.339958 0.325163 0.288244 0.409716
C43   C     C_R   0.712753 0.951048 0.159539 0.045893
C44   C     C_R   0.045440 0.764492 0.158595 0.024405
C45   C     C_R   0.240334 0.289934 0.158453 0.047654
C46   C     C_R   0.716453 0.865994 0.133692 -0.015535
C47   C     C_R   0.133501 0.851013 0.133473 0.035898
C48   C     C_R   0.149772 0.284546 0.133537 -0.015107
C49   C     C_R   0.631707 0.727843 0.358018 0.385799
C50   C     C_R   0.271951 0.900283 0.357930 0.397016
C51   C     C_R   0.094039 0.362362 0.359308 0.383991
C52   C     C_R   0.642802 0.737553 0.307493 -0.039323
C53   C     C_R   0.263066 0.901245 0.307307 -0.035289
C54   C     C_R   0.092868 0.352508 0.308683 -0.042029
C55   C     C_R   0.655655 0.832383 0.284784 -0.147976
C56   C     C_R   0.167792 0.819276 0.283722 -0.157635
C57   C     C_R   0.176606 0.342133 0.285046 -0.147878
C58   C     C_R   0.635469 0.651136 0.279085 0.448572
C59   C     C_R   0.350677 0.979937 0.279673 0.435540
C60   C     C_R   0.012589 0.359236 0.281143 0.444364
C61   C     C_R   0.640660 0.657953 0.228636 0.411605
C62   C     C_R   0.344054 0.978251 0.229177 0.411441
C63   C     C_R   0.014927 0.356139 0.230620 0.409676
C64   C     C_R   0.659195 0.753503 0.205545 -0.034976
C65   C     C_R   0.247285 0.902180 0.205334 -0.023931
C66   C     C_R   0.093124 0.339182 0.206571 -0.033036
C67   C     C_3   0.534054 0.810061 0.741447 -0.170134
C68   C     C_3   0.190712 0.738923 0.736300 -0.202388
C69   C     C_3   0.291442 0.446206 0.741365 -0.204508
C70   C     C_R   0.667218 0.841814 0.233480 -0.132364
C71   C     C_R   0.157916 0.821678 0.232440 -0.117604
C72   C     C_R   0.174664 0.331761 0.233637 -0.133350
C73   C     C_R   0.676831 0.764420 0.155363 0.386522
C74   C     C_R   0.236388 0.909954 0.155272 0.381692
C75   C     C_R   0.086143 0.322146 0.156259 0.389095
C76   C     C_R   0.616794 0.803343 0.385567 0.019728
C77   C     C_R   0.195599 0.809819 0.384853 -0.023920
C78   C     C_R   0.186673 0.380685 0.385973 0.019744
C79   C     C_3   0.737242 0.925354 0.729026 0.466119
C80   C     C_3   0.063945 0.812606 0.726541 0.467218
C81   C     C_3   0.160784 0.249394 0.722846 0.455592
C82   C     C_3   0.762683 0.924873 0.785505 0.173292
C83   C     C_3   0.062015 0.832227 0.783822 0.177183
C84   C     C_3   0.148760 0.225166 0.780345 0.120455
C85   C     C_1   0.717586 0.861100 0.906743 0.002589
C86   C     C_1   0.135214 0.856121 0.905378 0.003153
C87   C     C_1   0.141724 0.273849 0.905080 0.024421
C88   C     C_3   0.634241 0.813530 0.715057 -0.033256
C89   C     C_3   0.180169 0.831887 0.712267 -0.026685
C90   C     C_3   0.182519 0.366394 0.714608 0.015359
C91   C     C_3   0.554901 0.832055 0.797452 0.325138
C92   C     C_3   0.167800 0.731029 0.792400 0.303073
C93   C     C_3   0.283276 0.426589 0.797403 0.290399
C94   C     C_3   0.659444 0.827666 0.812030 0.037485
C95   C     C_3   0.164663 0.834227 0.809661 0.051935
C96   C     C_3   0.167852 0.329818 0.810377 0.082354
Cr1   Cr    Cr6+3 0.164410 0.584450 0.499910 1.087493
Cr2   Cr    Cr6+3 0.415550 0.579960 0.499910 1.114680
Cr3   Cr    Cr6+3 0.420040 0.835590 0.499910 1.114222
Cr4   Cr    Cr6+3 0.155170 0.075460 0.019960 1.072510
Cr5   Cr    Cr6+3 0.924540 0.079710 0.019960 1.081887
Cr6   Cr    Cr6+3 0.920290 0.844830 0.019960 1.105061
H1    H     H_    0.563451 0.912083 0.806444 0.161314
H2    H     H_    0.089759 0.655601 0.799934 0.148188
H3    H     H_    0.348667 0.410117 0.809234 0.138633
H4    H     H_    0.457828 0.731287 0.734896 0.165830
H5    H     H_    0.272128 0.747295 0.729083 0.161224
H6    H     H_    0.314871 0.531780 0.733858 0.159070
H7    H     H_    0.519671 0.872964 0.725654 0.145575
H8    H     H_    0.129471 0.663520 0.717964 0.160232
H9    H     H_    0.358140 0.434119 0.726767 0.148779
H10   H     H_    0.729791 0.731338 0.724028 0.156981
H11   H     H_    0.253094 0.007573 0.725084 0.163136
H12   H     H_    0.008961 0.315083 0.719830 0.146130
O1    O     O_R   0.137150 0.468200 0.553200 -0.489715
O2    O     O_R   0.531800 0.668950 0.553200 -0.489693
O3    O     O_R   0.331050 0.862850 0.553200 -0.487208
O4    O     O_R   0.179100 0.982980 0.967000 -0.498033
O5    O     O_R   0.017020 0.196120 0.967000 -0.484264
O6    O     O_R   0.803880 0.820900 0.967000 -0.498331
O7    O     O_R   0.173970 0.688730 0.549930 -0.496251
O8    O     O_R   0.311270 0.485240 0.549930 -0.494413
O9    O     O_R   0.514760 0.826030 0.549930 -0.493957
O10   O     O_R   0.140110 0.470540 0.446010 -0.439416
O11   O     O_R   0.529460 0.669570 0.446010 -0.431734
O12   O     O_R   0.330430 0.859890 0.446010 -0.416254
O13   O     O_R   0.176710 0.690910 0.450560 -0.534139
O14   O     O_R   0.309090 0.485800 0.450560 -0.476561
O15   O     O_R   0.514200 0.823290 0.450560 -0.478203
O16   O     O_3   0.333333 0.666667 0.499990 -0.327495
O17   O     O_R   0.176750 0.985260 0.074180 -0.463404
O18   O     O_R   0.014740 0.191490 0.074180 -0.444265
O19   O     O_R   0.808510 0.823250 0.074180 -0.424508
O20   O     O_R   0.146100 0.172630 0.068980 -0.533572
O21   O     O_R   0.827370 0.973470 0.068980 -0.536025
O22   O     O_R   0.026530 0.853900 0.068980 -0.473406
O23   O     O_3   0.000000 0.000000 0.020040 -0.262246
O24   O     O_R   0.148270 0.170520 0.969620 -0.509735
O25   O     O_R   0.829480 0.977750 0.969620 -0.502447
O26   O     O_R   0.022250 0.851730 0.969620 -0.503346
F1    F     F_    0.464234 0.756844 0.823430 -0.435296
F2    F     F_    0.247090 0.720085 0.817380 -0.451902
F3    F     F_    0.304725 0.520896 0.822225 -0.439708
N1    N     N_3   0.720127 0.686974 0.813101 -0.629298
H13   H     H_    0.707995 0.614803 0.796801 0.260001
H14   H     H_    0.703594 0.669794 0.850318 0.268704
N2    N     N_3   0.298261 0.037714 0.814811 -0.637917
H15   H     H_    0.316634 0.037008 0.851827 0.269330
H16   H     H_    0.369443 0.101354 0.799575 0.254618
N3    N     N_3   0.969743 0.282958 0.810684 -0.565514
H17   H     H_    0.928435 0.223627 0.783820 0.256259
H18   H     H_    0.924366 0.322426 0.814735 0.266836
N4    N     N_3   0.738406 0.050309 0.135290 -0.516559
H19   H     H_    0.822639 0.095591 0.128915 0.288823
H20   H     H_    0.694793 0.032249 0.102350 0.265532
N5    N     N_3   0.940767 0.708732 0.134601 -0.577606
H21   H     H_    0.882633 0.717494 0.154815 0.271381
H22   H     H_    0.917638 0.628144 0.126567 0.261491
N6    N     N_3   0.316709 0.268502 0.132841 -0.519899
H23   H     H_    0.339744 0.311833 0.100075 0.262166
H24   H     H_    0.280766 0.185054 0.125933 0.288464
N7    N     N_3   0.642286 0.986064 0.395709 -0.533039
H25   H     H_    0.719481 0.056069 0.393772 0.307845
H26   H     H_    0.580713 0.002129 0.385025 0.348925
N8    N     N_3   0.007523 0.650764 0.391004 -0.459915
H27   H     H_    0.999098 0.685323 0.423539 0.245254
H28   H     H_    0.023267 0.587857 0.398437 0.316541
N9    N     N_3   0.348616 0.361014 0.394415 -0.531468
H29   H     H_    0.425495 0.422772 0.382985 0.348383
H30   H     H_    0.343505 0.285072 0.392413 0.308453
N10   N     N_3   0.705017 0.122012 0.217270 -0.461721
H31   H     H_    0.637437 0.130682 0.225629 0.350351
H32   H     H_    0.774154 0.187276 0.233333 0.321118
N11   N     N_3   0.885944 0.562926 0.215235 -0.452825
H33   H     H_    0.913045 0.530350 0.187825 0.294522
H34   H     H_    0.826144 0.579807 0.203081 0.286214
N12   N     N_3   0.419577 0.295529 0.214803 -0.469459
H35   H     H_    0.496273 0.362326 0.223315 0.349153
H36   H     H_    0.415501 0.226215 0.229857 0.314768
F4    F     F_    0.678672 0.097182 0.314882 -0.559177
F5    F     F_    0.907299 0.570669 0.311603 -0.461653
F6    F     F_    0.421987 0.322048 0.312723 -0.562643
F7    F     F_    0.665496 0.678732 0.127967 -0.545791
F8    F     F_    0.322829 0.984066 0.128484 -0.541929
F9    F     F_    0.009737 0.331595 0.129763 -0.546708
F10   F     F_    0.631495 0.571615 0.202741 -0.546506
F11   F     F_    0.431576 0.054785 0.203971 -0.540946
F12   F     F_    0.937269 0.365706 0.205524 -0.539537
F13   F     F_    0.619915 0.557736 0.299697 -0.465549
F14   F     F_    0.445024 0.057349 0.301084 -0.478077
F15   F     F_    0.933159 0.372603 0.302725 -0.448575
F16   F     F_    0.627678 0.640308 0.379981 -0.523977
F17   F     F_    0.359211 0.984997 0.380649 -0.526432
F18   F     F_    0.008596 0.362993 0.382268 -0.524185
N13   N     N_3   0.833465 0.951243 0.698409 -0.562636
H37   H     H_    0.827126 0.984312 0.665346 0.269747
H38   H     H_    0.837200 0.881962 0.688910 0.208445
N14   N     N_3   0.032120 0.880263 0.698122 -0.562547
H39   H     H_    0.998015 0.841364 0.664723 0.267850
H40   H     H_    0.099859 0.954762 0.689026 0.197121
N15   N     N_3   0.065999 0.171969 0.692987 -0.570860
H41   H     H_    0.064809 0.098063 0.690034 0.275645
H42   H     H_    0.991582 0.157715 0.707533 0.246485
F19   F     F_    0.711821 0.006858 0.720588 -0.634268
F20   F     F_    0.986856 0.704726 0.715456 -0.635211
F21   F     F_    0.250402 0.244242 0.704607 -0.626513
N16   N     N_3   0.791383 0.031760 0.806989 -0.534754
H43   H     H_    0.822852 0.040541 0.842425 0.235582
H44   H     H_    0.725123 0.044864 0.808740 0.248020
N17   N     N_3   0.956706 0.746443 0.803837 -0.540319
H45   H     H_    0.947751 0.762563 0.840473 0.225892
H46   H     H_    0.947920 0.669191 0.801930 0.252591
N18   N     N_3   0.228469 0.192217 0.795162 -0.605599
H47   H     H_    0.225721 0.179370 0.832877 0.223355
H48   H     H_    0.308805 0.249863 0.786128 0.262014
N19   N     N_3   0.859002 0.912346 0.791990 -0.588860
H49   H     H_    0.856617 0.850153 0.770753 0.300034
H50   H     H_    0.870311 0.899960 0.828672 0.242393
N20   N     N_3   0.065654 0.935585 0.792986 -0.612187
H51   H     H_    0.128324 0.998065 0.773543 0.275007
H52   H     H_    0.075992 0.956482 0.830170 0.231380
N21   N     N_3   0.038918 0.135806 0.791707 -0.610131
H53   H     H_    0.021571 0.070674 0.768858 0.316658
H54   H     H_    0.035696 0.109356 0.827596 0.248316
N22   N     N_3   0.571333 0.613186 0.711573 -0.595580
H55   H     H_    0.492703 0.601427 0.713345 0.249321
H56   H     H_    0.572709 0.549574 0.729900 0.272841
N23   N     N_3   0.378795 0.978738 0.710997 -0.582867
H57   H     H_    0.400381 0.919479 0.715392 0.265624
H58   H     H_    0.438556 0.049948 0.728249 0.277567
N24   N     N_3   0.096157 0.480850 0.723947 -0.628091
H59   H     H_    0.165603 0.542325 0.741343 0.296466
H60   H     H_    0.027665 0.482649 0.737606 0.272354
F22   F     F_    0.537011 0.631476 0.806396 -0.553521
F23   F     F_    0.363465 0.919813 0.804227 -0.570626
F24   F     F_    0.107593 0.460290 0.818246 -0.542527

loop_
_geom_bond_atom_site_label_1
_geom_bond_atom_site_label_2
_ccdc_geom_bond_type
C15   C18   T    
N10   H31   S    
C10   C85   T    
N8    H27   S    
C82   C94   S    
C3    C16   S    
C2    C18   S    
C33   C45   A    
N15   H41   S    
N2    H15   S    
C45   N6    S    
Cr1   O13   S    
C27   C78   A    
C6    C9    S    
N23   H58   S    
Cr5   O25   S    
Cr4   O17   S    
C26   N8    S    
C49   F16   S    
C54   C60   A    
N18   H47   S    
C24   O26   A    
C19   O20   A    
N10   H32   S    
C67   C88   S    
C33   C39   A    
Cr5   O21   S    
C31   C43   A    
C45   C48   A    
C60   C63   A    
C5    N2    S    
C9    H12   S    
C23   O25   A    
C35   O10   A    
N2    H16   S    
N19   H50   S    
Cr1   O16   S    
C37   C40   A    
C69   C93   S    
C3    O2    A    
C80   C83   S    
C34   C77   S    
C73   F7    S    
C50   F17   S    
C38   N11   S    
C74   F8    S    
C28   C40   A    
C11   C86   T    
C30   C57   A    
C79   N13   S    
C7    H10   S    
C79   C82   S    
C24   O4    A    
C84   C96   S    
C80   C89   S    
N11   H33   S    
C82   N16   S    
Cr1   O7    S    
C36   C76   S    
C33   C72   A    
C93   H3    S    
C40   F4    S    
C67   H7    S    
Cr2   O11   S    
C66   C72   A    
C36   O11   A    
C3    O9    A    
C34   O13   A    
N12   H36   S    
C31   C70   A    
C64   C73   A    
N6    H24   S    
N14   H39   S    
C68   H5    S    
C32   C38   A    
C20   O19   A    
N4    H20   S    
C92   F2    S    
C21   O22   A    
C93   F3    S    
C44   C47   A    
C27   N9    S    
C56   C71   A    
C58   C61   A    
Cr2   O14   S    
C80   F20   S    
C63   C66   A    
C83   C95   S    
N8    H28   S    
C27   C30   A    
N15   H42   S    
C48   C75   A    
C41   F5    S    
C75   F9    S    
Cr5   O5    S    
C4    C7    S    
C79   C88   S    
C39   N12   S    
C69   H6    S    
Cr4   O20   S    
C68   C89   S    
C39   C42   A    
N7    H26   S    
C2    O8    A    
C53   C59   A    
C22   O5    A    
N22   H56   S    
C28   C55   A    
C50   C53   A    
C51   C78   A    
Cr3   O15   S    
N16   H43   S    
C26   C77   A    
Cr3   O12   S    
N19   H49   S    
C38   C41   A    
N1    H14   S    
C23   O6    A    
Cr5   O23   S    
C19   C48   S    
Cr4   O24   S    
C68   H8    S    
C7    N22   S    
C65   C71   A    
C92   C95   S    
C42   F6    S    
C65   C74   A    
C31   C37   A    
C25   C28   A    
Cr6   O23   S    
C44   N5    S    
C61   C64   A    
C64   C70   A    
C14   C89   S    
C4    N1    S    
Cr3   O3    S    
C83   N20   S    
C2    O1    A    
C62   C65   A    
Cr2   O2    S    
C7    C88   S    
C25   N7    S    
C34   O12   A    
C49   C52   A    
C80   N14   S    
Cr2   O16   S    
C58   F13   S    
C67   C91   S    
N22   H55   S    
C32   C44   A    
C49   C76   A    
N24   H60   S    
C32   C71   A    
C22   C87   S    
N21   H54   S    
C20   O21   A    
Cr6   O22   S    
C52   C58   A    
C8    H11   S    
C82   N19   S    
C81   C90   S    
N9    H29   S    
N24   H59   S    
Cr6   O26   S    
C93   C96   S    
C6    C96   S    
C5    F23   S    
N3    H18   S    
Cr1   O1    S    
C69   C90   S    
C50   C77   A    
N20   H51   S    
C81   C84   S    
Cr6   O6    S    
C84   N18   S    
Cr3   O9    S    
N7    H25   S    
C53   C56   A    
C11   C95   S    
C19   O18   A    
Cr2   O8    S    
C6    F24   S    
N5    H21   S    
C59   C62   A    
C63   F12   S    
Cr3   O16   S    
C29   C41   A    
C4    F22   S    
C12   C96   S    
C47   C74   A    
C91   H1    S    
N1    H13   S    
C51   F18   S    
C9    C90   S    
C37   N10   S    
C5    C8    S    
C81   N15   S    
C52   C55   A    
C67   H4    S    
C29   C56   A    
C91   F1    S    
Cr1   O10   S    
C22   O24   A    
C35   C78   S    
N17   H46   S    
C9    N24   S    
C25   C76   A    
C51   C54   A    
N5    H22   S    
N6    H23   S    
N18   H48   S    
C12   C87   T    
C84   N21   S    
C36   O15   A    
C91   C94   S    
C62   F11   S    
C69   H9    S    
C15   C90   S    
C5    C95   S    
C24   C86   S    
C8    N23   S    
C60   F15   S    
C21   O17   A    
C66   C75   A    
C13   C88   S    
N9    H30   S    
C61   F10   S    
C68   C92   S    
N11   H34   S    
N20   H52   S    
N17   H45   S    
C57   C72   A    
C79   F19   S    
C43   C46   A    
C1    O7    A    
Cr6   O19   S    
C55   C70   A    
Cr4   O23   S    
C92   H2    S    
N23   H57   S    
N13   H37   S    
C6    N3    S    
Cr5   O18   S    
C83   N17   S    
Cr4   O4    S    
C1    C17   S    
C26   C29   A    
N12   H35   S    
C23   C85   S    
C13   C16   T    
C35   O14   A    
N16   H44   S    
C10   C94   S    
N3    H17   S    
C30   C42   A    
C59   F14   S    
N14   H40   S    
C8    C89   S    
C21   C47   S    
N4    H19   S    
C1    O3    A    
C43   N4    S    
N21   H53   S    
C46   C73   A    
C20   C46   S    
C4    C94   S    
C81   F21   S    
N13   H38   S    
C54   C57   A    
C14   C17   T    
