data_mof_unit_38518.cif
_audit_creation_date              2012-10-26T18:40:20-0400
_audit_creation_method            fapswitch 2.2
_symmetry_space_group_name_H-M    P1
_symmetry_Int_Tables_number       1
_space_group_crystal_system       triclinic
_cell_length_a                    8.729725
_cell_length_b                    15.145409
_cell_length_c                    13.863028
_cell_angle_alpha                 90.212122
_cell_angle_beta                  98.015656
_cell_angle_gamma                 90.304287
_cell_volume                      1814.95246182

loop_
_atom_site_label
_atom_site_type_symbol
_atom_type_description
_atom_site_fract_x
_atom_site_fract_y
_atom_site_fract_z
_atom_type_partial_charge
C1    C     C_R   0.501118 0.330214 0.499838 0.581366
C2    C     C_R   0.574930 0.567057 0.898908 -0.148524
C3    C     C_R   0.500299 0.499647 0.054723 0.024529
C4    C     C_R   0.500150 0.499793 0.945301 0.021541
C5    C     C_R   0.203644 0.499918 0.475063 0.543834
C6    C     C_R   0.796353 0.500064 0.524929 0.561744
C7    C     C_2   0.037784 0.499739 0.461301 -0.151034
C8    C     C_2   0.962209 0.500221 0.538666 -0.148873
C9    C     C_R   0.397455 0.097246 0.551109 -0.136751
C10   C     C_R   0.510314 0.904775 0.413524 -0.142759
C11   C     C_R   0.402611 0.188850 0.553124 -0.178243
C12   C     C_R   0.497863 0.670329 0.500135 0.557616
C13   C     C_R   0.512316 0.813097 0.415006 -0.181391
C14   C     C_R   0.500942 0.234278 0.498847 0.029482
C15   C     C_R   0.493637 0.767278 0.500450 0.015849
C16   C     C_R   0.595297 0.187842 0.442011 0.251977
C17   C     C_R   0.468959 0.815041 0.584638 0.252965
C18   C     C_R   0.594592 0.095563 0.443794 -0.105515
C19   C     C_R   0.473891 0.907162 0.583546 -0.102797
C20   C     C_R   0.494486 0.049754 0.497256 -0.006417
C21   C     C_R   0.492918 0.952586 0.498051 -0.006027
C22   C     C_3   0.651161 0.227227 0.292238 0.002097
C23   C     C_R   0.381199 0.458215 0.097408 -0.147077
C24   C     C_3   0.747766 0.290611 0.240411 -0.354401
C25   C     C_3   0.286396 0.775663 0.678542 -0.004835
C26   C     C_3   0.252592 0.712564 0.758143 -0.359343
C27   C     C_R   0.425231 0.432665 0.885126 -0.144558
C28   C     C_R   0.384028 0.458500 0.199109 0.036581
C29   C     C_R   0.425384 0.434450 0.783706 0.039485
C30   C     C_R   0.616335 0.541165 0.219759 0.029437
C31   C     C_R   0.574841 0.565377 0.797445 0.047297
C32   C     C_R   0.619494 0.541024 0.118602 -0.148141
Cu1   Cu    Cu3+1 0.500000 0.499990 0.596430 0.949481
Cu2   Cu    Cu3+1 0.500000 0.500010 0.403570 0.935199
H1    H     H_    0.977647 0.499159 0.387123 0.117985
H2    H     H_    0.368209 0.378030 0.915676 0.086235
H3    H     H_    0.292280 0.425637 0.230245 0.118189
H4    H     H_    0.366050 0.382722 0.738949 0.121057
H5    H     H_    0.708243 0.573980 0.267180 0.118665
H6    H     H_    0.633806 0.617268 0.763545 0.153612
H7    H     H_    0.716336 0.572399 0.091384 0.088075
H8    H     H_    0.631796 0.621699 0.939980 0.092121
H9    H     H_    0.527236 0.246045 0.273271 0.133017
H10   H     H_    0.667934 0.159180 0.265181 0.112094
H11   H     H_    0.871590 0.271656 0.254230 0.146603
H12   H     H_    0.022359 0.500793 0.612838 0.123088
H13   H     H_    0.708161 0.288638 0.160744 0.090297
H14   H     H_    0.735469 0.358963 0.267403 0.185065
H15   H     H_    0.212230 0.755518 0.609701 0.125819
H16   H     H_    0.254735 0.843580 0.699135 0.120298
H17   H     H_    0.327885 0.728349 0.827485 0.155164
H18   H     H_    0.129675 0.718564 0.769570 0.090969
H19   H     H_    0.273597 0.643531 0.736446 0.178562
H20   H     H_    0.316853 0.063694 0.591342 0.112878
H21   H     H_    0.521918 0.938180 0.345980 0.109455
H22   H     H_    0.327500 0.224430 0.595518 0.120019
H23   H     H_    0.528583 0.778136 0.348925 0.136488
H24   H     H_    0.674551 0.060060 0.404985 0.110132
H25   H     H_    0.463368 0.942820 0.650128 0.112335
H26   H     H_    0.284532 0.426617 0.052998 0.086088
N1    N     N_R   0.500000 0.500020 0.258690 -0.225541
N2    N     N_R   0.500000 0.499980 0.741310 -0.230781
O1    O     O_R   0.500010 0.371450 0.581430 -0.516372
O2    O     O_3   0.445411 0.772001 0.669233 -0.554189
O3    O     O_R   0.499990 0.628550 0.418570 -0.516816
O4    O     O_R   0.500010 0.371460 0.418560 -0.479284
O5    O     O_R   0.499990 0.628540 0.581440 -0.459015
O6    O     O_R   0.274840 0.499990 0.562640 -0.509532
O7    O     O_R   0.725160 0.500010 0.437360 -0.506844
O8    O     O_R   0.274840 0.500000 0.399770 -0.510908
O9    O     O_R   0.725160 0.500000 0.600230 -0.499351
O10   O     O_3   0.699724 0.232962 0.393605 -0.549472

loop_
_geom_bond_atom_site_label_1
_geom_bond_atom_site_label_2
_ccdc_geom_bond_type
C29   H4    S    
C6    O7    A    
C2    C4    A    
C32   H7    S    
C10   C13   A    
C5    O8    A    
C1    C14   S    
C26   H18   S    
C27   H2    S    
C27   C29   A    
C5    C7    S    
C12   O3    A    
Cu2   O8    S    
C9    C20   A    
C3    C23   A    
C22   H9    S    
C16   O10   S    
C12   C15   S    
Cu1   O1    S    
C28   N1    A    
Cu2   O4    S    
C25   H15   S    
Cu1   Cu2   S    
C7    C8    D    
C17   O2    S    
C23   C28   A    
C31   H6    S    
C30   C32   A    
C10   H21   S    
C9    C11   A    
Cu2   O7    S    
C31   N2    A    
C6    O9    A    
C28   H3    S    
C2    H8    S    
C5    O6    A    
C24   H11   S    
C1    O1    A    
Cu2   O3    S    
C22   O10   S    
C17   C19   A    
C30   H5    S    
C1    O4    A    
C22   C24   S    
C13   C15   A    
C10   C21   A    
C23   H26   S    
C12   O5    A    
C14   C16   A    
C13   H23   S    
Cu1   O9    S    
C3    C32   A    
C3    C4    S    
C24   H14   S    
C26   H19   S    
C4    C27   A    
C20   C21   S    
Cu1   O5    S    
C18   C20   A    
C16   C18   A    
C30   N1    A    
C11   C14   A    
C15   C17   A    
C29   N2    A    
C2    C31   A    
C6    C8    S    
C9    H20   S    
C8    H12   S    
C19   H25   S    
C25   C26   S    
C26   H17   S    
C24   H13   S    
C7    H1    S    
C25   H16   S    
C18   H24   S    
Cu2   N1    S    
C22   H10   S    
C11   H22   S    
Cu1   O6    S    
Cu1   N2    S    
C19   C21   A    
C25   O2    S    
