data_mof_unit_67383.cif
_audit_creation_date              2013-03-05T16:11:00-0500
_audit_creation_method            fapswitch 2.2
_symmetry_space_group_name_H-M    P1
_symmetry_Int_Tables_number       1
_space_group_crystal_system       triclinic
_cell_length_a                    17.835843
_cell_length_b                    28.316971
_cell_length_c                    9.001419
_cell_angle_alpha                 89.846648
_cell_angle_beta                  105.747327
_cell_angle_gamma                 90.118621
_cell_volume                      4375.58060981

loop_
_atom_site_label
_atom_site_type_symbol
_atom_site_description
_atom_site_fract_x
_atom_site_fract_y
_atom_site_fract_z
_atom_type_partial_charge
P1    P     P_3+3 0.171820 0.553000 0.158080 0.728076
P2    P     P_3+3 0.171820 0.447000 0.658080 0.725057
P3    P     P_3+3 0.671820 0.053000 0.158080 0.721087
P4    P     P_3+3 0.671820 0.947000 0.658080 0.703910
O1    O     O_2   0.163830 0.569270 0.980510 -0.222778
O2    O     O_2   0.163830 0.430730 0.480510 -0.226607
O3    O     O_2   0.663830 0.069270 0.980510 -0.230482
O4    O     O_2   0.663830 0.930730 0.480510 -0.221179
O5    O     O_3   0.095420 0.524330 0.188510 -0.300156
O6    O     O_3   0.095420 0.475670 0.688510 -0.301380
O7    O     O_3   0.595420 0.024330 0.188510 -0.299069
O8    O     O_3   0.595420 0.975670 0.688510 -0.298674
O9    O     O_3   0.028940 0.612400 0.656050 -0.320598
O10   O     O_3   0.028940 0.387600 0.156050 -0.312329
O11   O     O_3   0.528940 0.112400 0.656050 -0.320772
O12   O     O_3   0.528940 0.887600 0.156050 -0.313480
O13   O     O_2   0.168637 0.626295 0.784603 -0.264754
O14   O     O_2   0.171245 0.374872 0.290316 -0.262810
O15   O     O_2   0.660772 0.147881 0.842459 -0.359808
O16   O     O_2   0.669094 0.875301 0.286038 -0.259103
O17   O     O_3   0.254089 0.517456 0.201936 -0.542049
O18   O     O_3   0.253130 0.483923 0.701175 -0.530726
O19   O     O_3   0.754201 0.017095 0.202751 -0.541717
O20   O     O_3   0.753870 0.983513 0.703416 -0.575660
O21   O     O_3   0.113635 0.702423 0.787792 -0.574500
O22   O     O_3   0.112575 0.299186 0.280445 -0.567481
O23   O     O_3   0.585810 0.210818 0.657221 -0.568851
O24   O     O_3   0.613792 0.799558 0.283375 -0.567168
H1    H     H_    0.019912 0.740733 0.807642 0.056731
H2    H     H_    0.012283 0.265915 0.288678 0.047977
H3    H     H_    0.533875 0.197684 0.834196 0.067748
H4    H     H_    0.514026 0.766011 0.291595 0.050333
C1    C     C_3   0.117800 0.785736 0.797761 -0.136718
C2    C     C_3   0.109040 0.217803 0.288450 -0.084264
C3    C     C_3   0.568502 0.270155 0.833445 0.093228
C4    C     C_3   0.612368 0.717915 0.299571 -0.067290
H5    H     H_    0.146685 0.782740 0.922890 0.079571
H6    H     H_    0.139709 0.221056 0.412543 0.145220
H7    H     H_    0.528448 0.281242 0.899737 0.123311
H8    H     H_    0.640431 0.721934 0.424394 0.152686
H9    H     H_    0.162345 0.784029 0.735564 0.157123
H10   H     H_    0.152316 0.218095 0.223355 0.138973
H11   H     H_    0.625996 0.261182 0.912400 0.104584
H12   H     H_    0.658493 0.718483 0.241062 0.125147
P5    P     P_3+3 0.829210 0.554130 0.532500 0.681174
P6    P     P_3+3 0.829210 0.445870 0.032500 0.685831
P7    P     P_3+3 0.329210 0.054130 0.532500 0.671229
P8    P     P_3+3 0.329210 0.945870 0.032500 0.683410
P9    P     P_3+3 0.894603 0.651923 0.026112 0.655114
P10   P     P_3+3 0.894858 0.347716 0.528141 0.595605
P11   P     P_3+3 0.401494 0.155473 0.032917 0.618084
P12   P     P_3+3 0.394862 0.848068 0.527264 0.593819
O25   O     O_2   0.837400 0.570350 0.710350 -0.327089
O26   O     O_2   0.837400 0.429650 0.210350 -0.337315
O27   O     O_2   0.337400 0.070350 0.710350 -0.322578
O28   O     O_2   0.337400 0.929650 0.210350 -0.341092
O29   O     O_3   0.972820 0.612580 0.035550 -0.231580
O30   O     O_3   0.972820 0.387420 0.535550 -0.272562
O31   O     O_3   0.472820 0.112580 0.035550 -0.263276
O32   O     O_3   0.472820 0.887420 0.535550 -0.271155
O33   O     O_2   0.826874 0.634474 0.891394 -0.307689
O34   O     O_2   0.826456 0.365704 0.395665 -0.313386
O35   O     O_2   0.337778 0.146193 0.880414 -0.302935
O36   O     O_2   0.326622 0.865923 0.394385 -0.318910
O37   O     O_3   0.737353 0.522872 0.466292 -0.635282
O38   O     O_3   0.737408 0.475556 0.962441 -0.603143
O39   O     O_3   0.238227 0.022016 0.466344 -0.689662
O40   O     O_3   0.237134 0.975080 0.959339 -0.588854
O41   O     O_3   0.917249 0.706155 0.953434 -0.605052
O42   O     O_3   0.917481 0.294626 0.450230 -0.616073
O43   O     O_3   0.441727 0.209481 0.996352 -0.607657
O44   O     O_3   0.417323 0.794660 0.451254 -0.613089
C5    C     C_3   0.961298 0.734380 0.074938 0.676626
C6    C     C_3   0.963267 0.265530 0.567269 0.577806
C7    C     C_3   0.468069 0.237737 0.129829 0.728583
C8    C     C_3   0.462005 0.765517 0.569441 0.572668
H13   H     H_    0.935268 0.734475 0.173701 0.054873
H14   H     H_    0.939590 0.264115 0.669018 0.065655
H15   H     H_    0.444108 0.226142 0.224988 -0.048923
H16   H     H_    0.437027 0.764017 0.669570 0.070093
C9    C     C_3   0.961730 0.785246 0.018161 -0.035283
C10   C     C_3   0.960685 0.215519 0.503654 0.063023
C11   C     C_3   0.435543 0.287910 0.087458 0.022011
C12   C     C_3   0.459588 0.715691 0.505368 0.065628
H17   H     H_    0.013933 0.791896 0.979116 0.118625
H18   H     H_    0.006225 0.211759 0.445950 0.120860
H19   H     H_    0.414638 0.291455 0.961569 0.138241
H20   H     H_    0.503245 0.712390 0.443192 0.133096
C13   C     C_3   0.741350 0.525001 0.934910 1.322740
C14   C     C_3   0.740562 0.473168 0.438014 1.209584
C15   C     C_3   0.240740 0.024492 0.930880 1.349724
C16   C     C_3   0.241657 0.972387 0.437405 1.207906
C17   C     C_3   0.683030 0.542347 0.785375 -0.118390
C18   C     C_3   0.683408 0.455514 0.286426 -0.027107
C19   C     C_3   0.183258 0.041632 0.779698 -0.162885
C20   C     C_3   0.186386 0.954775 0.283243 -0.152332
H21   H     H_    0.690825 0.580836 0.770516 0.138148
H22   H     H_    0.691670 0.416971 0.274641 0.132732
H23   H     H_    0.191749 0.079991 0.763477 0.115739
H24   H     H_    0.197500 0.916648 0.270208 0.136136
H25   H     H_    0.697173 0.526656 0.687252 0.143960
H26   H     H_    0.698885 0.470427 0.188065 0.169376
H27   H     H_    0.197742 0.025231 0.683541 0.139800
H28   H     H_    0.202399 0.970897 0.187752 0.194585
Ba1   Ba    Ba6+2 0.000400 0.534870 0.845190 1.953278
Ba2   Ba    Ba6+2 0.000400 0.465130 0.345190 1.949139
Ba3   Ba    Ba6+2 0.500400 0.034870 0.845190 1.936607
Ba4   Ba    Ba6+2 0.500400 0.965130 0.345190 1.939105
C21   C     C_3   0.235878 0.473062 0.136203 1.470548
C22   C     C_3   0.233597 0.528282 0.635913 1.483856
C23   C     C_3   0.735985 0.972714 0.136589 1.470804
C24   C     C_3   0.736401 0.028854 0.643281 1.466833
C25   C     C_3   0.308865 0.442046 0.178706 0.004848
C26   C     C_3   0.305603 0.560480 0.675475 0.015340
C27   C     C_3   0.808549 0.940944 0.178684 -0.001539
C28   C     C_3   0.811556 0.058328 0.678921 0.002839
H29   H     H_    0.343567 0.448469 0.095241 0.133578
H30   H     H_    0.339168 0.556026 0.588982 0.141934
H31   H     H_    0.842897 0.946127 0.093999 0.129130
H32   H     H_    0.844347 0.050869 0.592933 0.156524
H33   H     H_    0.292515 0.404209 0.172919 0.063074
H34   H     H_    0.286439 0.597591 0.671138 0.020892
H35   H     H_    0.791481 0.903270 0.174520 0.077748
H36   H     H_    0.797587 0.096431 0.671514 0.063532
O45   O     O_3   0.904940 0.476110 0.001150 -0.243360
O46   O     O_3   0.904940 0.523890 0.501150 -0.233156
O47   O     O_3   0.404940 0.976110 0.001150 -0.245970
O48   O     O_3   0.404940 0.023890 0.501150 -0.229916
P13   P     P_3+3 0.109336 0.349516 0.166437 0.642908
P14   P     P_3+3 0.106296 0.652998 0.665755 0.589184
P15   P     P_3+3 0.608128 0.848983 0.164409 0.640489
P16   P     P_3+3 0.610365 0.150511 0.674439 0.550366
C29   C     C_3   0.064492 0.742573 0.744449 0.712430
C30   C     C_3   0.058937 0.261698 0.231480 0.734712
C31   C     C_3   0.536992 0.224763 0.746616 0.727154
C32   C     C_3   0.561476 0.761286 0.236871 0.713388
H37   H     H_    0.909374 0.790893 0.922666 0.157576
H38   H     H_    0.903632 0.209355 0.421782 0.151394
H39   H     H_    0.384289 0.291680 0.131502 0.075662
H40   H     H_    0.401380 0.709179 0.428436 0.140948
C33   C     C_2   0.878738 0.379127 0.813572 0.617000
C34   C     C_2   0.876528 0.619357 0.308770 0.565927
C35   C     C_2   0.380161 0.879975 0.813606 0.593791
C36   C     C_2   0.372573 0.118031 0.301404 0.615355
C37   C     C_R   0.147242 0.613340 0.409924 -0.328616
C38   C     C_R   0.151481 0.387950 0.911594 -0.426824
C39   C     C_R   0.645565 0.113060 0.408771 -0.349131
C40   C     C_R   0.651525 0.887926 0.911858 -0.406662
C41   C     C_2   0.794668 0.345931 0.964118 -0.184865
C42   C     C_2   0.790059 0.652529 0.454025 -0.268146
C43   C     C_2   0.297364 0.845467 0.964711 -0.228674
C44   C     C_2   0.279668 0.149096 0.437067 -0.200262
C45   C     C_2   0.835338 0.385836 0.934769 0.142956
C46   C     C_2   0.833090 0.613154 0.430184 0.146127
C47   C     C_2   0.337038 0.885980 0.935859 0.185558
C48   C     C_2   0.327784 0.111452 0.421042 0.180158
C49   C     C_2   0.860650 0.342633 0.709625 -0.037869
C50   C     C_2   0.858171 0.655553 0.203680 -0.005854
C51   C     C_2   0.361249 0.843887 0.708399 0.005010
C52   C     C_2   0.355353 0.154624 0.197784 -0.039878
C53   C     C_3   0.801084 0.308248 0.724429 0.131746
C54   C     C_3   0.797344 0.688924 0.215689 -0.001274
C55   C     C_3   0.302259 0.809709 0.724260 0.055098
C56   C     C_3   0.292099 0.186902 0.204124 -0.000171
C57   C     C_3   0.795780 0.301990 0.883586 0.009611
C58   C     C_3   0.794484 0.696429 0.375264 0.165641
C59   C     C_3   0.302058 0.801755 0.885420 -0.050851
C60   C     C_3   0.283516 0.193246 0.359937 0.175904
C61   C     C_2   0.785363 0.263732 0.618650 -0.195668
C62   C     C_2   0.777342 0.731524 0.102708 -0.133482
C63   C     C_2   0.279950 0.767946 0.608388 -0.139558
C64   C     C_2   0.272860 0.229921 0.093129 -0.138916
C65   C     C_2   0.249410 0.725544 0.635964 -0.162821
C66   C     C_2   0.245447 0.272614 0.126590 -0.156462
C67   C     C_2   0.752539 0.222177 0.648496 0.054463
C68   C     C_2   0.749063 0.774178 0.133475 -0.056658
C69   C     C_R   0.256037 0.683371 0.386781 -0.088184
C70   C     C_R   0.261518 0.318580 0.889226 0.045293
C71   C     C_R   0.764202 0.178334 0.403752 -0.045716
C72   C     C_R   0.759289 0.817420 0.887560 0.085791
C73   C     C_R   0.220141 0.688160 0.513464 0.037027
C74   C     C_R   0.222565 0.312772 0.012237 0.016100
C75   C     C_R   0.730121 0.181590 0.533691 0.016917
C76   C     C_R   0.723379 0.813064 0.015023 0.005776
C77   C     C_R   0.241636 0.642582 0.280130 0.291598
C78   C     C_R   0.249582 0.360659 0.787492 0.276022
C79   C     C_R   0.745790 0.139658 0.289143 0.303540
C80   C     C_R   0.745089 0.858281 0.780411 0.241846
C81   C     C_R   0.188295 0.608679 0.284986 0.132812
C82   C     C_R   0.192486 0.392498 0.787547 0.135327
C83   C     C_R   0.688885 0.107696 0.287413 0.125930
C84   C     C_R   0.690995 0.891775 0.785273 0.106089
C85   C     C_R   0.162037 0.650743 0.519901 0.229389
C86   C     C_R   0.166452 0.351091 0.022404 0.270039
C87   C     C_R   0.669325 0.144907 0.534825 0.229512
C88   C     C_R   0.666709 0.851201 0.023308 0.259985
H41   H     H_    0.762860 0.347661 0.050979 0.195098
H42   H     H_    0.756041 0.650757 0.537032 0.202714
H43   H     H_    0.264280 0.846511 0.049415 0.166220
H44   H     H_    0.246378 0.146966 0.521245 0.182575
H45   H     H_    0.102870 0.587640 0.414026 0.215210
H46   H     H_    0.106915 0.413511 0.914696 0.220281
H47   H     H_    0.596600 0.089942 0.404027 0.213556
H48   H     H_    0.607105 0.913569 0.915144 0.220564
H49   H     H_    0.792424 0.268024 0.503758 0.160984
H50   H     H_    0.778067 0.725022 0.984503 0.193296
H51   H     H_    0.280133 0.775195 0.490219 0.194608
H52   H     H_    0.275417 0.224252 0.975506 0.209344
H53   H     H_    0.245367 0.718061 0.751528 0.171482
H54   H     H_    0.241290 0.278831 0.242611 0.186274
H55   H     H_    0.739510 0.218416 0.758663 0.141730
H56   H     H_    0.744935 0.781014 0.249229 0.177852
S1    S     S_3+6 0.582196 0.531854 0.772468 0.123192
O49   O     O_2   0.534338 0.534262 0.607739 -0.146024
O50   O     O_2   0.572030 0.484334 0.838355 -0.161474
O51   O     O_3   0.549567 0.573579 0.868136 -0.365367
H57   H     H_    0.584349 0.600271 0.864994 0.395813
S2    S     S_3+6 0.581440 0.464486 0.264058 0.070618
O52   O     O_2   0.538005 0.460155 0.096831 -0.151024
O53   O     O_2   0.552707 0.426748 0.350951 -0.173957
O54   O     O_3   0.563663 0.517521 0.330731 -0.470299
H58   H     H_    0.522381 0.532028 0.246618 0.420696
S3    S     S_3+6 0.081823 0.031719 0.762413 0.112882
O55   O     O_2   0.035467 0.034783 0.596831 -0.196631
O56   O     O_2   0.070305 0.984107 0.825959 -0.087716
O57   O     O_3   0.048124 0.073206 0.856917 -0.355301
H59   H     H_    0.086533 0.098592 0.865985 0.392145
S4    S     S_3+6 0.082645 0.960251 0.250173 0.077778
O58   O     O_2   0.045474 0.951793 0.082131 -0.103022
O59   O     O_2   0.053954 0.922893 0.338825 -0.167375
O60   O     O_3   0.053589 0.013434 0.295511 -0.392983
H60   H     H_    0.096359 0.025661 0.380567 0.345124
F1    F     F_    0.210105 0.477450 0.978628 -0.744331
F2    F     F_    0.206672 0.523953 0.478597 -0.751872
F3    F     F_    0.710430 0.977315 0.979053 -0.744225
F4    F     F_    0.705653 0.025925 0.486195 -0.751903
F5    F     F_    0.178435 0.452783 0.189774 -0.679405
F6    F     F_    0.176303 0.547677 0.691431 -0.671805
F7    F     F_    0.678009 0.952812 0.189121 -0.679046
F8    F     F_    0.683862 0.050434 0.708637 -0.677538
S5    S     S_3+6 0.368844 0.454958 0.368081 0.148879
O61   O     O_2   0.417291 0.497663 0.359789 -0.186947
O62   O     O_2   0.318624 0.465444 0.472122 -0.207874
O63   O     O_3   0.426167 0.409221 0.441846 -0.328940
H61   H     H_    0.460293 0.421552 0.539985 0.423337
S6    S     S_3+6 0.369421 0.548951 0.862956 0.134357
O64   O     O_2   0.323911 0.533639 0.971534 -0.239141
O65   O     O_2   0.424453 0.510224 0.850694 -0.142631
O66   O     O_3   0.419378 0.597695 0.934844 -0.365244
H62   H     H_    0.450494 0.588363 0.039397 0.416233
S7    S     S_3+6 0.870598 0.953494 0.366304 0.156127
O67   O     O_2   0.920298 0.995291 0.354819 -0.139790
O68   O     O_2   0.822850 0.965295 0.474329 -0.239186
O69   O     O_3   0.926457 0.906539 0.435342 -0.320098
H63   H     H_    0.959304 0.916939 0.537242 0.435370
S8    S     S_3+6 0.873862 0.046338 0.867307 0.154378
O70   O     O_2   0.827436 0.030965 0.974172 -0.236501
O71   O     O_2   0.928687 0.007351 0.856297 -0.136656
O72   O     O_3   0.923363 0.095147 0.940231 -0.357728
H64   H     H_    0.954617 0.085541 0.044472 0.439512
S9    S     S_3+6 0.011414 0.747466 0.548067 0.039600
O73   O     O_2   0.959379 0.789803 0.522068 -0.105470
O74   O     O_2   0.068360 0.751993 0.453892 -0.229169
O75   O     O_3   0.954441 0.700013 0.503004 -0.604771
H65   H     H_    0.978526 0.680573 0.438854 0.338535
S10   S     S_3+6 0.011008 0.257066 0.030815 -0.026891
O76   O     O_2   0.974601 0.303324 0.971546 -0.433054
O77   O     O_2   0.069555 0.242048 0.948724 -0.197492
O78   O     O_3   0.939633 0.216901 0.001148 -0.432154
H66   H     H_    0.895108 0.230894 0.923479 0.367335
S11   S     S_3+6 0.442408 0.230370 0.619575 0.032918
O79   O     O_2   0.379703 0.231952 0.701837 -0.251561
O80   O     O_2   0.432430 0.270355 0.506277 -0.188872
O81   O     O_3   0.435658 0.180685 0.521626 -0.611595
H67   H     H_    0.468716 0.185539 0.450709 0.341929
S12   S     S_3+6 0.514851 0.755084 0.036246 -0.020332
O82   O     O_2   0.474969 0.800246 0.973860 -0.419164
O83   O     O_2   0.575268 0.741729 0.956595 -0.209172
O84   O     O_3   0.446607 0.712999 0.007591 -0.421118
H68   H     H_    0.398538 0.727658 0.942682 0.381855
S13   S     S_3+6 0.078748 0.843963 0.759840 0.097654
O85   O     O_2   0.079148 0.857668 0.599127 -0.063569
O86   O     O_2   0.997446 0.846646 0.773522 -0.193265
O87   O     O_3   0.133957 0.882357 0.884867 -0.437744
H69   H     H_    0.123397 0.875216 0.985148 0.335163
S14   S     S_3+6 0.068494 0.160391 0.254172 0.022008
O88   O     O_2   0.105588 0.128021 0.385823 -0.300639
O89   O     O_2   0.983137 0.160673 0.233839 -0.153842
O90   O     O_3   0.086481 0.141071 0.092732 -0.458167
H70   H     H_    0.043422 0.153905 0.009223 0.446729
S15   S     S_3+6 0.585290 0.319601 0.722791 0.114240
O91   O     O_2   0.632460 0.304370 0.617073 -0.197958
O92   O     O_2   0.510429 0.340844 0.630275 -0.130654
O93   O     O_3   0.634260 0.361398 0.842604 -0.479465
H71   H     H_    0.596840 0.387477 0.838217 0.423324
S16   S     S_3+6 0.574130 0.659665 0.265875 0.032622
O94   O     O_2   0.613827 0.628171 0.398212 -0.246970
O95   O     O_2   0.488619 0.657462 0.246185 -0.163748
O96   O     O_3   0.593095 0.640712 0.104838 -0.461719
H72   H     H_    0.549943 0.653159 0.020839 0.438726
S17   S     S_3+6 0.310612 0.638770 0.175749 0.053974
O97   O     O_2   0.372657 0.605173 0.260220 -0.172224
O98   O     O_2   0.279778 0.622080 0.014588 -0.182834
O99   O     O_3   0.346500 0.693142 0.166720 -0.507663
H73   H     H_    0.301961 0.711897 0.105058 0.324130
S18   S     S_3+6 0.322280 0.369569 0.691541 0.073883
O100  O     O_2   0.378114 0.329123 0.721826 -0.238649
O101  O     O_2   0.287776 0.372607 0.521267 -0.151313
O102  O     O_3   0.372013 0.419138 0.755913 -0.440508
H74   H     H_    0.401862 0.411873 0.863270 0.383064
S19   S     S_3+6 0.812215 0.136406 0.178543 0.070268
O103  O     O_2   0.877572 0.105375 0.265524 -0.147414
O104  O     O_2   0.782538 0.117129 0.019943 -0.179448
O105  O     O_3   0.841963 0.191844 0.160585 -0.502973
H75   H     H_    0.794885 0.208691 0.099924 0.330120
S20   S     S_3+6 0.814496 0.863366 0.675051 0.087627
O106  O     O_2   0.851871 0.816155 0.672287 -0.233075
O107  O     O_2   0.780498 0.877410 0.511996 -0.156821
O108  O     O_3   0.881375 0.903906 0.759803 -0.388779
H76   H     H_    0.858551 0.921259 0.832171 0.352456
F9    F     F_    0.931350 0.412432 0.799050 -0.669633
F10   F     F_    0.930664 0.586789 0.297706 -0.655786
F11   F     F_    0.432284 0.913541 0.798711 -0.670458
F12   F     F_    0.429089 0.086561 0.295095 -0.662180
S21   S     S_3+6 0.057575 0.711386 0.138902 -0.044677
O109  O     O_2   0.055122 0.681224 0.271571 -0.373316
O110  O     O_2   0.076360 0.679707 0.021533 -0.277214
O111  O     O_3   0.126112 0.753505 0.193734 -0.546631
H77   H     H_    0.171318 0.742216 0.160004 0.339047
S22   S     S_3+6 0.060490 0.288317 0.626511 -0.001515
O112  O     O_2   0.122681 0.251208 0.656137 -0.278268
O113  O     O_2   0.076357 0.324473 0.517366 -0.259697
O114  O     O_3   0.063608 0.315245 0.789514 -0.513235
H78   H     H_    0.027238 0.341953 0.763668 0.340037
S23   S     S_3+6 0.571850 0.231645 0.203701 -0.063587
O115  O     O_2   0.587856 0.226570 0.374421 -0.278444
O116  O     O_2   0.596081 0.187523 0.137542 -0.373673
O117  O     O_3   0.626775 0.276538 0.170737 -0.540322
H79   H     H_    0.681034 0.267783 0.225270 0.360644
S24   S     S_3+6 0.559401 0.787888 0.631686 -0.002164
O118  O     O_2   0.621069 0.750415 0.664755 -0.259806
O119  O     O_2   0.576891 0.823414 0.522311 -0.266244
O120  O     O_3   0.561393 0.815417 0.793292 -0.517999
H80   H     H_    0.526172 0.842600 0.765472 0.337685
S25   S     S_3+6 0.961769 0.829232 0.158286 0.080726
O121  O     O_2   0.945217 0.876137 0.078638 -0.225983
O122  O     O_2   0.899852 0.819401 0.238209 -0.224438
O123  O     O_3   0.049668 0.830821 0.286573 -0.323197
H81   H     H_    0.085828 0.841437 0.226888 0.355144
S26   S     S_3+6 0.977295 0.169295 0.641276 0.048476
O124  O     O_2   0.920716 0.172249 0.736894 -0.257113
O125  O     O_2   0.965777 0.122869 0.558440 -0.157261
O126  O     O_3   0.069379 0.172854 0.751553 -0.455257
H82   H     H_    0.101512 0.159991 0.686961 0.368151
S27   S     S_3+6 0.491647 0.338685 0.160165 0.098463
O127  O     O_2   0.543456 0.352513 0.060870 -0.250175
O128  O     O_2   0.435361 0.378085 0.155763 -0.243054
O129  O     O_3   0.544164 0.329693 0.342475 -0.323788
H83   H     H_    0.597044 0.341524 0.347099 0.416821
S28   S     S_3+6 0.478636 0.669444 0.642213 0.059011
O130  O     O_2   0.472790 0.623258 0.558650 -0.154527
O131  O     O_2   0.559109 0.674446 0.747410 -0.195285
O132  O     O_3   0.412458 0.670537 0.742059 -0.476736
H84   H     H_    0.364640 0.658599 0.669012 0.331681
S29   S     S_3+6 0.725252 0.556359 0.087597 -0.059629
O133  O     O_2   0.791647 0.540549 0.216147 -0.366811
O134  O     O_2   0.728402 0.607974 0.055722 -0.349891
O135  O     O_3   0.641402 0.545500 0.127604 -0.493655
H85   H     H_    0.646163 0.564241 0.222002 0.433916
S30   S     S_3+6 0.723883 0.439983 0.590163 -0.024616
O136  O     O_2   0.728413 0.388635 0.556484 -0.312577
O137  O     O_2   0.790782 0.455854 0.716848 -0.348322
O138  O     O_3   0.641330 0.447124 0.639857 -0.467456
H86   H     H_    0.613213 0.471295 0.569031 0.394064
S31   S     S_3+6 0.222841 0.055844 0.081127 -0.075677
O139  O     O_2   0.287956 0.040153 0.212562 -0.380434
O140  O     O_2   0.226566 0.107293 0.046914 -0.369842
O141  O     O_3   0.138017 0.044837 0.116845 -0.475469
H87   H     H_    0.140015 0.065448 0.205977 0.424336
S32   S     S_3+6 0.222404 0.939072 0.586422 -0.017104
O142  O     O_2   0.226245 0.887680 0.552267 -0.301177
O143  O     O_2   0.288448 0.954282 0.715701 -0.351808
O144  O     O_3   0.139271 0.947274 0.632741 -0.411931
H88   H     H_    0.109747 0.969336 0.555562 0.361027
F13   F     F_    0.814265 0.538749 0.932365 -0.644443
F14   F     F_    0.813947 0.460137 0.436041 -0.627143
F15   F     F_    0.313943 0.038697 0.931402 -0.647984
F16   F     F_    0.315750 0.959372 0.439949 -0.613915

loop_
_geom_bond_atom_site_label_1
_geom_bond_atom_site_label_2
_geom_bond_distance
_ccdc_geom_bond_type
H1    C29   1.097115 S    
S18   O101  1.490920 D    
S3    O55   1.497778 D    
C2    H10   1.088400 S    
S3    O57   1.658546 S    
P7    O48   1.688276 S    
O1    Ba1   2.999444 S    
O114  H78   0.982874 S    
S13   O87   1.678932 S    
C63   C65   1.367143 D    
C77   S17   1.742547 S    
O87   H69   0.991121 S    
C61   H49   1.081731 S    
C15   S31   1.720804 S    
S11   O79   1.500340 D    
S8    O72   1.675069 S    
O63   H61   0.990804 S    
C44   H44   1.083580 S    
O81   H67   0.988707 S    
C41   C45   1.404233 A    
C6    S22   1.789686 S    
O11   P16   1.779091 S    
S15   O91   1.495882 D    
C19   H27   1.074995 S    
P2    O18   1.742795 S    
O9    P14   1.778024 S    
C74   C86   1.497371 S    
C43   C47   1.406776 A    
C36   C52   1.370655 D    
O21   C29   1.424502 S    
C14   S30   1.749367 S    
P9    O41   1.756409 S    
P11   O43   1.755885 S    
C34   C50   1.371378 D    
C5    C9    1.527770 S    
O135  H85   0.986880 S    
P13   C86   1.853944 S    
O38   C13   1.426138 S    
S6    O65   1.497363 D    
S1    O50   1.499466 D    
C27   H35   1.106716 S    
S22   O112  1.499487 D    
P2    C82   1.906674 S    
C56   C60   1.463152 A    
S24   O118  1.499917 D    
C17   H25   1.079214 S    
S23   O116  1.499446 D    
C62   C68   1.367512 D    
O105  H75   0.991051 S    
S17   O97   1.500551 D    
C68   H56   1.082279 S    
S20   O106  1.498374 D    
C78   C82   1.361610 D    
P12   O44   1.752894 S    
S23   O117  1.677610 S    
S27   O127  1.500344 D    
C4    H8    1.105042 S    
C31   S11   1.769698 S    
S18   O100  1.494481 D    
O2    Ba2   3.001246 S    
S25   O123  1.676504 S    
C70   C74   1.466941 S    
C33   C49   1.373841 D    
S16   O94   1.501595 D    
P8    C47   1.930568 S    
C20   H28   1.076772 S    
C4    H12   1.090647 S    
C38   C86   1.416539 A    
O144  H88   0.975037 S    
O39   C16   1.434394 S    
C67   C75   1.526064 S    
C28   S8    1.789240 S    
S17   O99   1.676410 S    
C68   C76   1.513244 S    
P6    C45   1.933073 S    
S14   O90   1.664939 S    
C12   H20   1.079539 S    
S31   O139  1.483073 D    
C62   H50   1.083842 S    
Ba1   O45   2.985205 S    
C9    S25   1.774903 S    
C39   H47   1.081947 S    
P10   O42   1.753985 S    
Ba3   O47   2.985205 S    
C10   H38   1.096346 S    
C11   S27   1.772145 S    
S29   O133  1.482356 D    
P8    O47   1.684669 S    
S14   O89   1.483268 D    
C43   C59   1.444365 A    
O123  H81   0.990640 S    
C19   H23   1.111125 S    
S26   O124  1.496109 D    
C19   S3    1.794853 S    
P3    O7    1.669670 S    
S23   O115  1.491487 D    
C70   C78   1.480930 S    
C4    S16   1.778639 S    
C18   H26   1.081033 S    
C5    H13   1.109027 S    
P5    C46   1.916362 S    
O30   Ba2   2.907437 S    
O141  H87   0.986169 S    
C7    H15   1.104876 S    
S4    O60   1.680610 S    
C53   C57   1.471378 A    
C72   C76   1.462747 S    
P1    Ba1   3.587622 S    
S32   O142  1.493725 D    
C21   F1    1.372583 S    
C55   C59   1.468419 A    
O20   C24   1.394612 S    
S24   O120  1.644075 S    
P8    O28   1.632357 D    
P14   C85   1.850773 S    
C66   C74   1.512243 S    
S30   O136  1.492923 D    
P8    Ba4   3.588735 S    
C29   S9    1.769498 S    
Ba2   O45   3.117864 S    
O66   H62   0.989609 S    
S20   O108  1.681592 S    
C20   S4    1.799509 S    
S15   O92   1.495065 D    
S9    O73   1.496189 D    
C27   S7    1.786163 S    
C2    C30   1.535915 S    
C42   C58   1.442010 A    
C16   C20   1.550920 S    
P9    O29   1.770917 S    
S5    O61   1.498257 D    
S21   O110  1.493852 D    
O12   P15   1.773277 S    
O28   Ba4   3.002291 S    
P12   O32   1.765900 S    
C35   C47   1.514087 S    
S16   O96   1.665760 S    
C3    S15   1.787448 S    
C39   C83   1.507610 S    
O75   H65   0.978933 S    
H2    C30   1.097736 S    
S8    O71   1.497508 D    
Ba3   Ba4   4.919748 S    
C67   H55   1.083119 S    
C3    H11   1.107139 S    
C22   C26   1.534964 S    
C53   C61   1.560218 S    
P5    O25   1.634598 D    
O23   P16   1.759822 S    
O21   P14   1.764119 S    
S28   O130  1.499769 D    
P5    Ba1   3.588366 S    
O43   C7    1.414812 S    
C14   F14   1.365391 S    
C44   C48   1.401932 A    
C41   C57   1.444594 A    
S29   O135  1.658527 S    
C3    C31   1.530633 S    
S7    O69   1.676795 S    
P2    Ba2   3.587274 S    
O31   Ba3   2.915908 S    
C28   H32   1.110340 S    
C36   C48   1.515867 S    
O42   C6    1.409525 S    
O54   H58   0.990517 S    
O22   C30   1.416257 S    
S2    O53   1.492390 D    
P5    O46   1.688276 S    
O84   H68   0.988446 S    
O90   H70   0.986550 S    
C34   C46   1.511134 S    
S10   O77   1.496529 D    
S32   O144  1.662468 S    
C25   H29   1.109883 S    
S27   O128  1.495661 D    
C27   H31   1.109256 S    
C23   F3    1.372592 S    
S19   O104  1.486286 D    
P5    O37   1.813750 S    
O3    Ba3   2.999444 S    
C56   C64   1.552108 S    
P4    O8    1.673120 S    
C63   H51   1.083647 S    
C13   S29   1.726747 S    
C24   C28   1.536126 S    
C73   C85   1.492533 S    
C40   H48   1.082151 S    
S2    O54   1.681125 S    
S31   O141  1.658590 S    
O15   P16   1.537169 D    
S6    O64   1.492982 D    
O13   P14   1.518563 D    
C65   H53   1.082437 S    
C8    H16   1.109179 S    
O111  H77   0.989420 S    
S10   O78   1.672314 S    
S9    O75   1.666218 S    
O17   C21   1.390653 S    
S3    O56   1.498544 D    
C77   C81   1.359132 D    
S13   O86   1.490353 D    
O19   C23   1.391745 S    
P7    Ba3   3.588366 S    
C80   C84   1.363555 D    
S5    O63   1.672125 S    
C35   F11   1.359769 S    
C38   H46   1.082165 S    
C33   C45   1.511793 S    
C69   C73   1.458116 S    
P6    Ba2   3.588735 S    
C64   C66   1.369530 D    
C13   C17   1.540667 S    
C15   C19   1.542672 S    
O25   Ba1   3.004142 S    
C25   H33   1.107482 S    
S12   O82   1.496628 D    
O57   H59   0.980119 S    
O7    Ba4   2.990724 S    
S28   O132  1.666749 S    
C9    H17   1.096564 S    
C5    S21   1.780482 S    
S6    O66   1.674690 S    
P1    C81   1.924237 S    
C40   C84   1.496744 S    
S11   O81   1.649137 S    
C11   H19   1.097004 S    
C17   H21   1.110758 S    
P4    C84   1.911377 S    
P6    O45   1.684669 S    
O120  H80   0.982570 S    
C8    C12   1.521775 S    
S4    O59   1.494202 D    
O126  H82   0.990979 S    
S7    O67   1.497349 D    
S1    O49   1.498212 D    
C9    H37   1.095741 S    
P4    Ba4   3.587274 S    
S22   O113  1.495962 D    
P1    O1    1.630977 D    
C52   C56   1.466615 A    
S24   O119  1.496231 D    
P6    O38   1.796580 S    
P3    O3    1.630977 D    
O93   H71   0.989918 S    
P4    O20   1.746148 S    
C71   C79   1.480619 S    
P7    C48   1.902516 S    
C18   H22   1.110824 S    
P11   C52   1.882249 S    
C69   C77   1.480716 S    
S13   O85   1.498678 D    
S20   O107  1.481507 D    
O11   Ba3   2.902299 S    
S4    O58   1.497284 D    
C72   C80   1.481830 S    
C54   C58   1.467123 A    
O18   C22   1.389629 S    
S22   O114  1.642845 S    
P16   C87   1.851896 S    
C75   C87   1.502061 S    
O132  H84   0.984695 S    
O41   C5    1.409931 S    
S25   O122  1.497836 D    
C55   C63   1.556974 S    
C37   C85   1.426217 A    
O32   Ba4   2.907437 S    
O44   C8    1.409154 S    
S16   O95   1.488063 D    
C65   C73   1.516765 S    
C33   F9    1.359921 S    
O78   H66   0.987383 S    
C6    C10   1.524883 S    
C4    C32   1.540661 S    
C44   C60   1.438954 A    
C14   C18   1.548386 S    
S17   O98   1.483184 D    
O37   C14   1.434977 S    
S18   O102  1.677183 S    
P9    O33   1.542585 D    
O26   Ba2   3.002291 S    
C17   S1    1.794651 S    
P10   O30   1.773596 S    
P11   O35   1.548819 D    
O9    Ba1   2.902299 S    
P12   O36   1.541677 D    
H4    C32   1.097220 S    
S26   O126  1.675680 S    
C76   C88   1.496407 S    
C7    S23   1.797446 S    
C1    H5    1.107222 S    
C2    H6    1.106389 S    
C3    H7    1.094679 S    
O96   H72   0.985963 S    
O69   H63   0.990118 S    
C10   S26   1.769002 S    
C2    S14   1.771415 S    
C54   C62   1.554033 S    
S12   O84   1.671385 S    
P6    O26   1.632357 D    
C22   F6    1.369902 S    
C61   C67   1.371276 D    
P1    O5    1.669670 S    
C78   S18   1.759618 S    
P8    O40   1.797360 S    
C79   S19   1.744816 S    
O22   P13   1.745851 S    
H3    C31   1.110370 S    
C16   F16   1.366852 S    
C15   F15   1.364184 S    
O16   P15   1.513689 D    
C49   C53   1.471861 A    
C13   F13   1.362871 S    
S32   O143  1.477777 D    
S1    O51   1.660297 S    
C24   F4    1.373521 S    
C28   H36   1.105618 S    
C37   C81   1.505485 S    
O24   C32   1.416568 S    
O8    Ba3   2.998880 S    
S30   O137  1.479206 D    
C35   C51   1.373053 D    
Ba1   Ba2   4.919748 S    
Ba2   O46   2.993313 S    
C1    H9    1.090282 S    
O23   C31   1.394630 S    
C80   S20   1.757387 S    
C10   H18   1.081921 S    
C7    C11   1.543029 S    
C26   S6    1.790563 S    
S21   O109  1.476579 D    
S30   O138  1.663779 S    
O108  H76   0.988940 S    
O10   Ba2   2.910771 S    
C6    H14   1.108356 S    
O14   P13   1.520171 D    
C42   H42   1.083822 S    
C22   F2    1.372023 S    
O10   P13   1.777923 S    
P3    Ba3   3.587622 S    
C30   S10   1.781370 S    
O29   Ba1   2.915908 S    
S19   O103  1.499709 D    
P1    O17   1.735379 S    
P3    O19   1.742885 S    
P15   C88   1.851610 S    
P4    O4    1.633227 D    
S28   O131  1.496324 D    
O102  H74   0.989823 S    
Ba1   O46   3.118813 S    
Ba3   O48   3.118813 S    
S29   O134  1.492607 D    
S14   O88   1.501121 D    
C12   S28   1.764592 S    
S7    O68   1.494950 D    
C20   H24   1.110349 S    
C18   S2    1.793193 S    
O40   C15   1.426233 S    
C40   C88   1.417517 A    
C39   C87   1.422406 A    
C79   C83   1.355428 D    
C21   C25   1.531318 S    
P12   C51   1.887097 S    
P2    O2    1.633227 D    
O4    Ba4   3.001246 S    
P7    O39   1.813060 S    
C71   C75   1.460398 S    
S31   O140  1.493315 D    
P10   C49   1.897643 S    
C1    S13   1.786874 S    
C43   H43   1.083888 S    
C64   H52   1.084432 S    
S15   O93   1.678706 S    
O51   H57   0.982047 S    
S9    O74   1.494273 D    
O12   Ba4   2.910771 S    
C24   F8    1.378814 S    
O5    Ba2   2.990724 S    
C23   F7    1.368211 S    
O27   Ba3   3.004142 S    
S5    O62   1.491795 D    
S21   O111  1.682267 S    
S26   O125  1.499158 D    
C36   F12   1.359596 S    
P3    C83   1.913688 S    
C32   S12   1.780343 S    
S8    O70   1.493023 D    
C8    S24   1.789394 S    
C26   H30   1.110986 S    
O99   H73   0.990967 S    
S12   O83   1.496927 D    
C25   S5    1.787680 S    
C16   S32   1.746160 S    
C11   H39   1.096183 S    
P10   O34   1.542570 D    
C51   C55   1.463083 A    
P9    C50   1.884795 S    
P11   O31   1.756157 S    
O72   H64   0.990214 S    
P2    O6    1.673120 S    
P7    O27   1.634598 D    
S11   O80   1.499971 D    
C66   H54   1.081776 S    
C21   F5    1.369748 S    
O24   P15   1.746306 S    
C34   F10   1.359817 S    
O138  H86   0.975678 S    
C37   H45   1.081959 S    
S2    O52   1.499566 D    
Ba4   O47   3.117864 S    
O129  H83   0.990437 S    
S10   O76   1.494597 D    
C50   C54   1.466330 A    
C26   H34   1.103042 S    
C1    C29   1.542336 S    
S27   O129  1.673208 S    
C12   H40   1.095931 S    
O117  H79   0.990696 S    
C42   C46   1.404456 A    
S19   O105  1.677452 S    
O60   H60   0.985534 S    
C38   C82   1.496783 S    
O6    Ba1   2.998880 S    
C23   C27   1.537788 S    
Ba4   O48   2.993313 S    
S25   O121  1.498988 D    
C41   H41   1.084739 S    
