data_mof_unit_34633.cif
_audit_creation_date              2012-12-10T19:47:24-0500
_audit_creation_method            fapswitch 2.2
_symmetry_space_group_name_H-M    P1
_symmetry_Int_Tables_number       1
_space_group_crystal_system       triclinic
_cell_length_a                    10.830963
_cell_length_b                    10.860083
_cell_length_c                    12.744048
_cell_angle_alpha                 92.513729
_cell_angle_beta                  92.19635
_cell_angle_gamma                 90.209444
_cell_volume                      1496.45664175

loop_
_atom_site_label
_atom_site_type_symbol
_atom_type_description
_atom_site_fract_x
_atom_site_fract_y
_atom_site_fract_z
_atom_type_partial_charge
C1    C     C_R   0.262073 0.503194 0.501100 0.783074
C2    C     C_R   0.737927 0.496808 0.498902 0.783084
C3    C     C_R   0.495850 0.871731 0.497702 -0.081148
C4    C     C_R   0.504160 0.128266 0.502291 -0.081152
C5    C     C_R   0.453042 0.934590 0.408764 -0.003047
C6    C     C_R   0.546974 0.065406 0.591225 -0.003039
C7    C     C_R   0.148339 0.706465 0.853612 -0.097520
C8    C     C_R   0.851525 0.293705 0.146382 -0.097457
C9    C     C_R   0.096873 0.629274 0.772897 -0.100588
C10   C     C_R   0.903045 0.370835 0.227109 -0.100556
C11   C     C_R   0.125823 0.646149 0.667900 0.103318
C12   C     C_R   0.874169 0.353878 0.332108 0.103305
C13   C     C_R   0.206729 0.742171 0.645313 -0.089494
C14   C     C_R   0.793300 0.257826 0.354689 -0.089572
C15   C     C_R   0.259853 0.817827 0.726595 -0.112827
C16   C     C_R   0.740121 0.182227 0.273394 -0.112782
C17   C     C_R   0.230737 0.799999 0.830732 -0.135301
C18   C     C_R   0.769151 0.200149 0.169251 -0.135284
C19   C     C_R   0.936104 0.561922 0.578746 -0.235534
C20   C     C_R   0.063895 0.438083 0.421261 -0.235526
C21   C     C_R   0.871567 0.495044 0.497672 -0.075713
C22   C     C_R   0.128433 0.504961 0.502333 -0.075713
C23   C     C_R   0.502445 0.261963 0.500981 0.782328
C24   C     C_R   0.497559 0.738036 0.499016 0.782310
C25   C     C_R   0.935684 0.431445 0.417823 0.002065
C26   C     C_R   0.064317 0.568560 0.582188 0.002092
C27   C     C_2   0.458269 0.474691 0.031598 0.076834
C28   C     C_2   0.541736 0.525308 0.968402 0.076792
C29   C     C_1   0.527570 0.522157 0.852549 0.284552
C30   C     C_1   0.472432 0.477843 0.147451 0.284554
C31   C     C_R   0.755639 0.259990 0.777611 -0.099986
C32   C     C_R   0.244356 0.740060 0.222349 -0.100031
C33   C     C_R   0.710788 0.194647 0.687105 -0.104358
C34   C     C_R   0.289217 0.805378 0.312865 -0.104370
C35   C     C_R   0.598942 0.128848 0.688257 0.118138
C36   C     C_R   0.401083 0.871146 0.311729 0.118147
C37   C     C_R   0.535072 0.125573 0.781950 -0.113499
C38   C     C_R   0.464976 0.874397 0.218046 -0.113501
C39   C     C_R   0.580743 0.190296 0.872464 -0.117706
C40   C     C_R   0.419297 0.809696 0.127522 -0.117696
C41   C     C_R   0.690159 0.258366 0.869889 -0.135726
C42   C     C_R   0.309850 0.741671 0.130076 -0.135724
C43   C     C_R   0.541533 0.937816 0.587869 -0.251543
C44   C     C_R   0.458486 0.062180 0.412120 -0.251537
Cu1   Cu    Cu3+1 0.492140 0.492110 0.395880 1.003443
Cu2   Cu    Cu3+1 0.507860 0.507890 0.604120 1.003437
H1    H     H_    0.723100 0.311242 0.939010 0.151047
H2    H     H_    0.276888 0.688825 0.060942 0.151081
H3    H     H_    0.227955 0.758948 0.564972 0.085121
H4    H     H_    0.772138 0.240990 0.435033 0.085131
H5    H     H_    0.322313 0.891247 0.708692 0.129974
H6    H     H_    0.677684 0.108786 0.291292 0.129964
H7    H     H_    0.885817 0.612881 0.638375 0.161606
H8    H     H_    0.114174 0.387127 0.361625 0.161620
H9    H     H_    0.840458 0.312783 0.775944 0.138476
H10   H     H_    0.159516 0.687297 0.224001 0.138475
H11   H     H_    0.761792 0.197046 0.615895 0.097736
H12   H     H_    0.238200 0.802990 0.384070 0.097756
H13   H     H_    0.448955 0.074986 0.784274 0.124210
H14   H     H_    0.551113 0.924953 0.215737 0.124225
H15   H     H_    0.530526 0.189089 0.944227 0.158343
H16   H     H_    0.469529 0.810889 0.055766 0.158377
H17   H     H_    0.575863 0.889909 0.655901 0.168113
H18   H     H_    0.424167 0.110085 0.344083 0.168115
H19   H     H_    0.270920 0.859441 0.893484 0.132583
H20   H     H_    0.728918 0.140768 0.106479 0.132548
H21   H     H_    0.122850 0.694203 0.933649 0.144408
H22   H     H_    0.876954 0.306034 0.066340 0.144418
H23   H     H_    0.033466 0.557004 0.792163 0.142837
H24   H     H_    0.966425 0.443129 0.207852 0.142846
N1    N     N_1   0.480320 0.480250 0.239400 -0.148888
N2    N     N_1   0.519680 0.519750 0.760600 -0.148891
O1    O     O_R   0.313000 0.493330 0.412070 -0.585326
O2    O     O_R   0.687000 0.506670 0.587930 -0.585340
O3    O     O_R   0.326280 0.506660 0.587930 -0.557164
O4    O     O_R   0.673720 0.493340 0.412070 -0.557156
O5    O     O_R   0.493370 0.312980 0.412070 -0.585446
O6    O     O_R   0.506630 0.687020 0.587930 -0.585452
O7    O     O_R   0.506650 0.326310 0.587930 -0.561464
O8    O     O_R   0.493350 0.673690 0.412070 -0.561474
Br1   Br    Br    0.689366 0.602407 0.028398 -0.596024
Br2   Br    Br    0.310640 0.397588 0.971601 -0.595930

loop_
_geom_bond_atom_site_label_1
_geom_bond_atom_site_label_2
_ccdc_geom_bond_type
Cu1   N1    S    
C30   N1    T    
C43   H17   S    
C39   C41   A    
Cu1   Cu2   S    
C44   H18   S    
C3    C43   A    
Cu1   O4    S    
C28   C29   S    
C19   C21   A    
C9    H23   S    
Cu2   O7    S    
C8    C10   A    
C20   C25   A    
C5    C36   S    
C40   H16   S    
C6    C35   S    
Cu1   O1    S    
C19   C26   A    
C23   O7    A    
C24   O8    A    
C7    C17   A    
C31   C33   A    
C15   H5    S    
Cu2   N2    S    
C2    O2    A    
C29   N2    T    
C19   H7    S    
C40   C42   A    
C1    C22   S    
C27   C30   S    
C3    C24   S    
Cu2   O3    S    
C39   H15   S    
C1    O3    A    
C20   H8    S    
Cu2   O6    S    
C4    C23   S    
C4    C44   A    
C11   C26   S    
C8    C18   A    
C32   C34   A    
C2    C21   S    
C41   H1    S    
C42   H2    S    
C23   O5    A    
C13   H3    S    
C9    C11   A    
C37   H13   S    
C10   C12   A    
C38   H14   S    
C10   H24   S    
C4    C6    A    
C5    C44   A    
C12   C14   A    
C8    H22   S    
C6    C43   A    
C13   C15   A    
C14   C16   A    
Cu2   O2    S    
C2    O4    A    
C24   O6    A    
C7    C9    A    
C21   C25   A    
C33   H11   S    
C31   C41   A    
C35   C37   A    
C28   Br1   S    
C27   Br2   S    
C16   H6    S    
C20   C22   A    
C3    C5    A    
C15   C17   A    
C18   H20   S    
C17   H19   S    
C12   C25   S    
C1    O1    A    
C36   C38   A    
C37   C39   A    
C38   C40   A    
C11   C13   A    
C14   H4    S    
C33   C35   A    
Cu1   O8    S    
C34   C36   A    
C7    H21   S    
C16   C18   A    
C22   C26   A    
C27   C28   D    
C34   H12   S    
C32   C42   A    
Cu1   O5    S    
C31   H9    S    
C32   H10   S    
