data_mof_unit_55516.cif
_audit_creation_date              2013-03-05T16:36:35-0500
_audit_creation_method            fapswitch 2.2
_symmetry_space_group_name_H-M    P1
_symmetry_Int_Tables_number       1
_space_group_crystal_system       triclinic
_cell_length_a                    19.254603
_cell_length_b                    18.449605
_cell_length_c                    10.621452
_cell_angle_alpha                 90.008853
_cell_angle_beta                  89.271481
_cell_angle_gamma                 89.98021
_cell_volume                      3772.85741715

loop_
_atom_site_label
_atom_site_type_symbol
_atom_site_description
_atom_site_fract_x
_atom_site_fract_y
_atom_site_fract_z
_atom_type_partial_charge
O1    O     O_R   0.398180 0.560840 0.499970 -0.608245
O2    O     O_R   0.601820 0.439160 0.500030 -0.609841
O3    O     O_R   0.601820 0.560840 0.500030 -0.608459
O4    O     O_R   0.398180 0.439160 0.499970 -0.609999
C1    C     C_R   0.366091 0.499976 0.500310 0.874620
C2    C     C_R   0.633901 0.499958 0.499659 0.874992
O5    O     O_R   0.499990 0.560810 0.316770 -0.627210
O6    O     O_R   0.500010 0.439190 0.683230 -0.625087
O7    O     O_R   0.500010 0.560810 0.683230 -0.627131
O8    O     O_R   0.499990 0.439190 0.316770 -0.624992
C3    C     C_R   0.510738 0.500027 0.260005 0.894942
C4    C     C_R   0.489244 0.500060 0.739992 0.895261
Zn1   Zn    Zn3+2 0.500000 0.581210 0.500000 0.967430
Zn2   Zn    Zn3+2 0.500000 0.418790 0.500000 0.967694
C5    C     C_R   0.540475 0.632995 0.107853 -0.168999
C6    C     C_R   0.458945 0.367736 0.892948 -0.173257
C7    C     C_R   0.460187 0.633263 0.892278 -0.169086
C8    C     C_R   0.540656 0.367558 0.106928 -0.172940
C9    C     C_R   0.522931 0.698813 0.051492 -0.032238
C10   C     C_R   0.476901 0.301914 0.948984 -0.026938
C11   C     C_R   0.477953 0.698955 0.948838 -0.032465
C12   C     C_R   0.522551 0.301820 0.050782 -0.027437
C13   C     C_R   0.484410 0.566719 0.941196 0.077257
C14   C     C_R   0.515879 0.433941 0.058553 0.081024
C15   C     C_R   0.515921 0.566623 0.058846 0.077178
C16   C     C_R   0.483893 0.434018 0.941415 0.079896
C17   C     C_R   0.477947 0.500307 0.876279 -0.198358
C18   C     C_R   0.522053 0.500193 0.123729 -0.197421
H1    H     H_    0.574203 0.633806 0.188723 0.176040
H2    H     H_    0.424683 0.367136 0.812756 0.167838
H3    H     H_    0.426505 0.634339 0.811371 0.176820
H4    H     H_    0.574940 0.366813 0.187085 0.168140
C19   C     C_R   0.743376 0.485902 0.614310 -0.021240
C20   C     C_R   0.253554 0.514552 0.610189 -0.013878
C21   C     C_R   0.256813 0.483932 0.385789 -0.020923
C22   C     C_R   0.746218 0.512526 0.388392 -0.013653
C23   C     C_R   0.815535 0.485571 0.614680 -0.170259
C24   C     C_R   0.181561 0.514011 0.607799 -0.162525
C25   C     C_R   0.184659 0.483641 0.384982 -0.170558
C26   C     C_R   0.818216 0.511953 0.390341 -0.162256
H5    H     H_    0.843168 0.475349 0.701254 0.151348
H6    H     H_    0.151683 0.525077 0.692960 0.151683
H7    H     H_    0.157189 0.471874 0.298829 0.151466
H8    H     H_    0.847933 0.521544 0.304470 0.151563
C27   C     C_R   0.852388 0.498675 0.502982 0.080397
C28   C     C_R   0.147602 0.498761 0.495692 0.080397
C29   C     C_R   0.708721 0.499711 0.500815 -0.106796
C30   C     C_R   0.291264 0.499754 0.498720 -0.107392
C31   C     C_R   0.963671 0.565079 0.499231 -0.054846
C32   C     C_R   0.036344 0.432111 0.499088 -0.054038
C33   C     C_R   0.036243 0.565077 0.495110 -0.054803
C34   C     C_R   0.963733 0.432108 0.502950 -0.054067
C35   C     C_R   0.072145 0.498599 0.495170 -0.022024
C36   C     C_R   0.927850 0.498597 0.503100 -0.021989
C37   C     C_R   0.532313 0.725767 0.594027 -0.032452
C38   C     C_R   0.467884 0.274235 0.405745 -0.032264
C39   C     C_R   0.467771 0.725781 0.405888 -0.032224
C40   C     C_R   0.532072 0.274233 0.594307 -0.032170
H9    H     H_    0.557467 0.695233 0.667620 0.145360
H10   H     H_    0.442853 0.304768 0.332003 0.147142
H11   H     H_    0.442629 0.695258 0.332272 0.145406
H12   H     H_    0.557079 0.304764 0.668071 0.146961
C41   C     C_R   0.533015 0.801857 0.596556 -0.054515
C42   C     C_R   0.467238 0.198147 0.403178 -0.054925
C43   C     C_R   0.467182 0.801870 0.403253 -0.054812
C44   C     C_R   0.532674 0.198148 0.596938 -0.055068
C45   C     C_R   0.500098 0.841332 0.499910 0.173648
C46   C     C_R   0.499971 0.158688 0.500044 0.173482
N1    N     N_R   0.500000 0.689440 0.500000 -0.106384
N2    N     N_R   0.500000 0.310560 0.500000 -0.106549
C47   C     C_R   0.437153 0.961661 0.516591 0.200012
C48   C     C_R   0.562921 0.038384 0.483372 0.200368
C49   C     C_R   0.562984 0.961692 0.483334 0.199636
C50   C     C_R   0.437106 0.038351 0.516645 0.200018
C51   C     C_R   0.499995 0.077088 0.500038 -0.227079
C52   C     C_R   0.500085 0.922943 0.499920 -0.226982
C53   C     C_1   0.551644 0.235189 0.097708 0.176021
N3    N     N_1   0.575284 0.181619 0.134099 -0.088362
C54   C     C_1   0.449050 0.765611 0.901616 0.178397
N4    N     N_1   0.425548 0.819203 0.865040 -0.088335
C55   C     C_1   0.447693 0.235390 0.901903 0.176151
N5    N     N_1   0.423966 0.181902 0.865390 -0.088117
C56   C     C_1   0.552014 0.765308 0.098951 0.178287
N6    N     N_1   0.575651 0.818782 0.135711 -0.087972
C57   C     C_1   0.705837 0.472705 0.730891 0.183200
N7    N     N_1   0.675666 0.462179 0.824053 -0.180754
C58   C     C_1   0.287328 0.528416 0.728454 0.154835
N8    N     N_1   0.313906 0.539313 0.823670 -0.204793
C59   C     C_1   0.294554 0.468667 0.270170 0.184219
N9    N     N_1   0.324889 0.456487 0.177781 -0.181751
C60   C     C_1   0.712218 0.524659 0.269776 0.153012
N10   N     N_1   0.685469 0.534205 0.174285 -0.204163
C61   C     C_1   0.925776 0.633147 0.500370 0.204691
N11   N     N_1   0.895502 0.687347 0.501272 -0.128811
C62   C     C_1   0.074293 0.364107 0.500612 0.204092
N12   N     N_1   0.104615 0.309947 0.501818 -0.128951
C63   C     C_1   0.074061 0.633119 0.490066 0.204867
N13   N     N_1   0.104273 0.687303 0.486054 -0.128966
C64   C     C_1   0.925870 0.364068 0.505363 0.204191
N14   N     N_1   0.895618 0.309881 0.507293 -0.128984
C65   C     C_1   0.566563 0.837924 0.699956 0.233787
N15   N     N_1   0.593394 0.866793 0.782959 -0.116852
C66   C     C_1   0.433948 0.162063 0.299518 0.234438
N16   N     N_1   0.407322 0.133180 0.216313 -0.117059
C67   C     C_1   0.433852 0.837943 0.299616 0.234221
N17   N     N_1   0.407202 0.866814 0.216417 -0.116814
C68   C     C_1   0.565811 0.162071 0.700773 0.234825
N18   N     N_1   0.592307 0.133195 0.784129 -0.117058
N19   N     N_R   0.373520 0.923044 0.539952 0.238882
O9    O     O_R   0.322763 0.927299 0.460678 -0.291494
O10   O     O_R   0.368896 0.877511 0.633081 -0.357801
N20   N     N_R   0.626529 0.077027 0.459955 0.239065
O11   O     O_R   0.631159 0.122395 0.366585 -0.357966
O12   O     O_R   0.677159 0.073116 0.539544 -0.291939
N21   N     N_R   0.626707 0.923122 0.460192 0.238603
O13   O     O_R   0.677734 0.928239 0.538734 -0.290753
O14   O     O_R   0.631273 0.876944 0.367994 -0.358412
N22   N     N_R   0.373416 0.076943 0.539913 0.238775
O15   O     O_R   0.368843 0.122884 0.632472 -0.358453
O16   O     O_R   0.322503 0.072203 0.461058 -0.291244

loop_
_geom_bond_atom_site_label_1
_geom_bond_atom_site_label_2
_geom_bond_distance
_ccdc_geom_bond_type
C33   C63   1.452127 S    
C42   C66   1.443706 S    
C44   C46   1.414994 A    
C58   N8    1.156838 T    
C48   N20   1.436353 S    
C40   H12   1.082872 S    
C61   N11   1.157274 T    
C37   H9    1.082816 S    
N21   O14   1.300025 A    
C62   N12   1.157284 T    
C44   C68   1.443698 S    
C41   C65   1.443716 S    
O3    C2    1.281690 A    
N20   O12   1.300413 A    
C63   N13   1.157288 T    
C57   N7    1.157527 T    
C46   C51   1.505490 S    
O5    C3    1.288554 A    
C16   C17   1.410550 A    
C7    C13   1.414473 A    
O1    C1    1.281852 A    
C42   C46   1.414988 A    
C9    C11   1.401027 A    
C14   C16   1.395271 A    
C24   H6    1.085111 S    
N19   O10   1.300053 A    
C47   C52   1.415558 A    
C32   C62   1.451894 S    
C5    C15   1.414373 A    
C6    H2    1.084023 S    
C31   C36   1.407752 A    
C22   C29   1.407601 A    
O7    Zn1   1.982288 S    
N22   O15   1.300056 A    
C19   C57   1.446532 S    
C5    C9    1.397179 A    
C40   C44   1.404078 A    
C56   N6    1.156544 T    
C31   C33   1.397476 A    
C37   C41   1.404165 A    
C32   C34   1.398168 A    
C68   N18   1.157335 T    
C38   C42   1.404117 A    
C13   C17   1.412183 A    
O3    Zn1   1.996075 S    
O6    C4    1.289997 A    
C8    C12   1.397690 A    
C10   C55   1.442272 S    
O4    Zn2   1.996078 S    
Zn2   N2    1.996799 S    
O2    C2    1.280712 A    
C48   C51   1.415336 A    
C9    C56   1.442290 S    
C21   C30   1.408640 A    
C43   C67   1.443739 S    
N20   O11   1.300048 A    
C34   C36   1.407667 A    
C5    H1    1.083499 S    
C6    C16   1.413394 A    
C26   C27   1.394394 A    
C50   N22   1.436506 S    
C1    C30   1.441081 S    
C41   C45   1.415027 A    
C32   C35   1.407669 A    
C50   C51   1.415406 A    
C4    C17   1.461081 S    
C65   N15   1.157337 T    
C22   C26   1.386742 A    
C2    C29   1.440838 S    
C60   N10   1.156838 T    
C40   N2    1.359982 A    
C25   H7    1.084706 S    
C55   N5    1.156573 T    
C43   C45   1.415050 A    
C53   N3    1.156580 T    
C19   C23   1.389458 A    
C38   H10   1.082896 S    
C33   C35   1.407682 A    
C21   C25   1.389444 A    
C64   N14   1.157277 T    
C26   H8    1.085093 S    
C6    C10   1.397741 A    
C11   C54   1.442362 S    
C37   N1    1.359991 A    
C25   C28   1.395732 A    
C21   C59   1.446571 S    
C22   C60   1.444620 S    
C10   C12   1.402080 A    
C27   C36   1.453009 S    
C38   N2    1.359999 A    
O8    Zn2   1.982288 S    
C19   C29   1.408460 A    
C49   C52   1.415661 A    
C8    C14   1.413365 A    
C8    H4    1.084021 S    
C23   C27   1.395812 A    
C20   C30   1.407639 A    
O6    Zn2   1.982173 S    
C20   C24   1.386778 A    
C14   C18   1.410445 A    
C12   C53   1.442306 S    
C39   C43   1.404151 A    
C48   C49   1.414932 A    
C47   C50   1.414909 A    
C39   H11   1.082833 S    
C67   N17   1.157342 T    
C34   C64   1.451930 S    
C49   N21   1.436632 S    
C31   C61   1.452165 S    
N19   O9    1.300431 A    
Zn1   N1    1.996799 S    
C3    C18   1.461018 S    
C7    H3    1.083350 S    
O4    C1    1.280687 A    
C47   N19   1.436425 S    
C28   C35   1.452982 S    
C20   C58   1.444646 S    
C13   C15   1.396042 A    
C23   H5    1.084734 S    
O2    Zn2   1.996330 S    
O7    C4    1.288365 A    
N22   O16   1.300416 A    
C24   C28   1.394413 A    
O8    C3    1.289725 A    
C15   C18   1.411815 A    
C54   N4    1.156564 T    
O5    Zn1   1.982173 S    
O1    Zn1   1.996333 S    
C66   N16   1.157334 T    
C45   C52   1.505683 S    
C39   N1    1.359975 A    
C59   N9    1.157530 T    
N21   O13   1.300403 A    
C7    C11   1.397176 A    
