data_mof_unit_45426.cif
_audit_creation_date              2012-12-10T17:41:02-0500
_audit_creation_method            fapswitch 2.2
_symmetry_space_group_name_H-M    P1
_symmetry_Int_Tables_number       1
_space_group_crystal_system       triclinic
_cell_length_a                    14.530167
_cell_length_b                    15.872482
_cell_length_c                    9.996369
_cell_angle_alpha                 91.724147
_cell_angle_beta                  88.755004
_cell_angle_gamma                 89.098669
_cell_volume                      2303.56328523

loop_
_atom_site_label
_atom_site_type_symbol
_atom_type_description
_atom_site_fract_x
_atom_site_fract_y
_atom_site_fract_z
_atom_type_partial_charge
C1    C     C_R   0.380471 0.878891 0.499127 0.862480
C2    C     C_R   0.748267 0.191582 0.371963 -0.027138
C3    C     C_R   0.264273 0.317782 0.399168 -0.054535
C4    C     C_R   0.248332 0.691531 0.371981 -0.027139
C5    C     C_R   0.690253 0.814153 0.494554 -0.145449
C6    C     C_R   0.709782 0.164167 0.493507 -0.177903
C7    C     C_R   0.190250 0.314153 0.494553 -0.145334
C8    C     C_R   0.209783 0.664166 0.493513 -0.177769
C9    C     C_R   0.332567 0.007512 0.145126 -0.204250
C10   C     C_R   0.832568 0.507549 0.145126 -0.204039
C11   C     C_R   0.249737 0.012401 0.078314 -0.144435
C12   C     C_R   0.388353 0.126042 0.503669 0.872076
C13   C     C_R   0.749739 0.512481 0.078318 -0.143896
C14   C     C_R   0.249831 0.015541 0.939758 0.378637
C15   C     C_R   0.749834 0.515600 0.939760 0.378866
C16   C     C_R   0.333076 0.014968 0.867511 -0.303544
C17   C     C_R   0.833078 0.514987 0.867511 -0.303549
C18   C     C_R   0.417877 0.008464 0.931201 0.126909
C19   C     C_R   0.917877 0.508469 0.931200 0.126835
C20   C     C_R   0.417716 0.006313 0.075052 0.186636
C21   C     C_R   0.917717 0.506323 0.075051 0.186404
C22   C     C_R   0.578108 0.989860 0.070210 -0.009932
C23   C     C_R   0.880466 0.378896 0.499125 0.862423
C24   C     C_R   0.078108 0.489853 0.070210 -0.009400
C25   C     C_R   0.628054 0.111703 0.498652 0.880062
C26   C     C_R   0.619065 0.878758 0.497620 0.892692
C27   C     C_R   0.128054 0.611703 0.498651 0.880316
C28   C     C_R   0.119063 0.378757 0.497620 0.892885
C29   C     C_R   0.578650 0.987381 0.927863 0.021909
C30   C     C_R   0.078650 0.487377 0.927863 0.021747
C31   C     C_R   0.304923 0.206921 0.760687 -0.150517
C32   C     C_R   0.285778 0.814769 0.741868 -0.234160
C33   C     C_R   0.804954 0.706947 0.760692 -0.150517
C34   C     C_R   0.888358 0.626044 0.503668 0.871958
C35   C     C_R   0.785760 0.314785 0.741851 -0.233913
C36   C     C_R   0.240487 0.218599 0.866963 -0.020381
C37   C     C_R   0.292805 0.766899 0.856050 0.006136
C38   C     C_R   0.740528 0.718641 0.866980 -0.020376
C39   C     C_R   0.792830 0.266922 0.856033 0.006276
C40   C     C_R   0.648440 0.736676 0.836726 0.391690
C41   C     C_R   0.790653 0.178852 0.842087 0.431066
C42   C     C_R   0.148403 0.236636 0.836694 0.391670
C43   C     C_R   0.290638 0.678831 0.842081 0.431317
C44   C     C_R   0.626373 0.756058 0.705901 -0.162806
C45   C     C_R   0.338586 0.260517 0.407163 -0.134412
C46   C     C_R   0.762245 0.143079 0.721209 -0.206925
C47   C     C_R   0.126350 0.256042 0.705874 -0.162855
C48   C     C_R   0.262237 0.643068 0.721198 -0.206981
C49   C     C_R   0.696698 0.762298 0.606601 0.017203
C50   C     C_R   0.746941 0.194042 0.612079 0.044308
C51   C     C_R   0.196684 0.262289 0.606590 0.017134
C52   C     C_R   0.246928 0.694042 0.612087 0.044149
C53   C     C_R   0.280301 0.222665 0.627626 0.083807
C54   C     C_R   0.281057 0.774962 0.615448 0.081209
C55   C     C_R   0.780320 0.722679 0.627630 0.083835
C56   C     C_R   0.315211 0.754057 0.376560 -0.062305
C57   C     C_R   0.781045 0.274972 0.615437 0.081016
C58   C     C_R   0.338312 0.205773 0.515022 -0.196724
C59   C     C_R   0.320138 0.805759 0.495413 -0.177206
C60   C     C_R   0.838322 0.705780 0.515017 -0.196708
C61   C     C_R   0.820114 0.305778 0.495403 -0.177342
C62   C     C_2   0.423641 0.264403 0.319881 0.544071
C63   C     C_2   0.388271 0.752211 0.269482 0.486326
C64   C     C_2   0.923635 0.764402 0.319839 0.544034
C65   C     C_2   0.888200 0.252228 0.269440 0.486332
C66   C     C_2   0.667056 0.967890 0.858948 0.456651
C67   C     C_R   0.838590 0.760521 0.407151 -0.134349
C68   C     C_2   0.167055 0.467887 0.858947 0.456647
C69   C     C_2   0.269937 0.212474 0.007346 0.470440
C70   C     C_2   0.311838 0.809937 0.983175 0.476146
C71   C     C_2   0.769995 0.712530 0.007360 0.470287
C72   C     C_2   0.811963 0.309973 0.983110 0.475938
C73   C     C_2   0.768460 0.885640 0.301030 0.530838
C74   C     C_2   0.725118 0.151560 0.242189 0.591159
C75   C     C_2   0.268492 0.385663 0.301077 0.530287
C76   C     C_2   0.225319 0.651391 0.242246 0.591260
C77   C     C_R   0.815149 0.254101 0.376530 -0.061982
C78   C     C_R   0.764268 0.817780 0.399158 -0.054669
Cl1   Cl    Cl    0.145069 0.016739 0.855514 -0.518022
Cl2   Cl    Cl    0.645071 0.516813 0.855518 -0.517997
Cl3   Cl    Cl    0.560275 0.742402 0.960492 -0.615116
Cl4   Cl    Cl    0.833692 0.112751 0.963987 -0.478363
Cl5   Cl    Cl    0.060228 0.242326 0.960442 -0.615238
Cl6   Cl    Cl    0.333770 0.612725 0.963899 -0.478586
H1    H     H_    0.329122 0.014651 0.761141 0.225385
H2    H     H_    0.264685 0.576137 0.705031 0.166228
H3    H     H_    0.641446 0.982025 0.123628 0.168370
H4    H     H_    0.141447 0.482020 0.123629 0.168528
H5    H     H_    0.327571 0.001313 0.251069 0.220251
H6    H     H_    0.827569 0.501336 0.251067 0.220209
H7    H     H_    0.185229 0.011965 0.134570 0.217738
H8    H     H_    0.685231 0.512073 0.134576 0.217657
H9    H     H_    0.485199 0.229716 0.345943 0.097658
H10   H     H_    0.409718 0.808112 0.219519 0.114663
H11   H     H_    0.985154 0.729603 0.345759 0.097895
H12   H     H_    0.829123 0.514656 0.761140 0.225369
H13   H     H_    0.909736 0.308128 0.219556 0.114514
H14   H     H_    0.676669 0.981936 0.756392 0.115640
H15   H     H_    0.176669 0.481939 0.756394 0.115674
H16   H     H_    0.220732 0.220656 0.089963 0.100458
H17   H     H_    0.378200 0.838451 0.997344 0.059540
H18   H     H_    0.720795 0.720702 0.089984 0.100392
H19   H     H_    0.878479 0.338182 0.997357 0.059926
H20   H     H_    0.767710 0.870579 0.194493 0.122455
H21   H     H_    0.755751 0.091192 0.212694 0.150290
H22   H     H_    0.267902 0.370620 0.194529 0.122784
H23   H     H_    0.375555 0.191800 0.783617 0.223036
H24   H     H_    0.256399 0.591235 0.212628 0.150726
H25   H     H_    0.285565 0.881646 0.751405 0.189563
H26   H     H_    0.875587 0.691823 0.783610 0.223040
H27   H     H_    0.785543 0.381664 0.751380 0.189591
H28   H     H_    0.555466 0.772080 0.685244 0.184986
H29   H     H_    0.764672 0.076147 0.705067 0.166222
H30   H     H_    0.055446 0.272072 0.685210 0.184946
N1    N     N_R   0.498810 0.000000 0.142780 -0.142867
N2    N     N_R   0.998810 0.500000 0.142780 -0.142846
N3    N     N_R   0.498740 1.000000 0.857170 -0.159718
N4    N     N_R   0.998740 0.500000 0.857170 -0.159717
O1    O     O_R   0.408390 0.908380 0.614690 -0.634294
O2    O     O_R   0.591620 0.908390 0.614640 -0.660153
O3    O     O_R   0.091620 0.591610 0.614640 -0.627081
O4    O     O_R   0.091620 0.408390 0.614640 -0.660197
O5    O     O_R   0.591610 0.091610 0.385310 -0.613171
O6    O     O_R   0.591610 0.908390 0.385310 -0.615903
O7    O     O_R   0.091610 0.591610 0.385310 -0.612606
O8    O     O_R   0.091610 0.408390 0.385310 -0.615772
O9    O     O_2   0.427973 0.307446 0.220993 -0.486317
O10   O     O_2   0.426254 0.685537 0.235689 -0.488517
O11   O     O_2   0.928015 0.807592 0.221103 -0.486151
O12   O     O_R   0.408390 0.091620 0.614690 -0.637328
O13   O     O_2   0.926089 0.185526 0.235551 -0.488208
O14   O     O_2   0.730857 0.935091 0.916916 -0.555371
O15   O     O_2   0.230855 0.435084 0.916912 -0.555459
O16   O     O_2   0.350365 0.198308 0.032730 -0.541247
O17   O     O_2   0.251773 0.817887 0.069756 -0.524481
O18   O     O_2   0.850430 0.698386 0.032732 -0.541318
O19   O     O_2   0.751828 0.318302 0.069533 -0.524307
O20   O     O_2   0.775281 0.958815 0.339852 -0.598584
O21   O     O_2   0.667926 0.183950 0.171489 -0.499487
O22   O     O_2   0.275102 0.458847 0.339956 -0.599071
O23   O     O_R   0.908390 0.408380 0.614690 -0.634321
O24   O     O_2   0.167821 0.683451 0.171684 -0.499585
O25   O     O_R   0.908390 0.591620 0.614690 -0.637306
O26   O     O_R   0.408370 0.908380 0.385360 -0.664518
O27   O     O_R   0.408370 0.091620 0.385360 -0.629777
O28   O     O_R   0.908370 0.408380 0.385360 -0.664537
O29   O     O_R   0.908370 0.591620 0.385360 -0.629899
O30   O     O_R   0.591620 0.091610 0.614640 -0.626981
Zn1   Zn    Zn3+2 0.500010 0.000000 0.653130 0.940631
Zn2   Zn    Zn3+2 0.000010 0.500000 0.653130 0.940607
Zn3   Zn    Zn3+2 0.499980 0.000000 0.346870 0.972318
Zn4   Zn    Zn3+2 0.999980 0.500000 0.346870 0.972501

loop_
_geom_bond_atom_site_label_1
_geom_bond_atom_site_label_2
_ccdc_geom_bond_type
C44   C49   A    
O1    Zn1   S    
C47   H30   S    
C33   C55   A    
C69   O16   D    
C22   C29   A    
C36   C42   A    
C4    C8    A    
C27   O3    A    
C70   H17   S    
C39   C41   A    
C63   H10   S    
O2    Zn1   S    
C12   O12   A    
O4    Zn2   S    
C68   O15   D    
C19   C21   A    
C26   O2    A    
O26   Zn3   S    
C3    C7    A    
C75   O22   D    
C1    C59   S    
C62   O9    D    
C11   C14   A    
C28   O4    A    
C6    C25   S    
C73   O20   D    
C45   C62   S    
O3    Zn2   S    
C1    O1    A    
N4    Zn2   S    
O8    Zn4   S    
O25   Zn2   S    
C19   N4    A    
C52   C54   A    
C41   C46   A    
C14   C16   A    
C3    C75   S    
C43   C48   A    
C8    C52   A    
C40   C44   A    
C63   O10   D    
C2    C74   S    
C12   C58   S    
C76   H24   S    
C55   C60   A    
C4    C56   A    
C34   C60   S    
C43   Cl6   S    
C5    C49   A    
C2    C6    A    
C67   C78   A    
C26   O6    A    
C21   N2    A    
C32   C54   A    
C65   O13   D    
C28   O8    A    
O23   Zn2   S    
C66   O14   D    
C54   C59   A    
C73   H20   S    
C10   C21   A    
C34   O25   A    
C23   O28   A    
O5    Zn3   S    
C45   C58   A    
C65   C77   S    
C32   H25   S    
C64   C67   S    
O30   Zn1   S    
C60   C67   A    
C9    H5    S    
C71   O18   D    
C47   C51   A    
C30   N4    A    
C49   C55   A    
C29   N3    A    
C3    C45   A    
C6    C50   A    
C7    C28   S    
C29   C66   S    
C51   C53   A    
C12   O27   A    
C37   C43   A    
C35   C39   A    
O7    Zn4   S    
C9    C11   A    
C34   O29   A    
C9    C20   A    
C15   Cl2   S    
C23   C61   S    
C73   C78   S    
O12   Zn1   S    
C56   C63   S    
C17   H12   S    
C24   H4    S    
C32   C37   A    
C31   C53   A    
C25   O5    A    
C18   N3    A    
O27   Zn3   S    
C39   C72   S    
O28   Zn4   S    
C44   H28   S    
C72   O19   D    
O6    Zn3   S    
C24   N2    A    
C61   C77   A    
C13   C15   A    
C13   H8    S    
C70   O17   D    
C48   H2    S    
N2    Zn4   S    
C35   H27   S    
C36   C69   S    
C15   C17   A    
C38   C71   S    
C22   N1    A    
C46   H29   S    
C50   C57   A    
C31   H23   S    
C40   Cl3   S    
C71   H18   S    
C42   Cl5   S    
C64   H11   S    
C10   C13   A    
C22   H3    S    
C20   N1    A    
C53   C58   A    
C57   C61   A    
C72   H19   S    
C74   O21   D    
C46   C50   A    
C33   C38   A    
C56   C59   A    
C35   C57   A    
C66   H14   S    
O29   Zn4   S    
C68   H15   S    
C65   H13   S    
C2    C77   A    
C74   H21   S    
C38   C40   A    
C27   O7    A    
C16   H1    S    
C41   Cl4   S    
C17   C19   A    
C25   O30   A    
C18   C20   A    
C42   C47   A    
C24   C30   A    
C4    C76   S    
C14   Cl1   S    
C7    C51   A    
C5    C26   S    
C69   H16   S    
C11   H7    S    
C48   C52   A    
C64   O11   D    
C10   H6    S    
C75   H22   S    
C16   C18   A    
C62   H9    S    
N1    Zn3   S    
C1    O26   A    
C8    C27   S    
C31   C36   A    
C23   O23   A    
N3    Zn1   S    
C33   H26   S    
C5    C78   A    
C37   C70   S    
C30   C68   S    
C76   O24   D    
