data_mof_unit_37124.cif
_audit_creation_date              2013-03-05T16:32:26-0500
_audit_creation_method            fapswitch 2.2
_symmetry_space_group_name_H-M    P1
_symmetry_Int_Tables_number       1
_space_group_crystal_system       triclinic
_cell_length_a                    10.623703
_cell_length_b                    10.822494
_cell_length_c                    9.63896
_cell_angle_alpha                 90.972587
_cell_angle_beta                  89.825409
_cell_angle_gamma                 91.938289
_cell_volume                      1107.44200194

loop_
_atom_site_label
_atom_site_type_symbol
_atom_site_description
_atom_site_fract_x
_atom_site_fract_y
_atom_site_fract_z
_atom_type_partial_charge
O1    O     O_R   0.500000 0.319640 0.618810 -0.532730
O2    O     O_R   0.500010 0.319680 0.381230 -0.557688
C1    C     C_R   0.496665 0.262733 0.499297 0.794543
O3    O     O_R   0.316850 0.499950 0.618770 -0.554642
O4    O     O_R   0.316860 0.499990 0.381190 -0.552427
C2    C     C_R   0.259652 0.500380 0.500236 0.812828
Cu1   Cu    Cu3+1 0.499990 0.499980 0.640670 1.057600
Cu2   Cu    Cu3+1 0.500010 0.500020 0.359330 1.069545
O5    O     O_R   0.499990 0.680320 0.618770 -0.590526
O6    O     O_R   0.500000 0.680360 0.381190 -0.550968
O7    O     O_R   0.683140 0.500010 0.618810 -0.556391
O8    O     O_R   0.683150 0.500050 0.381230 -0.552180
C3    C     C_R   0.500244 0.737527 0.501217 0.791681
C4    C     C_R   0.740432 0.497938 0.499914 0.809918
C5    C     C_3   0.039556 0.381399 0.501195 -0.190319
C6    C     C_3   0.958038 0.436598 0.386722 -0.052695
H1    H     H_    0.074953 0.286054 0.501869 0.181953
C7    C     C_3   0.877651 0.496482 0.500065 -0.056404
C8    C     C_3   0.956929 0.440944 0.614612 -0.057957
C9    C     C_3   0.042537 0.559415 0.614420 -0.045940
C10   C     C_3   0.961083 0.614718 0.499929 -0.150996
C11   C     C_3   0.043572 0.555159 0.386567 -0.043982
C12   C     C_3   0.122714 0.499772 0.500902 -0.072135
H2    H     H_    0.925985 0.710167 0.498696 0.187635
C13   C     C_R   0.538792 0.069103 0.613379 0.141601
C14   C     C_R   0.488483 0.129290 0.501159 -0.146223
C15   C     C_R   0.424751 0.059264 0.398117 -0.118610
C16   C     C_R   0.425093 0.930290 0.400681 -0.104794
H3    H     H_    0.377110 0.877429 0.319168 0.214304
C17   C     C_R   0.491528 0.870862 0.504740 -0.089947
C18   C     C_R   0.541346 0.941590 0.615630 0.064248
C19   C     C_3   0.672019 0.946345 0.674640 -0.449724
C20   C     C_3   0.667628 0.086228 0.672500 0.121097
H4    H     H_    0.736858 0.130916 0.600535 0.099499
C21   C     C_R   0.600315 0.549199 0.073127 0.089655
N1    N     N_R   0.500800 0.500930 0.147930 -0.264236
C22   C     C_R   0.407067 0.439624 0.072814 0.371606
C23   C     C_R   0.407403 0.439136 0.924613 0.369951
N2    N     N_R   0.500800 0.500890 0.852020 -0.274804
C24   C     C_R   0.601969 0.544549 0.926527 0.096424
C25   C     C_3   0.664014 0.668342 0.912904 0.026578
C26   C     C_3   0.653611 0.681143 0.071002 0.421179
H5    H     H_    0.921040 0.385674 0.293714 0.211891
H6    H     H_    0.742583 0.908330 0.601427 0.200051
N3    N     N_R   0.665899 0.144057 0.810964 0.179057
O9    O     O_R   0.742333 0.237436 0.839149 -0.327074
O10   O     O_R   0.585277 0.106916 0.904744 -0.258413
N4    N     N_R   0.307067 0.374148 0.141734 0.158465
O11   O     O_R   0.196817 0.422709 0.147208 -0.317543
O12   O     O_R   0.313479 0.255143 0.152398 -0.329730
N5    N     N_R   0.309843 0.370720 0.852335 0.164352
O13   O     O_R   0.326880 0.255754 0.818135 -0.287206
O14   O     O_R   0.195876 0.411051 0.854225 -0.310626
N6    N     N_R   0.793473 0.659282 0.860902 0.168937
O15   O     O_R   0.840082 0.742917 0.778460 -0.384637
O16   O     O_R   0.863215 0.568286 0.896096 -0.287137
H7    H     H_    0.605976 0.732231 0.854064 0.135782
N7    N     N_R   0.775925 0.699649 0.140476 0.151867
O17   O     O_R   0.837504 0.805202 0.131017 -0.263949
O18   O     O_R   0.834637 0.605603 0.186971 -0.354070
N8    N     N_R   0.562202 0.773934 0.112686 0.095729
O19   O     O_R   0.444167 0.758567 0.078293 -0.380513
O20   O     O_R   0.601373 0.881881 0.159679 -0.282370
H8    H     H_    0.919169 0.392859 0.707347 0.233412
H9    H     H_    0.080057 0.610020 0.707379 0.220231
H10   H     H_    0.081786 0.603237 0.293922 0.219916
H11   H     H_    0.377332 0.103245 0.314827 0.229514
H12   H     H_    0.675882 0.911039 0.781409 0.258538

loop_
_geom_bond_atom_site_label_1
_geom_bond_atom_site_label_2
_geom_bond_distance
_ccdc_geom_bond_type
C13   C18   1.381730 A    
O4    Cu2   1.956459 S    
Cu1   O7    1.956458 S    
C24   C25   1.480659 S    
C22   C23   1.428418 A    
N5    O13   1.300181 A    
C7    C10   1.531780 S    
C20   N3    1.464780 S    
C25   C26   1.531840 S    
C4    C7    1.458395 S    
C1    C14   1.444278 S    
C8    C9    1.546696 S    
C6    H5    1.110251 S    
C9    C12   1.531980 S    
Cu2   O8    1.957671 S    
C8    H8    1.109156 S    
C19   H12   1.105211 S    
C18   C19   1.500783 S    
C19   C20   1.516667 S    
C26   N7    1.469768 S    
N4    O12   1.297871 A    
C21   C24   1.413187 A    
C19   H6    1.112219 S    
C25   H7    1.106437 S    
Cu1   Cu2   2.711831 S    
C6    C7    1.533184 S    
O1    Cu1   1.959514 S    
N3    O9    1.300375 A    
C22   N4    1.425775 S    
C5    C8    1.545783 S    
C26   N8    1.470668 S    
N6    O15   1.299091 A    
C14   C15   1.401108 A    
O4    C2    1.296870 A    
O3    Cu1   1.957671 S    
N4    O11   1.300445 A    
C2    C12   1.454573 S    
C16   C17   1.405253 A    
C16   H3    1.082555 S    
C13   C14   1.389588 A    
O8    C4    1.298319 A    
C20   H4    1.113659 S    
O2    C1    1.303199 A    
N3    O10   1.302537 A    
C17   C18   1.398848 A    
O7    C4    1.296210 A    
N6    O16   1.302349 A    
C25   N6    1.468214 S    
O3    C2    1.295863 A    
C15   H11   1.075418 S    
N8    O19   1.302514 A    
C5    C12   1.531420 S    
N7    O18   1.298452 A    
C5    C6    1.545172 S    
C11   H10   1.110075 S    
Cu1   O5    1.966669 S    
C3    C17   1.448930 S    
C15   C16   1.396588 A    
C23   N2    1.373889 A    
C9    C10   1.545373 S    
C9    H9    1.110156 S    
N8    O20   1.301339 A    
C7    C8    1.533666 S    
Cu2   N1    2.037858 S    
C10   H2    1.110299 S    
C13   C20   1.488784 S    
N2    C24   1.361262 A    
C5    H1    1.110270 S    
C21   C26   1.518644 S    
Cu1   N2    2.037095 S    
C11   C12   1.530675 S    
N1    C22   1.378202 A    
O5    C3    1.300341 A    
C23   N5    1.429265 S    
N5    O14   1.300813 A    
N7    O17   1.301478 A    
C10   C11   1.544633 S    
Cu2   O6    1.959514 S    
O2    Cu2   1.966671 S    
C21   N1    1.371592 A    
C6    C11   1.547042 S    
O1    C1    1.297034 A    
O6    C3    1.302647 A    
