data_mof_unit_20703.cif
_audit_creation_date              2013-03-05T16:08:30-0500
_audit_creation_method            fapswitch 2.2
_symmetry_space_group_name_H-M    P1
_symmetry_Int_Tables_number       1
_space_group_crystal_system       triclinic
_cell_length_a                    14.803747
_cell_length_b                    6.933135
_cell_length_c                    13.499049
_cell_angle_alpha                 90.000076
_cell_angle_beta                  99.781226
_cell_angle_gamma                 89.999949
_cell_volume                      1365.3534123

loop_
_atom_site_label
_atom_site_type_symbol
_atom_site_description
_atom_site_fract_x
_atom_site_fract_y
_atom_site_fract_z
_atom_type_partial_charge
O1    O     O_R   0.586930 0.505770 0.416350 -0.558706
O2    O     O_R   0.413070 0.005770 0.583650 -0.558707
O3    O     O_R   0.397900 0.173100 0.389630 -0.585460
O4    O     O_R   0.602100 0.673100 0.610370 -0.585460
C1    C     C_R   0.364297 0.345421 0.362825 0.997126
C2    C     C_R   0.635703 0.845421 0.637174 0.997126
O5    O     O_R   0.585280 0.175870 0.404330 -0.584010
O6    O     O_R   0.414720 0.675870 0.595670 -0.584010
O7    O     O_R   0.601790 0.008380 0.598460 -0.596976
O8    O     O_R   0.398210 0.508380 0.401540 -0.596976
C3    C     C_R   0.614727 0.344761 0.382868 0.939216
C4    C     C_R   0.385273 0.844761 0.617132 0.939215
O9    O     O_3   0.505200 0.340120 0.563670 -0.261983
O10   O     O_3   0.494800 0.840120 0.436330 -0.261982
V1    V     V_3+5 0.499040 0.064180 0.488190 1.239969
V2    V     V_3+5 0.500960 0.564180 0.511810 1.239968
C5    C     C_R   0.322604 0.996046 0.761117 -0.052768
C6    C     C_R   0.677396 0.496047 0.238884 -0.052775
C7    C     C_R   0.318641 0.852487 0.687461 -0.127068
C8    C     C_R   0.681358 0.352487 0.312538 -0.127057
C9    C     C_R   0.250135 0.710599 0.684841 -0.103881
C10   C     C_R   0.749864 0.210598 0.315158 -0.103880
H1    H     H_    0.243965 0.597913 0.628901 0.184055
H2    H     H_    0.756034 0.097910 0.371097 0.184055
C11   C     C_R   0.184398 0.721518 0.749031 -0.100729
C12   C     C_R   0.815601 0.221517 0.250968 -0.100735
H3    H     H_    0.130888 0.613521 0.742431 0.115602
H4    H     H_    0.869112 0.113519 0.257567 0.115601
C13   C     C_R   0.184395 0.876904 0.816452 -0.183295
C14   C     C_R   0.815605 0.376905 0.183548 -0.183296
C15   C     C_R   0.257284 0.007862 0.824003 0.077517
C16   C     C_R   0.742717 0.507864 0.175998 0.077506
C17   C     C_3   0.257256 0.223627 0.821593 0.001836
C18   C     C_3   0.742746 0.723629 0.178412 0.001847
C19   C     C_3   0.328721 0.209887 0.752661 0.501629
C20   C     C_3   0.671280 0.709887 0.247343 0.501621
H5    H     H_    0.190602 0.287177 0.786270 0.106620
H6    H     H_    0.809399 0.787179 0.213736 0.106616
H7    H     H_    0.397644 0.267866 0.784179 0.081566
H8    H     H_    0.602357 0.767868 0.215825 0.081574
C21   C     C_1   0.783445 0.877134 0.782908 -0.183308
C22   C     C_1   0.216555 0.377134 0.217092 -0.183312
C23   C     C_1   0.716157 0.860130 0.716856 -0.212602
C24   C     C_1   0.283843 0.360130 0.283143 -0.212597
O11   O     O_R   0.101720 0.231700 0.098560 -0.581689
O12   O     O_R   0.898280 0.731700 0.901440 -0.581680
O13   O     O_R   0.914700 0.558980 0.095690 -0.599338
O14   O     O_R   0.085300 0.058980 0.904310 -0.599350
C25   C     C_R   0.885474 0.389780 0.117317 0.962224
C26   C     C_R   0.114525 0.889779 0.882683 0.962216
O15   O     O_R   0.102080 0.561590 0.110390 -0.595344
O16   O     O_R   0.897920 0.061590 0.889610 -0.595348
O17   O     O_R   0.086950 0.728940 0.916330 -0.585129
O18   O     O_R   0.913050 0.228940 0.083670 -0.585133
C27   C     C_R   0.136083 0.391921 0.137445 1.019791
C28   C     C_R   0.863917 0.891921 0.862555 1.019810
O19   O     O_3   0.994770 0.394510 0.936380 -0.280423
O20   O     O_3   0.005230 0.894510 0.063620 -0.280422
V3    V     V_3+5 0.000970 0.670520 0.011800 1.215527
V4    V     V_3+5 0.999030 0.170520 0.988200 1.215519
N1    N     N_R   0.294396 0.309734 0.919019 0.238593
O21   O     O_R   0.315501 0.491962 0.924041 -0.385517
O22   O     O_R   0.299818 0.210771 0.001785 -0.390906
N2    N     N_R   0.705606 0.809740 0.080986 0.238593
O23   O     O_R   0.684477 0.991956 0.075970 -0.385517
O24   O     O_R   0.700222 0.710801 0.998216 -0.390918
F1    F     F_    0.295200 0.271024 0.655908 -0.712125
F2    F     F_    0.704800 0.771020 0.344096 -0.712125

loop_
_geom_bond_atom_site_label_1
_geom_bond_atom_site_label_2
_geom_bond_distance
_ccdc_geom_bond_type
O4    V2    1.976189 S    
O5    C3    1.299227 A    
C20   F2    1.382578 S    
C21   C28   1.466439 S    
C12   C14   1.410296 A    
O9    V2    1.700667 S    
O12   V3    1.985144 S    
C11   H3    1.082641 S    
O16   V4    1.976152 S    
C19   H7    1.111825 S    
O1    C3    1.297275 A    
C19   F1    1.382577 S    
O6    C4    1.299227 A    
O2    C4    1.297276 A    
N2    O23   1.300469 A    
C6    C20   1.490905 S    
C2    O7    1.308628 A    
O5    V1    2.000521 S    
O7    V1    1.977321 S    
O3    V1    1.976191 S    
C1    O8    1.308629 A    
O11   V4    1.985143 S    
O1    V2    2.000367 S    
O8    V2    1.977322 S    
C14   C16   1.400605 A    
O2    V1    2.000369 S    
C21   C23   1.224493 T    
O11   C27   1.295197 A    
C22   C24   1.224493 T    
C17   N1    1.463788 S    
C2    C23   1.466497 S    
C4    C7    1.481676 S    
O14   C26   1.300565 A    
C17   C19   1.526006 S    
C14   C25   1.480320 S    
C8    C10   1.408996 A    
C18   N2    1.463786 S    
O14   V4    2.000717 S    
O20   V4    2.162204 S    
C6    C8    1.401013 A    
C13   C26   1.480320 S    
O9    V1    2.162171 S    
C9    H1    1.079593 S    
O17   V3    2.000594 S    
N1    O21   1.300465 A    
C5    C15   1.393320 A    
O10   V2    2.162172 S    
C3    C8    1.481676 S    
O19   V3    2.162201 S    
C26   O17   1.295931 A    
C6    C16   1.393321 A    
C15   C17   1.496280 S    
O13   V3    2.000718 S    
C25   O18   1.295932 A    
O3    C1    1.320831 A    
C20   H8    1.111825 S    
O15   V3    1.976151 S    
C18   C20   1.526007 S    
C11   C13   1.410296 A    
O13   C25   1.300566 A    
O4    C2    1.320832 A    
C10   C12   1.410714 A    
C10   H2    1.079591 S    
O12   C28   1.295198 A    
N2    O24   1.301932 A    
N1    O22   1.301922 A    
C9    C11   1.410713 A    
O10   V1    1.700665 S    
O19   V4    1.699995 S    
O18   V4    2.000592 S    
O6    V2    2.000520 S    
C5    C19   1.490907 S    
O15   C27   1.306932 A    
C5    C7    1.401014 A    
O20   V3    1.699994 S    
C13   C15   1.400605 A    
C12   H4    1.082641 S    
C1    C24   1.466496 S    
C17   H5    1.111420 S    
O16   C28   1.306931 A    
C16   C18   1.496281 S    
C7    C9    1.408997 A    
C22   C27   1.466439 S    
C18   H6    1.111420 S    
