data_mof_unit_30277.cif
_audit_creation_date              2012-12-10T17:50:46-0500
_audit_creation_method            fapswitch 2.2
_symmetry_space_group_name_H-M    P1
_symmetry_Int_Tables_number       1
_space_group_crystal_system       triclinic
_cell_length_a                    14.756626
_cell_length_b                    14.711574
_cell_length_c                    15.873392
_cell_angle_alpha                 76.633665
_cell_angle_beta                  102.85624
_cell_angle_gamma                 114.767525
_cell_volume                      3013.31210994

loop_
_atom_site_label
_atom_site_type_symbol
_atom_type_description
_atom_site_fract_x
_atom_site_fract_y
_atom_site_fract_z
_atom_type_partial_charge
C1    C     C_R   0.880434 0.312268 0.514284 0.834436
C2    C     C_R   0.119568 0.687734 0.485716 0.834432
C3    C     C_R   0.784115 0.026359 0.549725 0.258342
C4    C     C_R   0.215972 0.973670 0.449752 0.258204
C5    C     C_R   0.850043 0.127943 0.541304 -0.145095
C6    C     C_R   0.150013 0.872096 0.458356 -0.144975
C7    C     C_R   0.708687 0.179016 0.507994 -0.250555
C8    C     C_R   0.291329 0.820944 0.491966 -0.250648
C9    C     C_R   0.639724 0.077846 0.511837 0.054836
C10   C     C_R   0.360333 0.922118 0.487809 0.054769
C11   C     C_R   0.678765 0.000572 0.536888 0.079093
C12   C     C_R   0.321317 0.999417 0.462585 0.078900
C13   C     C_R   0.533298 0.051789 0.493365 0.095590
C14   C     C_R   0.466768 0.948157 0.506176 0.095714
C15   C     C_R   0.508869 0.874037 0.538039 -0.255062
C16   C     C_R   0.491228 0.125906 0.461316 -0.255128
C17   C     C_R   0.612075 0.899603 0.550731 -0.210227
C18   C     C_R   0.388025 0.100367 0.448565 -0.210197
C19   C     C_R   0.708985 0.661111 0.347254 0.321507
C20   C     C_R   0.290931 0.338736 0.652618 0.321433
C21   C     C_R   0.793124 0.635250 0.373597 0.360078
C22   C     C_R   0.206850 0.364698 0.626360 0.360243
C23   C     C_R   0.999730 0.500003 0.659973 0.831826
C24   C     C_R   0.000270 0.499997 0.340027 0.831829
C25   C     C_R   0.715404 0.510965 0.488654 -0.031482
C26   C     C_R   0.284579 0.489020 0.511328 -0.031553
C27   C     C_R   0.628115 0.535651 0.466557 -0.102404
C28   C     C_R   0.371807 0.464234 0.533337 -0.102246
C29   C     C_R   0.628177 0.615640 0.396564 -0.102970
C30   C     C_R   0.371710 0.384181 0.603276 -0.103117
C31   C     C_R   0.541532 0.484132 0.511554 0.059584
C32   C     C_R   0.458359 0.515709 0.488298 0.059628
C33   C     C_R   0.465118 0.599200 0.421945 -0.305330
C34   C     C_R   0.534714 0.400550 0.577820 -0.305159
C35   C     C_R   0.548437 0.649704 0.377743 0.463639
C36   C     C_R   0.451373 0.350016 0.621994 0.463395
C37   C     C_3   0.969462 0.404745 0.041900 0.272428
C38   C     C_3   0.030540 0.595254 0.958101 0.272445
C39   C     C_3   0.905440 0.446001 0.964173 -0.304858
C40   C     C_3   0.094562 0.553998 0.035827 -0.304841
C41   C     C_1   0.999163 0.499981 0.749528 -0.106597
C42   C     C_1   0.000837 0.500018 0.250472 -0.106626
C43   C     C_3   0.062371 0.458194 0.993479 0.277531
C44   C     C_3   0.937630 0.541805 0.006522 0.277527
C45   C     C_3   0.999274 0.499978 0.916741 -0.051452
C46   C     C_3   0.000727 0.500021 0.083259 -0.051445
C47   C     C_1   0.998965 0.499960 0.825010 0.106673
C48   C     C_1   0.001035 0.500040 0.174991 0.106665
C49   C     C_R   0.812732 0.204551 0.521718 -0.109787
C50   C     C_R   0.187290 0.795452 0.478179 -0.109893
Cu1   Cu    Cu3+1 0.081740 0.475690 0.522610 1.002235
Cu2   Cu    Cu3+1 0.918260 0.524310 0.477390 1.002250
H1    H     H_    0.828051 0.401837 0.934176 0.201509
H2    H     H_    0.171951 0.598162 0.065824 0.201507
H3    H     H_    0.277127 0.546233 0.457485 0.150994
H4    H     H_    0.722887 0.453826 0.542564 0.151017
H5    H     H_    0.407062 0.629026 0.402574 0.143581
H6    H     H_    0.592705 0.370633 0.597087 0.143576
H7    H     H_    0.638819 0.838748 0.573028 0.193505
H8    H     H_    0.361296 0.161220 0.426092 0.193623
H9    H     H_    0.316608 0.759909 0.503624 0.158183
H10   H     H_    0.683345 0.239980 0.496676 0.158049
H11   H     H_    0.069560 0.853307 0.448604 0.217167
H12   H     H_    0.930500 0.146767 0.551008 0.217054
H13   H     H_    0.464498 0.794562 0.554486 0.149449
H14   H     H_    0.535656 0.205344 0.444689 0.149680
N1    N     N_R   0.795440 0.560790 0.443380 -0.228174
N2    N     N_R   0.204560 0.439210 0.556620 -0.228230
O1    O     O_R   0.977900 0.338120 0.529810 -0.544190
O2    O     O_R   0.022100 0.661880 0.470190 -0.544121
O3    O     O_R   0.839850 0.379180 0.491620 -0.603023
O4    O     O_R   0.160150 0.620820 0.508380 -0.603060
O5    O     O_R   0.069010 0.479460 0.640020 -0.540010
O6    O     O_R   0.930990 0.520540 0.359980 -0.540069
O7    O     O_R   0.930960 0.520530 0.601820 -0.579584
O8    O     O_R   0.069040 0.479470 0.398180 -0.579578
Br1   Br    Br    0.095742 0.288631 0.691984 -0.404683
Br2   Br    Br    0.904277 0.711388 0.308035 -0.404738
O9    O     O_3   0.708793 0.734421 0.274718 -0.519251
C51   C     C_3   0.663035 0.685964 0.200085 0.127576
H15   H     H_    0.584270 0.631218 0.206789 0.151677
H16   H     H_    0.706871 0.645016 0.188846 0.166267
C52   C     C_3   0.659704 0.765432 0.120219 -0.638181
H17   H     H_    0.737317 0.821003 0.111402 0.270712
H18   H     H_    0.624948 0.728401 0.060950 0.202149
H19   H     H_    0.614157 0.805884 0.128481 0.248924
O10   O     O_3   0.291059 0.265331 0.725085 -0.519252
C53   C     C_3   0.336986 0.313675 0.799763 0.127175
H20   H     H_    0.293721 0.355316 0.810814 0.165604
H21   H     H_    0.416001 0.367793 0.793249 0.152309
C54   C     C_3   0.339390 0.233996 0.879671 -0.637575
H22   H     H_    0.384074 0.192599 0.871498 0.248784
H23   H     H_    0.374610 0.270985 0.938928 0.202012
H24   H     H_    0.261471 0.179245 0.888443 0.270842
Br3   Br    Br    0.924822 0.266904 0.103529 -0.390588
Br4   Br    Br    0.075180 0.733096 0.896473 -0.390728
Br5   Br    Br    0.847046 0.601771 0.017386 -0.416770
Br6   Br    Br    0.152955 0.398227 0.982616 -0.416604
Br7   Br    Br    0.843228 0.926804 0.577842 -0.448632
Br8   Br    Br    0.156897 0.073269 0.421352 -0.448567
O11   O     O_3   0.549586 0.731716 0.313520 -0.555795
C55   C     C_3   0.576835 0.817291 0.353994 0.092909
H25   H     H_    0.646835 0.828694 0.402322 0.174921
H26   H     H_    0.514281 0.809132 0.387065 0.136799
C56   C     C_3   0.596747 0.911494 0.284866 -0.679441
H27   H     H_    0.528355 0.903259 0.235684 0.240821
H28   H     H_    0.616646 0.978825 0.316216 0.203594
H29   H     H_    0.660287 0.923023 0.251552 0.275654
O12   O     O_3   0.450115 0.267850 0.686067 -0.555847
C57   C     C_3   0.422643 0.182369 0.645398 0.092931
H30   H     H_    0.485078 0.190529 0.612172 0.136847
H31   H     H_    0.352590 0.171136 0.597164 0.175046
C58   C     C_3   0.402727 0.088043 0.714386 -0.679325
H32   H     H_    0.339319 0.076531 0.747863 0.275586
H33   H     H_    0.382635 0.020779 0.682880 0.203524
H34   H     H_    0.471182 0.096107 0.763457 0.240876

loop_
_geom_bond_atom_site_label_1
_geom_bond_atom_site_label_2
_ccdc_geom_bond_type
O10   C53   S    
O11   C55   S    
C27   C29   A    
C24   C42   S    
C25   N1    A    
C43   Br6   S    
Cu2   O7    S    
C26   H3    S    
C20   C30   A    
C40   C46   S    
C56   H28   S    
C1    O3    A    
C19   C21   A    
Cu2   O6    S    
C15   H13   S    
C20   O10   S    
C37   Br3   S    
C55   C56   S    
C15   C17   A    
C9    C13   A    
C57   H30   S    
C38   C45   S    
C2    C50   S    
C40   C43   S    
C31   C32   A    
C21   Br2   S    
C25   H4    S    
C4    C12   A    
C8    H9    S    
C39   C45   S    
C58   H34   S    
C13   C14   A    
C21   N1    A    
C5    C49   A    
C23   O5    A    
C51   C52   S    
C2    O4    A    
C44   C46   S    
C45   C47   S    
C56   H29   S    
C46   C48   S    
C27   C31   A    
Cu1   Cu2   S    
C28   C32   A    
Cu2   O2    S    
Cu1   O8    S    
C7    C49   A    
C4    C6    A    
C10   C14   A    
C23   O7    A    
C54   H22   S    
C24   O8    A    
C3    C5    A    
C1    O1    A    
C5    H12   S    
C6    H11   S    
C37   C43   S    
C19   O9    S    
C7    H10   S    
C38   C44   S    
C54   H23   S    
C9    C11   A    
C44   Br5   S    
C52   H17   S    
C53   C54   S    
C41   C47   T    
C31   C34   A    
C16   C18   A    
C42   C48   T    
C6    C50   A    
C55   H26   S    
C43   C45   S    
C57   C58   S    
C22   N2    A    
Cu2   N1    S    
C10   C12   A    
C17   H7    S    
C18   H8    S    
C52   H18   S    
C53   H21   S    
C40   H2    S    
C4    Br8   S    
C16   H14   S    
Cu1   O4    S    
C12   C18   A    
C19   C29   A    
C8    C50   A    
C58   H32   S    
C7    C9    A    
C11   C17   A    
C33   H5    S    
Cu1   O5    S    
C22   Br1   S    
C20   C22   A    
C51   H15   S    
C35   O11   S    
C39   C44   S    
C25   C27   A    
C56   H27   S    
C29   C35   A    
C26   C28   A    
C23   C41   S    
C30   C36   A    
C26   N2    A    
C32   C33   A    
C28   C30   A    
C37   C39   S    
Cu2   O3    S    
O12   C57   S    
C54   H24   S    
C38   C40   S    
C24   O6    A    
C39   H1    S    
C33   C35   A    
C51   H16   S    
C34   C36   A    
Cu1   N2    S    
C55   H25   S    
C57   H31   S    
C3    C11   A    
O9    C51   S    
C3    Br7   S    
C52   H19   S    
C53   H20   S    
C8    C10   A    
C13   C16   A    
C38   Br4   S    
C36   O12   S    
C34   H6    S    
C14   C15   A    
Cu1   O1    S    
C37   C46   S    
C2    O2    A    
C1    C49   S    
C58   H33   S    
