data_mof_unit_43137.cif
_audit_creation_date              2012-12-11T14:30:04-0500
_audit_creation_method            fapswitch 2.2
_symmetry_space_group_name_H-M    P1
_symmetry_Int_Tables_number       1
_space_group_crystal_system       triclinic
_cell_length_a                    12.637107
_cell_length_b                    12.639408
_cell_length_c                    27.125751
_cell_angle_alpha                 89.960924
_cell_angle_beta                  90.030506
_cell_angle_gamma                 120.037065
_cell_volume                      3750.80391195

loop_
_atom_site_label
_atom_site_type_symbol
_atom_type_description
_atom_site_fract_x
_atom_site_fract_y
_atom_site_fract_z
_atom_type_partial_charge
C1    C     C_R   0.557952 0.455856 0.822328 0.565546
C2    C     C_R   0.897785 0.441908 0.677629 0.567295
C3    C     C_R   0.543905 0.101732 0.822244 0.565276
C4    C     C_R   0.557899 0.455845 0.677667 0.565597
C5    C     C_R   0.897506 0.441631 0.822444 0.567417
C6    C     C_R   0.543860 0.101583 0.677825 0.565198
C7    C     C_R   0.455988 0.557875 0.322289 0.565458
C8    C     C_R   0.441655 0.897525 0.177557 0.568994
C9    C     C_R   0.102023 0.543941 0.322318 0.566241
C10   C     C_R   0.455875 0.557970 0.177673 0.566380
C11   C     C_R   0.441641 0.897293 0.322519 0.566685
C12   C     C_R   0.101752 0.543922 0.177753 0.566199
C13   C     C_R   0.990876 0.500571 0.974585 0.032564
C14   C     C_R   0.505817 0.999647 0.526833 0.035500
C15   C     C_R   0.497424 0.490172 0.974179 0.032460
C16   C     C_R   0.994117 0.502491 0.525856 0.032537
C17   C     C_R   0.506703 0.002555 0.973613 0.035273
C18   C     C_R   0.497219 0.490098 0.525800 0.032444
C19   C     C_R   0.498953 0.986559 0.475107 0.032425
C20   C     C_R   0.002557 0.506703 0.026386 0.035261
C21   C     C_R   0.490245 0.497352 0.474134 0.034154
C22   C     C_R   0.500601 0.990900 0.025414 0.032570
C23   C     C_R   0.005754 0.508145 0.474052 0.034409
C24   C     C_R   0.490192 0.497424 0.025828 0.032453
C25   C     C_R   0.992829 0.693581 0.974502 -0.130956
C26   C     C_R   0.706224 0.017558 0.525509 -0.133366
C27   C     C_R   0.305274 0.297893 0.974522 -0.131840
C28   C     C_R   0.988796 0.691797 0.525149 -0.130406
C29   C     C_R   0.700842 0.006755 0.974338 -0.131986
C30   C     C_R   0.307187 0.295778 0.525164 -0.132054
C31   C     C_R   0.698641 0.002916 0.474449 -0.132951
C32   C     C_R   0.006908 0.700878 0.025624 -0.131977
C33   C     C_R   0.300061 0.303163 0.474140 -0.133077
C34   C     C_R   0.693570 0.992697 0.025462 -0.130987
C35   C     C_R   0.002868 0.698714 0.474026 -0.131572
C36   C     C_R   0.297922 0.305263 0.025530 -0.131808
C37   C     C_R   0.969160 0.583573 0.896041 0.222428
C38   C     C_R   0.616721 0.032350 0.604476 0.222955
C39   C     C_R   0.419118 0.379499 0.896564 0.226290
C40   C     C_R   0.967951 0.583783 0.603947 0.222456
C41   C     C_R   0.614894 0.029853 0.895609 0.221966
C42   C     C_R   0.419712 0.378478 0.603271 0.226013
C43   C     C_R   0.580742 0.961629 0.396944 0.226073
C44   C     C_R   0.029955 0.614948 0.104369 0.222001
C45   C     C_R   0.380751 0.418131 0.396302 0.226400
C46   C     C_R   0.583610 0.969117 0.103943 0.222484
C47   C     C_R   0.028819 0.613695 0.395609 0.221954
C48   C     C_R   0.379549 0.419131 0.103464 0.226315
C49   C     C_R   0.045920 0.524523 0.128331 0.036416
C50   C     C_R   0.476031 0.949335 0.372644 0.032993
C51   C     C_R   0.474036 0.521811 0.128024 0.032565
C52   C     C_R   0.047519 0.524728 0.371986 0.036154
C53   C     C_R   0.475934 0.950415 0.127595 0.032681
C54   C     C_R   0.474471 0.521690 0.371910 0.036222
C55   C     C_R   0.524462 0.044894 0.628622 0.036054
C56   C     C_R   0.950372 0.475875 0.872407 0.032673
C57   C     C_R   0.521380 0.473818 0.628026 0.032141
C58   C     C_R   0.524483 0.045884 0.871664 0.036328
C59   C     C_R   0.952062 0.477413 0.627923 0.032322
C60   C     C_R   0.521777 0.473992 0.871981 0.032557
C61   C     C_R   0.986249 0.594661 0.948021 0.016156
C62   C     C_R   0.609423 0.013685 0.552663 0.015619
C63   C     C_R   0.405848 0.388456 0.948123 0.017126
C64   C     C_R   0.985626 0.594851 0.552007 0.016213
C65   C     C_R   0.607636 0.011036 0.947489 0.016514
C66   C     C_R   0.406594 0.387419 0.551709 0.017210
C67   C     C_R   0.593815 0.983560 0.448582 0.015775
C68   C     C_R   0.011124 0.607669 0.052490 0.016453
C69   C     C_R   0.389608 0.404782 0.447889 0.016973
C70   C     C_R   0.594683 0.986201 0.051961 0.016049
C71   C     C_R   0.010504 0.606983 0.447530 0.016499
C72   C     C_R   0.388491 0.405850 0.051906 0.017090
C73   C     C_R   0.964718 0.388708 0.899002 -0.162801
C74   C     C_R   0.418467 0.020886 0.602948 -0.178101
C75   C     C_R   0.605767 0.578378 0.898052 -0.167510
C76   C     C_R   0.970817 0.392521 0.601815 -0.161774
C77   C     C_R   0.420083 0.025551 0.897601 -0.177377
C78   C     C_R   0.604313 0.579030 0.602107 -0.166736
C79   C     C_R   0.388930 0.963811 0.399232 -0.161980
C80   C     C_R   0.025520 0.420107 0.102412 -0.177105
C81   C     C_R   0.578213 0.606375 0.398134 -0.175560
C82   C     C_R   0.388797 0.964859 0.101018 -0.162639
C83   C     C_R   0.031265 0.422318 0.398397 -0.170476
C84   C     C_R   0.578408 0.605813 0.101932 -0.167369
C85   C     C_R   0.982910 0.399116 0.949516 0.003315
C86   C     C_R   0.409466 0.001085 0.552489 0.000826
C87   C     C_R   0.596892 0.585328 0.948739 0.002758
C88   C     C_R   0.989844 0.403104 0.551339 0.003850
C89   C     C_R   0.411617 0.006825 0.948092 0.000623
C90   C     C_R   0.595554 0.586128 0.551397 0.003096
C91   C     C_R   0.397215 0.977898 0.449991 0.003309
C92   C     C_R   0.006768 0.411615 0.051923 0.000586
C93   C     C_R   0.584706 0.597733 0.448852 0.000702
C94   C     C_R   0.399184 0.983030 0.050503 0.003345
C95   C     C_R   0.013465 0.414590 0.448925 0.002318
C96   C     C_R   0.585348 0.596914 0.051245 0.002747
C97   C     C_R   0.998543 0.311573 0.026403 -0.120457
C98   C     C_R   0.302622 0.979889 0.476038 -0.105610
C99   C     C_R   0.684568 0.689428 0.025481 -0.112318
C100  C     C_R   0.009396 0.316857 0.474857 -0.115440
C101  C     C_R   0.305768 0.987531 0.024548 -0.105411
C102  C     C_R   0.682727 0.691280 0.474763 -0.118560
C103  C     C_R   0.308070 0.990081 0.527019 -0.120907
C104  C     C_R   0.987345 0.305695 0.975488 -0.105451
C105  C     C_R   0.687182 0.686378 0.525784 -0.109658
C106  C     C_R   0.311609 0.998692 0.973630 -0.120505
C107  C     C_R   0.998450 0.311573 0.525778 -0.106708
C108  C     C_R   0.689413 0.684563 0.974479 -0.112343
Cr1   Cr    Cr6+3 0.487630 0.241180 0.750000 1.092316
Cr2   Cr    Cr6+3 0.753550 0.512370 0.750000 1.099004
Cr3   Cr    Cr6+3 0.758820 0.246450 0.750000 1.102424
Cr4   Cr    Cr6+3 0.241180 0.487630 0.250000 1.095005
Cr5   Cr    Cr6+3 0.512370 0.753550 0.250000 1.096545
Cr6   Cr    Cr6+3 0.246450 0.758820 0.250000 1.103363
H1    H     H_    0.015906 0.781514 0.043347 0.105219
H2    H     H_    0.777228 0.009522 0.455717 0.111227
H3    H     H_    0.220332 0.230519 0.043654 0.110158
H4    H     H_    0.008948 0.777836 0.456006 0.104935
H5    H     H_    0.766093 0.985689 0.043499 0.106041
H6    H     H_    0.223519 0.227555 0.455918 0.110006
H7    H     H_    0.790409 0.035130 0.542940 0.108271
H8    H     H_    0.985873 0.766112 0.956453 0.106043
H9    H     H_    0.233240 0.217254 0.543175 0.110148
H10   H     H_    0.781455 0.015686 0.956600 0.105159
H11   H     H_    0.978960 0.762922 0.542897 0.106158
H12   H     H_    0.230521 0.220295 0.956417 0.110024
H13   H     H_    0.032524 0.347878 0.120970 0.142680
H14   H     H_    0.308513 0.954911 0.380954 0.171223
H15   H     H_    0.651389 0.684604 0.120489 0.162234
H16   H     H_    0.040684 0.351204 0.380163 0.148926
H17   H     H_    0.307339 0.953854 0.119088 0.172459
H18   H     H_    0.650933 0.685433 0.379626 0.143837
H19   H     H_    0.345332 0.025946 0.621644 0.141584
H20   H     H_    0.953633 0.307224 0.880949 0.172320
H21   H     H_    0.682272 0.652638 0.620824 0.161803
H22   H     H_    0.347860 0.032600 0.879054 0.142294
H23   H     H_    0.962403 0.312422 0.620193 0.170908
H24   H     H_    0.684539 0.651370 0.879478 0.161995
H25   H     H_    0.002279 0.238479 0.045789 0.089329
H26   H     H_    0.224019 0.972970 0.456962 0.110883
H27   H     H_    0.757620 0.766591 0.044737 0.103028
H28   H     H_    0.015965 0.245032 0.455778 0.094767
H29   H     H_    0.227569 0.981440 0.043632 0.110036
H30   H     H_    0.755105 0.769255 0.455609 0.090059
H31   H     H_    0.234091 0.991969 0.546450 0.090020
H32   H     H_    0.981183 0.227470 0.956418 0.109954
H33   H     H_    0.763413 0.760166 0.545172 0.103199
H34   H     H_    0.238518 0.002472 0.954257 0.089154
H35   H     H_    0.995459 0.235105 0.545159 0.108297
H36   H     H_    0.766564 0.757611 0.955205 0.102942
O1    O     O_R   0.460870 0.120930 0.805240 -0.521020
O2    O     O_R   0.660060 0.539130 0.694760 -0.514539
O3    O     O_R   0.879070 0.339940 0.805240 -0.514594
O4    O     O_R   0.460870 0.120930 0.694760 -0.520339
O5    O     O_R   0.660060 0.539130 0.805240 -0.516000
O6    O     O_R   0.879070 0.339940 0.694760 -0.512906
O7    O     O_R   0.120930 0.460870 0.305240 -0.519481
O8    O     O_R   0.539130 0.660060 0.194760 -0.515006
O9    O     O_R   0.339940 0.879070 0.305240 -0.513552
O10   O     O_R   0.120930 0.460870 0.194760 -0.519811
O11   O     O_R   0.539130 0.660060 0.305240 -0.520511
O12   O     O_R   0.339940 0.879070 0.194760 -0.513729
O13   O     O_R   0.498910 0.350470 0.801870 -0.441278
O14   O     O_R   0.851560 0.501090 0.698130 -0.438936
O15   O     O_R   0.649530 0.148440 0.801870 -0.438928
O16   O     O_R   0.498910 0.350470 0.698130 -0.440750
O17   O     O_R   0.851560 0.501090 0.801870 -0.439715
O18   O     O_R   0.649530 0.148440 0.698130 -0.437423
O19   O     O_R   0.350470 0.498910 0.301870 -0.441401
O20   O     O_R   0.501090 0.851560 0.198130 -0.438302
O21   O     O_R   0.148440 0.649530 0.301870 -0.439667
O22   O     O_R   0.350470 0.498910 0.198130 -0.440802
O23   O     O_R   0.501090 0.851560 0.301870 -0.443013
O24   O     O_R   0.148440 0.649530 0.198130 -0.438550
O25   O     O_3   0.666667 0.333333 0.750000 -0.293660
O26   O     O_3   0.333333 0.666667 0.250000 -0.294502
O27   O     O_3   0.037846 0.710278 0.132029 -0.686873
H37   H     H_    0.977245 0.731204 0.119263 0.312816
O28   O     O_3   0.666264 0.949423 0.369665 -0.678204
H38   H     H_    0.697720 0.905946 0.389869 0.308031
O29   O     O_3   0.279727 0.335676 0.130422 -0.676449
H39   H     H_    0.205149 0.310351 0.110593 0.308667
O30   O     O_3   0.033248 0.706962 0.367533 -0.686727
H40   H     H_    0.971286 0.725968 0.380253 0.313327
O31   O     O_3   0.673086 0.966028 0.132080 -0.685739
H41   H     H_    0.753860 0.027593 0.118968 0.312378
O32   O     O_3   0.281932 0.333856 0.369104 -0.675973
H42   H     H_    0.206964 0.305996 0.388933 0.308433
O33   O     O_3   0.713912 0.043497 0.631869 -0.685892
H43   H     H_    0.738344 0.986016 0.618521 0.311618
O34   O     O_3   0.966161 0.673065 0.867887 -0.686814
H44   H     H_    0.027780 0.753811 0.880986 0.311936
O35   O     O_3   0.337146 0.277699 0.630011 -0.677221
H45   H     H_    0.314214 0.203588 0.610232 0.309474
O36   O     O_3   0.710193 0.037669 0.867930 -0.687409
H46   H     H_    0.731081 0.977047 0.880695 0.312537
O37   O     O_3   0.961262 0.671787 0.631683 -0.686167
H47   H     H_    0.021446 0.753127 0.618573 0.311075
O38   O     O_3   0.335679 0.279664 0.869625 -0.677208
H48   H     H_    0.310345 0.205118 0.889473 0.308670

loop_
_geom_bond_atom_site_label_1
_geom_bond_atom_site_label_2
_ccdc_geom_bond_type
C44   C49   A    
C14   C86   A    
C79   H14   S    
C74   H19   S    
C82   C94   A    
C42   O35   S    
C18   C21   A    
C101  H29   S    
C5    C56   S    
C6    C55   S    
C50   C79   A    
C12   C49   S    
C11   O9    A    
Cr2   O25   S    
C78   C90   A    
C31   C67   A    
C99   C108  A    
C20   C92   A    
C103  H31   S    
C73   H20   S    
Cr3   O25   S    
Cr5   O23   S    
Cr1   O1    S    
C41   C58   A    
Cr2   O2    S    
C24   C96   A    
C26   H7    S    
C21   C69   A    
C48   O29   S    
C27   H12   S    
Cr6   O12   S    
C40   O37   S    
C86   C103  A    
C10   O22   A    
C98   C103  A    
C105  H33   S    
C96   C99   A    
C16   C88   A    
C84   H15   S    
C101  C106  A    
C106  H34   S    
C102  C105  A    
C84   C96   A    
C1    O5    A    
C46   O31   S    
C39   O38   S    
Cr2   O5    S    
C58   C77   A    
C55   C74   A    
C48   C51   A    
C38   C55   A    
C94   C101  A    
C4    O16   A    
C89   C106  A    
C3    O15   A    
C19   C67   A    
Cr3   O15   S    
C77   H22   S    
Cr5   O8    S    
C78   H21   S    
C34   C70   A    
C79   C91   A    
C13   C20   A    
C33   C69   A    
C43   O28   S    
C32   C68   A    
C25   C32   A    
Cr6   O26   S    
C35   C71   A    
O38   H48   S    
C91   C98   A    
C40   C59   A    
C22   C94   A    
O37   H47   S    
C9    C52   S    
C102  H30   S    
C48   C72   A    
C10   C51   S    
C14   C19   A    
C42   C57   A    
C8    O20   A    
C92   C97   A    
Cr6   O24   S    
C76   H23   S    
Cr6   O21   S    
C4    O2    A    
C6    O18   A    
C11   O23   A    
Cr4   O7    S    
C87   C108  A    
C45   C69   A    
O34   H44   S    
C18   C90   A    
C104  H32   S    
C17   C89   A    
C28   C35   A    
C83   H16   S    
C47   O30   S    
Cr1   O13   S    
C1    C60   S    
C2    O14   A    
C88   C107  A    
Cr2   O14   S    
C2    C59   S    
C45   O32   S    
C81   H18   S    
C41   C65   A    
O29   H39   S    
C29   C34   A    
C12   O10   A    
C76   C88   A    
O28   H38   S    
C98   H26   S    
C53   C82   A    
C107  H35   S    
C80   C92   A    
C52   C83   A    
O30   H40   S    
Cr1   O4    S    
C23   C71   A    
C81   C93   A    
Cr2   O17   S    
Cr4   O19   S    
C9    O7    A    
C38   O33   S    
C83   C95   A    
C25   C61   A    
C74   C86   A    
C7    O11   A    
C36   H3    S    
Cr3   O3    S    
C73   C85   A    
C30   C66   A    
C85   C104  A    
C27   C63   A    
C37   C56   A    
Cr5   O26   S    
C29   C65   A    
C28   C64   A    
C75   C87   A    
C15   C24   A    
C37   O34   S    
C45   C54   A    
O27   H37   S    
C16   C23   A    
C7    O19   A    
C108  H36   S    
C9    O21   A    
C47   C71   A    
C31   H2    S    
C22   C70   A    
C28   H11   S    
C24   C72   A    
C12   O24   A    
C25   H8    S    
C34   H5    S    
C10   O8    A    
C100  C107  A    
C2    O6    A    
C56   C73   A    
Cr4   O10   S    
C30   C33   A    
Cr4   O26   S    
C95   C100  A    
C93   C102  A    
C3    O1    A    
C57   C78   A    
C20   C68   A    
C90   C105  A    
C75   H24   S    
C8    C53   S    
C44   O27   S    
C37   C61   A    
Cr1   O25   S    
C43   C50   A    
C99   H27   S    
C47   C52   A    
C77   C89   A    
C80   H13   S    
C27   C36   A    
C18   C66   A    
C39   C63   A    
C60   C75   A    
C17   C65   A    
C17   C22   A    
C40   C64   A    
C49   C80   A    
C26   C62   A    
O32   H42   S    
C41   O36   S    
C11   C50   S    
C100  H28   S    
C6    O4    A    
O31   H41   S    
Cr4   O22   S    
C21   C93   A    
C5    O3    A    
C39   C60   A    
C51   C84   A    
C46   C53   A    
C23   C95   A    
Cr5   O20   S    
C5    O17   A    
C32   H1    S    
O33   H43   S    
Cr6   O9    S    
C46   C70   A    
C97   C104  A    
C19   C91   A    
Cr1   O16   S    
Cr5   O11   S    
O36   H46   S    
C29   H10   S    
C3    C58   S    
C26   C31   A    
Cr3   O6    S    
C13   C61   A    
C30   H9    S    
C1    O13   A    
C33   H6    S    
C43   C67   A    
O35   H45   S    
C15   C87   A    
C13   C85   A    
C42   C66   A    
C15   C63   A    
C44   C68   A    
C35   H4    S    
C8    O12   A    
Cr3   O18   S    
C16   C64   A    
C7    C54   S    
C82   H17   S    
C59   C76   A    
C97   H25   S    
C54   C81   A    
C36   C72   A    
C4    C57   S    
C38   C62   A    
C14   C62   A    
