data_mof_unit_65339.cif
_audit_creation_date              2013-03-05T16:04:43-0500
_audit_creation_method            fapswitch 2.2
_symmetry_space_group_name_H-M    P1
_symmetry_Int_Tables_number       1
_space_group_crystal_system       monoclinic
_cell_length_a                    21.554942
_cell_length_b                    21.56909
_cell_length_c                    55.691187
_cell_angle_alpha                 90.0
_cell_angle_beta                  90.0
_cell_angle_gamma                 90.235345
_cell_volume                      25891.755188

loop_
_atom_site_label
_atom_site_type_symbol
_atom_site_description
_atom_site_fract_x
_atom_site_fract_y
_atom_site_fract_z
_atom_type_partial_charge
O1    O     O_R   0.999980 0.092630 0.020130 -0.580203
O2    O     O_R   0.907370 0.999980 0.020130 -0.579543
O3    O     O_R   0.000020 0.907370 0.020130 -0.580203
O4    O     O_R   0.092630 0.000020 0.020130 -0.579543
O5    O     O_R   0.499980 0.592630 0.520130 -0.580215
O6    O     O_R   0.407370 0.499980 0.520130 -0.579546
O7    O     O_R   0.500020 0.407370 0.520130 -0.580215
O8    O     O_R   0.592630 0.500020 0.520130 -0.579546
O9    O     O_R   0.999950 0.092690 0.979910 -0.585792
O10   O     O_R   0.907310 0.999950 0.979910 -0.617388
O11   O     O_R   0.000050 0.907310 0.979910 -0.585792
O12   O     O_R   0.092690 0.000050 0.979910 -0.617388
O13   O     O_R   0.499950 0.592690 0.479910 -0.585793
O14   O     O_R   0.407310 0.499950 0.479910 -0.617399
O15   O     O_R   0.500050 0.407310 0.479910 -0.585793
O16   O     O_R   0.592690 0.500050 0.479910 -0.617399
C1    C     C_R   0.997933 0.121365 0.000020 0.915663
C2    C     C_R   0.878501 0.999199 0.000063 0.943154
C3    C     C_R   0.002067 0.878634 0.000020 0.915663
C4    C     C_R   0.121499 0.000801 0.000063 0.943153
C5    C     C_R   0.497931 0.621365 0.500020 0.915681
C6    C     C_R   0.378501 0.499200 0.500063 0.943180
C7    C     C_R   0.502069 0.378634 0.500020 0.915681
C8    C     C_R   0.621499 0.500800 0.500063 0.943180
H1    H     H_    0.902979 0.475779 0.879400 0.160161
H2    H     H_    0.475085 0.903217 0.879405 0.161670
H3    H     H_    0.097020 0.524221 0.879400 0.160161
H4    H     H_    0.524915 0.096783 0.879405 0.161670
H5    H     H_    0.402980 0.975777 0.379400 0.160165
H6    H     H_    0.972947 0.403772 0.379422 0.162127
H7    H     H_    0.597020 0.024223 0.379400 0.160165
H8    H     H_    0.027053 0.596228 0.379422 0.162127
C9    C     C_R   0.543033 0.965408 0.161297 0.516667
C10   C     C_R   0.966078 0.543555 0.161299 0.517206
C11   C     C_R   0.456967 0.034592 0.161297 0.516667
C12   C     C_R   0.033922 0.456445 0.161299 0.517207
C13   C     C_R   0.043032 0.465407 0.661297 0.516667
C14   C     C_R   0.464853 0.042568 0.661295 0.517213
C15   C     C_R   0.956968 0.534593 0.661297 0.516667
C16   C     C_R   0.535146 0.957432 0.661295 0.517213
N1    N     N_R   0.500000 1.000000 0.149277 -0.356968
N2    N     N_R   1.000000 0.500000 0.149285 -0.356556
N3    N     N_R   0.000000 0.500000 0.649277 -0.356970
N4    N     N_R   0.500000 0.000000 0.649277 -0.356443
Zn1   Zn    Zn3+2 0.000000 0.000000 0.026880 1.148424
Zn2   Zn    Zn3+2 0.500000 0.500000 0.526880 1.148359
Zn3   Zn    Zn3+2 0.000000 0.000000 0.973170 1.161331
Zn4   Zn    Zn3+2 0.500000 0.500000 0.473170 1.161276
H9    H     H_    0.621240 0.901713 0.189589 0.198421
H10   H     H_    0.903834 0.622916 0.189588 0.198332
H11   H     H_    0.378759 0.098287 0.189589 0.198421
H12   H     H_    0.096166 0.377083 0.189588 0.198332
H13   H     H_    0.121238 0.401710 0.689589 0.198432
H14   H     H_    0.400314 0.120056 0.689584 0.198328
H15   H     H_    0.878762 0.598290 0.689589 0.198432
H16   H     H_    0.599686 0.879943 0.689584 0.198328
O17   O     O_2   0.585570 0.932585 0.148920 -0.528295
O18   O     O_2   0.933855 0.586523 0.148914 -0.533756
O19   O     O_2   0.414430 0.067415 0.148920 -0.528295
O20   O     O_2   0.066145 0.413476 0.148914 -0.533756
O21   O     O_2   0.085569 0.432583 0.648920 -0.528273
O22   O     O_2   0.431438 0.084620 0.648913 -0.533994
O23   O     O_2   0.914431 0.567417 0.648920 -0.528273
O24   O     O_2   0.568562 0.915380 0.648913 -0.533994
C17   C     C_R   0.500000 0.000000 0.199223 -0.048554
C18   C     C_R   0.000000 0.500000 0.199229 -0.049108
C19   C     C_R   0.000000 0.500000 0.699222 -0.048554
C20   C     C_R   0.500000 1.000000 0.699225 -0.049084
C21   C     C_R   0.035733 0.457920 0.838716 0.516977
C22   C     C_R   0.457762 0.035552 0.838736 0.519028
C23   C     C_R   0.964267 0.542080 0.838716 0.516977
C24   C     C_R   0.542238 0.964448 0.838736 0.519029
C25   C     C_R   0.535734 0.957921 0.338716 0.516977
C26   C     C_R   0.958789 0.536740 0.338739 0.519029
C27   C     C_R   0.464266 0.042079 0.338716 0.516977
C28   C     C_R   0.041210 0.463260 0.338739 0.519029
C29   C     C_R   0.039629 0.458810 0.762722 0.044978
C30   C     C_R   0.458499 0.039313 0.762734 0.045030
C31   C     C_R   0.960371 0.541190 0.762722 0.044978
C32   C     C_R   0.541501 0.960687 0.762734 0.045030
C33   C     C_R   0.539630 0.958810 0.262722 0.044974
C34   C     C_R   0.959660 0.540510 0.262738 0.045065
C35   C     C_R   0.460370 0.041189 0.262722 0.044974
C36   C     C_R   0.040340 0.459490 0.262738 0.045065
C37   C     C_3   0.216614 0.021903 0.024746 -0.340798
C38   C     C_3   0.946531 0.213701 0.017340 -0.333644
C39   C     C_3   0.783385 0.978097 0.024746 -0.340797
C40   C     C_3   0.053469 0.786299 0.017340 -0.333644
C41   C     C_3   0.716615 0.521900 0.524746 -0.340816
C42   C     C_3   0.446532 0.713702 0.517342 -0.333635
C43   C     C_3   0.283385 0.478100 0.524746 -0.340816
C44   C     C_3   0.553468 0.286298 0.517342 -0.333635
H17   H     H_    0.196852 0.995845 0.040131 0.230156
H18   H     H_    0.948848 0.191647 0.035332 0.237535
H19   H     H_    0.803148 0.004155 0.040131 0.230155
H20   H     H_    0.051152 0.808353 0.035332 0.237535
H21   H     H_    0.696852 0.495841 0.540131 0.230154
H22   H     H_    0.448852 0.691647 0.535334 0.237498
H23   H     H_    0.303148 0.504159 0.540131 0.230154
H24   H     H_    0.551148 0.308353 0.535334 0.237498
H25   H     H_    0.203547 0.070635 0.028032 0.277500
H26   H     H_    0.900716 0.200472 0.010265 0.282342
H27   H     H_    0.796453 0.929365 0.028032 0.277500
H28   H     H_    0.099284 0.799527 0.010265 0.282342
H29   H     H_    0.703548 0.570632 0.528032 0.277504
H30   H     H_    0.400716 0.700475 0.510267 0.282346
H31   H     H_    0.296451 0.429368 0.528032 0.277503
H32   H     H_    0.599284 0.299525 0.510267 0.282346
C45   C     C_3   0.287443 0.014512 0.025091 0.071058
C46   C     C_3   0.952018 0.284599 0.020030 0.091621
C47   C     C_3   0.712557 0.985488 0.025091 0.071057
C48   C     C_3   0.047982 0.715401 0.020030 0.091621
C49   C     C_3   0.787443 0.514509 0.525091 0.071032
C50   C     C_3   0.452022 0.784599 0.520032 0.091598
C51   C     C_3   0.212557 0.485491 0.525091 0.071031
C52   C     C_3   0.547978 0.215401 0.520032 0.091597
H33   H     H_    0.298052 0.973642 0.036644 0.128294
H34   H     H_    0.971707 0.294375 0.038140 0.147731
H35   H     H_    0.701948 0.026357 0.036644 0.128294
H36   H     H_    0.028293 0.705625 0.038140 0.147731
H37   H     H_    0.798051 0.473637 0.536644 0.128297
H38   H     H_    0.471715 0.794374 0.538141 0.147613
H39   H     H_    0.201949 0.526363 0.536644 0.128297
H40   H     H_    0.528285 0.205626 0.538141 0.147613
H41   H     H_    0.303516 0.900547 0.006242 0.175288
H42   H     H_    0.076216 0.302804 0.026397 0.164017
H43   H     H_    0.696484 0.099453 0.006242 0.175288
H44   H     H_    0.923784 0.697195 0.026397 0.164017
H45   H     H_    0.803517 0.400545 0.506240 0.175295
H46   H     H_    0.576221 0.802805 0.526394 0.164076
H47   H     H_    0.196483 0.599454 0.506240 0.175295
H48   H     H_    0.423779 0.197195 0.526394 0.164076
C53   C     C_3   0.213086 0.932486 0.994188 0.018631
C54   C     C_3   0.062640 0.212636 0.009329 0.026837
C55   C     C_3   0.786914 0.067514 0.994188 0.018632
C56   C     C_3   0.937360 0.787364 0.009329 0.026836
C57   C     C_3   0.713086 0.432486 0.494186 0.018642
C58   C     C_3   0.562640 0.712635 0.509327 0.026844
C59   C     C_3   0.286914 0.567514 0.494186 0.018641
C60   C     C_3   0.437360 0.287364 0.509327 0.026844
C61   C     C_3   0.214992 0.043825 0.979702 0.111979
C62   C     C_3   0.987377 0.216800 0.974262 0.134541
C63   C     C_3   0.785008 0.956175 0.979702 0.111979
C64   C     C_3   0.012623 0.783200 0.974262 0.134541
C65   C     C_3   0.714992 0.543826 0.479703 0.111942
C66   C     C_3   0.487371 0.716800 0.474262 0.134534
C67   C     C_3   0.285008 0.456174 0.479703 0.111942
C68   C     C_3   0.512629 0.283200 0.474262 0.134534
C69   C     C_3   0.189817 0.999886 0.000087 -0.204542
C70   C     C_3   0.997846 0.189506 0.000262 -0.239103
C71   C     C_3   0.810183 0.000114 0.000087 -0.204542
C72   C     C_3   0.002153 0.810494 0.000262 -0.239103
C73   C     C_3   0.689817 0.499886 0.500087 -0.204554
C74   C     C_3   0.497845 0.689506 0.500263 -0.239096
C75   C     C_3   0.310183 0.500114 0.500087 -0.204554
C76   C     C_3   0.502155 0.310494 0.500263 -0.239096
H49   H     H_    0.202984 0.022228 0.962109 0.178280
H50   H     H_    0.029688 0.206266 0.963534 0.190377
H51   H     H_    0.797016 0.977772 0.962109 0.178280
H52   H     H_    0.970312 0.793733 0.963534 0.190377
H53   H     H_    0.702984 0.522230 0.462109 0.178264
H54   H     H_    0.529681 0.706267 0.463534 0.190380
H55   H     H_    0.297016 0.477770 0.462109 0.178264
H56   H     H_    0.470319 0.293733 0.463534 0.190380
C77   C     C_3   0.310983 0.999374 0.999168 -0.205607
C78   C     C_3   0.999657 0.310640 0.000952 -0.196508
C79   C     C_3   0.689017 0.000626 0.999168 -0.205606
C80   C     C_3   0.000343 0.689360 0.000952 -0.196507
C81   C     C_3   0.810983 0.499374 0.499167 -0.205635
C82   C     C_3   0.499657 0.810640 0.500953 -0.196459
C83   C     C_3   0.189017 0.500626 0.499167 -0.205636
C84   C     C_3   0.500343 0.189360 0.500953 -0.196459
C85   C     C_3   0.285036 0.933300 0.992516 0.059999
C86   C     C_3   0.065496 0.284363 0.008160 0.045765
C87   C     C_3   0.714963 0.066700 0.992516 0.059999
C88   C     C_3   0.934503 0.715637 0.008160 0.045764
C89   C     C_3   0.785037 0.433301 0.492514 0.060179
C90   C     C_3   0.565497 0.784362 0.508158 0.045754
C91   C     C_3   0.214963 0.566699 0.492514 0.060182
C92   C     C_3   0.434502 0.215638 0.508158 0.045753
C93   C     C_3   0.286346 0.047773 0.980918 -0.377859
C94   C     C_3   0.981619 0.287837 0.975511 -0.403501
C95   C     C_3   0.713654 0.952227 0.980918 -0.377858
C96   C     C_3   0.018381 0.712163 0.975511 -0.403501
C97   C     C_3   0.786346 0.547774 0.480918 -0.377768
C98   C     C_3   0.481613 0.787837 0.475512 -0.403494
C99   C     C_3   0.213654 0.452226 0.480918 -0.377768
C100  C     C_3   0.518386 0.212162 0.475512 -0.403494
H57   H     H_    0.302101 0.095006 0.985890 0.269489
H58   H     H_    0.934023 0.303038 0.970911 0.255312
H59   H     H_    0.697899 0.904993 0.985890 0.269489
H60   H     H_    0.065977 0.696962 0.970911 0.255313
H61   H     H_    0.802100 0.595008 0.485891 0.269523
H62   H     H_    0.434015 0.803037 0.470914 0.255317
H63   H     H_    0.197899 0.404992 0.485891 0.269524
H64   H     H_    0.565985 0.196963 0.470914 0.255317
H65   H     H_    0.306498 0.040027 0.962817 0.197907
H66   H     H_    0.011486 0.309611 0.961581 0.200401
H67   H     H_    0.693502 0.959973 0.962817 0.197907
H68   H     H_    0.988514 0.690389 0.961581 0.200401
H69   H     H_    0.806499 0.540032 0.462817 0.197896
H70   H     H_    0.511477 0.809611 0.461581 0.200397
H71   H     H_    0.193501 0.459968 0.462817 0.197896
H72   H     H_    0.488523 0.190389 0.461581 0.200398
H73   H     H_    0.193279 0.919017 0.976463 0.190898
H74   H     H_    0.097662 0.193356 0.996818 0.209570
H75   H     H_    0.806721 0.080983 0.976463 0.190898
H76   H     H_    0.902338 0.806643 0.996818 0.209570
H77   H     H_    0.693279 0.419018 0.476462 0.190910
H78   H     H_    0.597661 0.693356 0.496816 0.209569
H79   H     H_    0.306721 0.580982 0.476462 0.190910
H80   H     H_    0.402339 0.306644 0.496816 0.209569
C101  C     C_R   0.511783 0.055078 0.086001 -0.149851
C102  C     C_R   0.944899 0.488125 0.086016 -0.168281
C103  C     C_R   0.488217 0.944922 0.086001 -0.149850
C104  C     C_R   0.055101 0.511875 0.086016 -0.168282
C105  C     C_R   0.011784 0.555078 0.586001 -0.149835
C106  C     C_R   0.445163 0.986953 0.586003 -0.168622
C107  C     C_R   0.988216 0.444922 0.586001 -0.149835
C108  C     C_R   0.554837 0.013047 0.586003 -0.168622
H81   H     H_    0.898498 0.618533 0.810424 0.198094
H82   H     H_    0.619121 0.899171 0.810447 0.197925
H83   H     H_    0.101502 0.381467 0.810424 0.198094
H84   H     H_    0.380879 0.100829 0.810447 0.197925
H85   H     H_    0.398495 0.118531 0.310424 0.198106
H86   H     H_    0.116151 0.395750 0.310449 0.197877
H87   H     H_    0.601505 0.881469 0.310424 0.198106
H88   H     H_    0.883849 0.604250 0.310449 0.197877
C109  C     C_R   0.500000 1.000000 0.073322 -0.015434
C110  C     C_R   0.000000 0.500000 0.073335 -0.055369
C111  C     C_R   0.000000 0.500000 0.573322 -0.015435
C112  C     C_R   0.500000 0.000000 0.573326 -0.055302
C113  C     C_R   0.500000 1.000000 0.123562 0.285926
C114  C     C_R   1.000000 0.500000 0.123575 0.288207
C115  C     C_R   0.000000 0.500000 0.623562 0.285914
C116  C     C_R   0.500000 0.000000 0.623564 0.287755
C117  C     C_R   0.945320 0.486552 0.889028 -0.078747
C118  C     C_R   0.486155 0.945450 0.889037 -0.078221
C119  C     C_R   0.054680 0.513448 0.889028 -0.078747
C120  C     C_R   0.513845 0.054550 0.889037 -0.078221
C121  C     C_R   0.445321 0.986551 0.389028 -0.078741
C122  C     C_R   0.984958 0.445759 0.389050 -0.077997
C123  C     C_R   0.554679 0.013449 0.389028 -0.078741
C124  C     C_R   0.015042 0.554241 0.389050 -0.077996
H89   H     H_    0.622023 0.899933 0.232144 0.149515
H90   H     H_    0.902181 0.623846 0.232131 0.149455
H91   H     H_    0.377977 0.100067 0.232144 0.149515
H92   H     H_    0.097819 0.376154 0.232131 0.149454
H93   H     H_    0.122021 0.399931 0.732144 0.149523
H94   H     H_    0.398615 0.120922 0.732128 0.149451
H95   H     H_    0.877979 0.600070 0.732143 0.149524
H96   H     H_    0.601385 0.879078 0.732128 0.149451
C125  C     C_R   0.945196 0.486824 0.914017 -0.178651
C126  C     C_R   0.486392 0.945331 0.914028 -0.161204
C127  C     C_R   0.054803 0.513176 0.914017 -0.178651
C128  C     C_R   0.513608 0.054669 0.914028 -0.161204
C129  C     C_R   0.445196 0.986824 0.414017 -0.178635
C130  C     C_R   0.985220 0.445630 0.414041 -0.161270
C131  C     C_R   0.554803 0.013176 0.414017 -0.178635
C132  C     C_R   0.014780 0.554370 0.414041 -0.161270
H97   H     H_    0.902425 0.476212 0.923385 0.183393
H98   H     H_    0.475412 0.902680 0.923400 0.193247
H99   H     H_    0.097575 0.523788 0.923385 0.183393
H100  H     H_    0.524587 0.097319 0.923400 0.193247
H101  H     H_    0.402425 0.976210 0.423386 0.183402
H102  H     H_    0.973307 0.403232 0.423420 0.193754
H103  H     H_    0.597575 0.023790 0.423386 0.183402
H104  H     H_    0.026693 0.596768 0.423420 0.193754
C133  C     C_R   1.000000 0.500000 0.926693 -0.051951
C134  C     C_R   0.500000 1.000000 0.926702 -0.055969
C135  C     C_R   0.500000 0.000000 0.426694 -0.051953
C136  C     C_R   1.000000 0.500000 0.426711 -0.056471
C137  C     C_R   1.000000 0.500000 0.876453 0.288180
C138  C     C_R   0.500000 1.000000 0.876466 0.285250
C139  C     C_R   0.500000 0.000000 0.376453 0.288167
C140  C     C_R   0.000000 0.500000 0.376475 0.284570
O25   O     O_2   0.069682 0.416288 0.851093 -0.535091
O26   O     O_2   0.416023 0.069368 0.851118 -0.535576
O27   O     O_2   0.930317 0.583712 0.851093 -0.535091
O28   O     O_2   0.583977 0.930632 0.851118 -0.535576
O29   O     O_2   0.569684 0.916289 0.351092 -0.535068
O30   O     O_2   0.918007 0.571712 0.351118 -0.535881
O31   O     O_2   0.430316 0.083711 0.351092 -0.535068
O32   O     O_2   0.081993 0.428287 0.351118 -0.535881
C141  C     C_R   0.512048 0.054963 0.110988 -0.078775
C142  C     C_R   0.945006 0.487914 0.111006 -0.081639
C143  C     C_R   0.487952 0.945037 0.110988 -0.078775
C144  C     C_R   0.054993 0.512085 0.111006 -0.081638
C145  C     C_R   0.012049 0.554963 0.610988 -0.078768
C146  C     C_R   0.445280 0.986718 0.610993 -0.081383
C147  C     C_R   0.987951 0.445037 0.610988 -0.078768
C148  C     C_R   0.554720 0.013282 0.610993 -0.081383
H105  H     H_    0.521727 0.097537 0.120616 0.158577
H106  H     H_    0.902415 0.478228 0.120640 0.160538
H107  H     H_    0.478273 0.902463 0.120616 0.158577
H108  H     H_    0.097585 0.521772 0.120640 0.160538
H109  H     H_    0.021729 0.597536 0.620616 0.158582
H110  H     H_    0.402909 0.976088 0.620625 0.160870
H111  H     H_    0.978271 0.402464 0.620616 0.158582
H112  H     H_    0.597090 0.023912 0.620625 0.160870
H113  H     H_    0.521272 0.098088 0.076638 0.178360
H114  H     H_    0.901880 0.478532 0.076652 0.194218
H115  H     H_    0.478728 0.901911 0.076638 0.178360
H116  H     H_    0.098120 0.521467 0.076652 0.194218
H117  H     H_    0.021274 0.598088 0.576638 0.178369
H118  H     H_    0.402370 0.976424 0.576633 0.194515
H119  H     H_    0.978726 0.401912 0.576638 0.178369
H120  H     H_    0.597629 0.023576 0.576633 0.194516
C149  C     C_R   1.000000 0.500000 0.775312 0.076577
C150  C     C_R   0.500000 1.000000 0.775324 0.076719
C151  C     C_R   0.500000 0.000000 0.275312 0.076577
C152  C     C_R   0.000000 0.500000 0.275328 0.076670
N5    N     N_R   1.000000 0.500000 0.850737 -0.356658
N6    N     N_R   0.500000 1.000000 0.850754 -0.355956
N7    N     N_R   0.500000 0.000000 0.350737 -0.356660
N8    N     N_R   1.000000 0.500000 0.350759 -0.355815
O33   O     O_R   0.500000 0.052340 0.035630 -0.606819
O34   O     O_R   0.947660 0.500000 0.035630 -0.607893
O35   O     O_R   0.500000 0.947660 0.035630 -0.606818
O36   O     O_R   0.052340 0.500000 0.035630 -0.607894
O37   O     O_R   1.000000 0.552340 0.535630 -0.606815
O38   O     O_R   0.447660 0.000000 0.535630 -0.607696
O39   O     O_R   1.000000 0.447660 0.535630 -0.606815
O40   O     O_R   0.552340 0.000000 0.535630 -0.607696
C153  C     C_R   0.500000 1.000000 0.047004 0.913239
C154  C     C_R   1.000000 0.500000 0.047013 0.848191
C155  C     C_R   0.000000 0.500000 0.547004 0.913219
C156  C     C_R   0.500000 0.000000 0.547010 0.847973
O41   O     O_R   0.407370 0.052330 0.000010 -0.581863
O42   O     O_R   0.947670 0.407370 0.000010 -0.571340
O43   O     O_R   0.592630 0.947670 0.000010 -0.581863
O44   O     O_R   0.052330 0.592630 0.000010 -0.571340
O45   O     O_R   0.907370 0.552330 0.500010 -0.581793
O46   O     O_R   0.447670 0.907370 0.500010 -0.571390
O47   O     O_R   0.092630 0.447670 0.500010 -0.581793
O48   O     O_R   0.552330 0.092630 0.500010 -0.571390
O49   O     O_R   0.407380 0.947770 0.000040 -0.610884
O50   O     O_R   0.052230 0.407380 0.000040 -0.582185
O51   O     O_R   0.592620 0.052230 0.000040 -0.610884
O52   O     O_R   0.947770 0.592620 0.000040 -0.582185
O53   O     O_R   0.907380 0.447770 0.500040 -0.610945
O54   O     O_R   0.552230 0.907380 0.500040 -0.582136
O55   O     O_R   0.092620 0.552230 0.500040 -0.610945
O56   O     O_R   0.447770 0.092620 0.500040 -0.582136
C157  C     C_R   0.378918 0.999806 0.999211 0.902839
C158  C     C_R   0.999908 0.378777 0.000948 0.862260
C159  C     C_R   0.621082 0.000194 0.999211 0.902839
C160  C     C_R   0.000092 0.621223 0.000948 0.862260
C161  C     C_R   0.878918 0.499806 0.499211 0.902739
C162  C     C_R   0.499908 0.878777 0.500948 0.862163
C163  C     C_R   0.121082 0.500193 0.499211 0.902739
C164  C     C_R   0.500092 0.121223 0.500948 0.862163
Zn5   Zn    Zn3+2 0.499970 0.069870 0.000000 1.105039
Zn6   Zn    Zn3+2 0.930130 0.499970 0.000000 1.127377
Zn7   Zn    Zn3+2 0.500030 0.930130 0.000000 1.105039
Zn8   Zn    Zn3+2 0.069870 0.500030 0.000000 1.127377
Zn9   Zn    Zn3+2 0.999970 0.569870 0.500000 1.105200
Zn10  Zn    Zn3+2 0.430130 0.999970 0.500000 1.127538
Zn11  Zn    Zn3+2 0.000030 0.430130 0.500000 1.105200
Zn12  Zn    Zn3+2 0.569870 0.000030 0.500000 1.127538
O57   O     O_R   0.499940 0.052330 0.964390 -0.611824
O58   O     O_R   0.947670 0.499940 0.964390 -0.610972
O59   O     O_R   0.500060 0.947670 0.964390 -0.611823
O60   O     O_R   0.052330 0.500060 0.964390 -0.610972
O61   O     O_R   0.999940 0.552330 0.464390 -0.611620
O62   O     O_R   0.447670 0.999940 0.464390 -0.610971
O63   O     O_R   0.000060 0.447670 0.464390 -0.611620
O64   O     O_R   0.552330 0.000060 0.464390 -0.610971
C165  C     C_R   0.926478 0.584713 0.801017 -0.117913
C166  C     C_R   0.585149 0.926973 0.801037 -0.117722
C167  C     C_R   0.073522 0.415287 0.801017 -0.117913
C168  C     C_R   0.414850 0.073027 0.801037 -0.117722
C169  C     C_R   0.426476 0.084711 0.301017 -0.117903
C170  C     C_R   0.083000 0.424529 0.301041 -0.117710
C171  C     C_R   0.573524 0.915289 0.301017 -0.117903
C172  C     C_R   0.917000 0.575471 0.301041 -0.117710
C173  C     C_R   0.500000 0.000000 0.953015 0.868827
C174  C     C_R   0.000000 0.500000 0.953010 0.853619
C175  C     C_R   0.000000 0.500000 0.453018 0.868603
C176  C     C_R   0.500000 0.000000 0.453010 0.853594
C177  C     C_R   0.963136 0.542467 0.813557 -0.026081
C178  C     C_R   0.542669 0.963364 0.813575 -0.026395
C179  C     C_R   0.036864 0.457533 0.813557 -0.026081
C180  C     C_R   0.457331 0.036636 0.813575 -0.026395
C181  C     C_R   0.463135 0.042466 0.313557 -0.026089
C182  C     C_R   0.041597 0.462147 0.313578 -0.026265
C183  C     C_R   0.536865 0.957534 0.313557 -0.026089
C184  C     C_R   0.958403 0.537853 0.313578 -0.026265
H121  H     H_    0.896697 0.619268 0.767870 0.149535
H122  H     H_    0.619969 0.897465 0.767903 0.149429
H123  H     H_    0.103303 0.380732 0.767870 0.149535
H124  H     H_    0.380031 0.102535 0.767903 0.149429
H125  H     H_    0.396694 0.119266 0.267870 0.149546
H126  H     H_    0.116933 0.394000 0.267907 0.149392
H127  H     H_    0.603306 0.880734 0.267870 0.149546
H128  H     H_    0.883067 0.606000 0.267907 0.149392
C185  C     C_R   1.000000 0.500000 0.800791 -0.049160
C186  C     C_R   0.500000 1.000000 0.800806 -0.049084
C187  C     C_R   0.500000 1.000000 0.300791 -0.049160
C188  C     C_R   1.000000 0.500000 0.300810 -0.049143
C189  C     C_R   0.542245 0.961493 0.237291 0.044929
C190  C     C_R   0.962318 0.542992 0.237301 0.045023
C191  C     C_R   0.457755 0.038507 0.237291 0.044929
C192  C     C_R   0.037682 0.457008 0.237301 0.045023
C193  C     C_R   0.042244 0.461492 0.737291 0.044925
C194  C     C_R   0.461083 0.041869 0.737297 0.045010
C195  C     C_R   0.957756 0.538508 0.737291 0.044926
C196  C     C_R   0.538917 0.958131 0.737297 0.045010
C197  C     C_R   0.500000 1.000000 0.224701 0.076605
C198  C     C_R   0.000000 0.500000 0.224711 0.076503
C199  C     C_R   0.000000 0.500000 0.724701 0.076605
C200  C     C_R   0.500000 1.000000 0.724707 0.076542
C201  C     C_R   0.925017 0.584179 0.776106 -0.203045
C202  C     C_R   0.584687 0.925575 0.776125 -0.202737
C203  C     C_R   0.074983 0.415821 0.776106 -0.203046
C204  C     C_R   0.415313 0.074425 0.776125 -0.202736
C205  C     C_R   0.425015 0.084177 0.276106 -0.203047
C206  C     C_R   0.082488 0.423133 0.276129 -0.202729
C207  C     C_R   0.574985 0.915823 0.276106 -0.203048
C208  C     C_R   0.917512 0.576867 0.276129 -0.202729
C209  C     C_R   0.586178 0.927304 0.223908 -0.203008
C210  C     C_R   0.928899 0.587500 0.223909 -0.202942
C211  C     C_R   0.413822 0.072696 0.223908 -0.203008
C212  C     C_R   0.071101 0.412499 0.223909 -0.202941
C213  C     C_R   0.086176 0.427302 0.723908 -0.203011
C214  C     C_R   0.426385 0.085380 0.723906 -0.202956
C215  C     C_R   0.913824 0.572698 0.723908 -0.203011
C216  C     C_R   0.573615 0.914620 0.723906 -0.202956
C217  C     C_R   0.586673 0.928777 0.198996 -0.118248
C218  C     C_R   0.930304 0.587899 0.198997 -0.118079
C219  C     C_R   0.413327 0.071223 0.198996 -0.118248
C220  C     C_R   0.069696 0.412101 0.198997 -0.118080
C221  C     C_R   0.086672 0.428775 0.698996 -0.118239
C222  C     C_R   0.427789 0.085828 0.698994 -0.118097
C223  C     C_R   0.913328 0.571225 0.698996 -0.118240
C224  C     C_R   0.572211 0.914172 0.698994 -0.118097
C225  C     C_R   0.543450 0.964288 0.186456 -0.027738
C226  C     C_R   0.965025 0.544043 0.186460 -0.026733
C227  C     C_R   0.456550 0.035712 0.186456 -0.027738
C228  C     C_R   0.034975 0.455957 0.186460 -0.026733
C229  C     C_R   0.043449 0.464287 0.686456 -0.027745
C230  C     C_R   0.463773 0.043009 0.686456 -0.026679
C231  C     C_R   0.956551 0.535713 0.686456 -0.027745
C232  C     C_R   0.536227 0.956990 0.686456 -0.026679
N9    N     N_R   0.187058 0.105871 0.980063 0.206090
O65   O     O_R   0.149973 0.122271 0.962775 -0.361144
O66   O     O_R   0.204754 0.147429 0.995576 -0.315773
N10   N     N_R   0.934112 0.189537 0.961428 0.225787
O67   O     O_R   0.943293 0.160039 0.941364 -0.327437
O68   O     O_R   0.877396 0.199635 0.968310 -0.318582
N11   N     N_R   0.812942 0.894129 0.980063 0.206090
O69   O     O_R   0.850027 0.877729 0.962775 -0.361143
O70   O     O_R   0.795246 0.852571 0.995576 -0.315773
N12   N     N_R   0.065887 0.810463 0.961428 0.225787
O71   O     O_R   0.056707 0.839961 0.941364 -0.327437
O72   O     O_R   0.122604 0.800365 0.968310 -0.318582
N13   N     N_R   0.687057 0.605872 0.480064 0.206100
O73   O     O_R   0.649973 0.622273 0.462776 -0.361145
O74   O     O_R   0.704754 0.647430 0.495577 -0.315727
N14   N     N_R   0.434105 0.689537 0.461430 0.225778
O75   O     O_R   0.443283 0.660038 0.441366 -0.327485
O76   O     O_R   0.377389 0.699636 0.468313 -0.318599
N15   N     N_R   0.312942 0.394128 0.480064 0.206100
O77   O     O_R   0.350027 0.377727 0.462776 -0.361145
O78   O     O_R   0.295246 0.352570 0.495577 -0.315727
N16   N     N_R   0.565895 0.310463 0.461430 0.225778
O79   O     O_R   0.556717 0.339962 0.441366 -0.327485
O80   O     O_R   0.622610 0.300363 0.468313 -0.318599
N17   N     N_R   0.306407 0.911206 0.968904 0.230143
O81   O     O_R   0.285268 0.934947 0.949055 -0.390551
O82   O     O_R   0.342213 0.862883 0.967683 -0.309971
N18   N     N_R   0.116394 0.304526 0.992236 0.248513
O83   O     O_R   0.119775 0.285839 0.970060 -0.355795
O84   O     O_R   0.162864 0.335515 0.001201 -0.297644
N19   N     N_R   0.693592 0.088794 0.968904 0.230143
O85   O     O_R   0.714732 0.065053 0.949055 -0.390551
O86   O     O_R   0.657787 0.137117 0.967683 -0.309971
N20   N     N_R   0.883606 0.695474 0.992236 0.248513
O87   O     O_R   0.880225 0.714161 0.970060 -0.355794
O88   O     O_R   0.837136 0.664485 0.001201 -0.297644
N21   N     N_R   0.806408 0.411211 0.468901 0.230013
O89   O     O_R   0.785267 0.434953 0.449053 -0.391015
O90   O     O_R   0.842218 0.362891 0.467679 -0.310298
N22   N     N_R   0.616391 0.804524 0.492233 0.248513
O91   O     O_R   0.619767 0.785837 0.470057 -0.355774
O92   O     O_R   0.662864 0.835514 0.501196 -0.297470
N23   N     N_R   0.193592 0.588789 0.468901 0.230012
O93   O     O_R   0.214732 0.565047 0.449053 -0.391016
O94   O     O_R   0.157782 0.637109 0.467679 -0.310298
N24   N     N_R   0.383609 0.195475 0.492233 0.248513
O95   O     O_R   0.380232 0.214163 0.470057 -0.355774
O96   O     O_R   0.337136 0.164486 0.501196 -0.297470
N25   N     N_R   0.317772 0.068692 0.036137 0.242633
O97   O     O_R   0.352145 0.061283 0.055120 -0.371934
O98   O     O_R   0.308627 0.124498 0.028047 -0.291905
N26   N     N_R   0.890113 0.313048 0.019312 0.255457
O99   O     O_R   0.870217 0.343915 0.037835 -0.352191
O100  O     O_R   0.853178 0.305121 0.001079 -0.285217
N27   N     N_R   0.682228 0.931308 0.036137 0.242633
O101  O     O_R   0.647855 0.938717 0.055120 -0.371934
O102  O     O_R   0.691373 0.875502 0.028047 -0.291905
N28   N     N_R   0.109886 0.686952 0.019312 0.255457
O103  O     O_R   0.129783 0.656085 0.037835 -0.352191
O104  O     O_R   0.146822 0.694879 0.001079 -0.285217
N29   N     N_R   0.817773 0.568687 0.536138 0.242639
O105  O     O_R   0.852145 0.561276 0.555121 -0.371921
O106  O     O_R   0.808629 0.624494 0.528049 -0.291840
N30   N     N_R   0.390118 0.813051 0.519317 0.255475
O107  O     O_R   0.370228 0.843919 0.537840 -0.352760
O108  O     O_R   0.353178 0.805125 0.501085 -0.285150
N31   N     N_R   0.182227 0.431313 0.536138 0.242640
O109  O     O_R   0.147855 0.438724 0.555121 -0.371921
O110  O     O_R   0.191371 0.375506 0.528049 -0.291841
N32   N     N_R   0.609882 0.186949 0.519317 0.255474
O111  O     O_R   0.629772 0.156081 0.537840 -0.352760
O112  O     O_R   0.646822 0.194875 0.501085 -0.285150
N33   N     N_R   0.193450 0.884069 0.011315 0.188913
O113  O     O_R   0.157956 0.895547 0.029645 -0.413292
O114  O     O_R   0.211860 0.827355 0.007874 -0.292056
N34   N     N_R   0.078070 0.190283 0.033619 0.239364
O115  O     O_R   0.051049 0.212594 0.052629 -0.383541
O116  O     O_R   0.122812 0.150783 0.036460 -0.328767
N35   N     N_R   0.806550 0.115931 0.011315 0.188913
O117  O     O_R   0.842044 0.104452 0.029645 -0.413293
O118  O     O_R   0.788140 0.172645 0.007874 -0.292056
N36   N     N_R   0.921930 0.809717 0.033619 0.239364
O119  O     O_R   0.948951 0.787406 0.052629 -0.383541
O120  O     O_R   0.877188 0.849216 0.036460 -0.328767
N37   N     N_R   0.693451 0.384068 0.511313 0.188906
O121  O     O_R   0.657957 0.395545 0.529644 -0.413335
O122  O     O_R   0.711862 0.327354 0.507872 -0.292042
N38   N     N_R   0.578073 0.690283 0.533617 0.239389
O123  O     O_R   0.551056 0.712597 0.552628 -0.383660
O124  O     O_R   0.622812 0.650781 0.536458 -0.328747
N39   N     N_R   0.306549 0.615932 0.511313 0.188906
O125  O     O_R   0.342043 0.604455 0.529644 -0.413335
O126  O     O_R   0.288138 0.672646 0.507872 -0.292042
N40   N     N_R   0.421927 0.309717 0.533617 0.239389
O127  O     O_R   0.448944 0.287403 0.552628 -0.383660
O128  O     O_R   0.377188 0.349219 0.536458 -0.328748

loop_
_geom_bond_atom_site_label_1
_geom_bond_atom_site_label_2
_geom_bond_distance
_ccdc_geom_bond_type
C64   C96   1.539317 S    
O46   Zn10  2.034291 S    
N13   O73   1.301290 A    
O38   Zn10  2.019933 S    
C12   N2    1.367673 A    
C10   N2    1.367674 A    
C62   N10   1.472829 S    
C46   H34   1.114013 S    
C141  H105  1.082903 S    
C183  C187  1.407778 A    
N17   O81   1.301387 A    
C104  C144  1.391754 A    
H11   C219  1.083494 S    
C82   C90   1.582086 S    
C211  C219  1.387777 A    
C169  C181  1.395793 A    
C25   N7    1.367819 A    
C26   N8    1.367820 A    
C15   O23   1.349937 S    
N4    C116  1.431971 S    
H85   C169  1.083494 S    
C165  C177  1.395793 A    
Zn9   O61   2.018926 S    
C57   N37   1.475105 S    
C167  C179  1.395792 A    
C4    C69   1.472798 S    
C98   H70   1.111001 S    
Zn11  O63   2.018926 S    
H16   C224  1.083500 S    
C78   C158  1.469634 S    
H84   C168  1.083499 S    
C224  C232  1.395699 A    
O62   C176  1.293820 A    
O34   Zn6   2.019933 S    
H15   C223  1.083494 S    
N27   O102  1.301015 A    
O3    C3    1.280882 A    
C16   C232  1.401489 A    
O36   C154  1.294095 A    
C64   H52   1.114454 S    
C67   C75   1.573904 S    
H42   C86   1.114611 S    
C6    C75   1.472800 S    
C189  C197  1.420134 A    
C108  C148  1.391751 A    
C63   C71   1.573904 S    
C190  C210  1.415045 A    
C217  C225  1.395790 A    
C194  C200  1.420231 A    
C122  C130  1.391754 A    
C192  C198  1.420352 A    
C62   H50   1.114454 S    
O12   Zn3   2.032876 S    
C56   C72   1.564814 S    
C24   C178  1.401489 A    
C41   C49   1.535781 S    
C78   C86   1.582087 S    
C51   H39   1.115795 S    
C89   N21   1.473190 S    
N15   O77   1.301287 A    
C81   C97   1.552202 S    
C43   H31   1.104564 S    
C129  H101  1.082990 S    
C21   C179  1.401405 A    
C48   H36   1.114012 S    
C56   N36   1.474543 S    
O37   C155  1.294503 A    
C82   C162  1.469632 S    
C178  C186  1.407819 A    
O41   Zn5   2.029997 S    
C170  C182  1.395800 A    
C32   C150  1.420230 A    
N19   O86   1.301245 A    
C102  C142  1.391754 A    
C213  C221  1.387777 A    
H1    C117  1.082909 S    
O12   C4    1.282770 A    
C57   C73   1.574467 S    
N23   O94   1.301247 A    
C44   C52   1.540577 S    
C106  C146  1.391751 A    
C39   H27   1.104562 S    
C61   H49   1.114887 S    
C62   C94   1.539317 S    
C118  C126  1.391746 A    
N25   O98   1.301015 A    
C119  C127  1.391688 A    
C192  C212  1.415044 A    
Zn10  O62   2.018880 S    
C47   C79   1.565165 S    
N24   O95   1.301258 A    
C101  C109  1.404240 A    
C125  H97   1.082989 S    
C54   C86   1.549422 S    
C38   C46   1.540571 S    
O50   Zn8   2.032692 S    
C28   O32   1.349982 S    
O33   Zn5   2.019980 S    
O40   Zn12  2.019933 S    
O60   C174  1.293818 A    
C84   C164  1.469632 S    
C68   C100  1.539316 S    
O5    Zn2   2.033000 S    
C33   C189  1.418614 A    
C22   O26   1.349928 S    
C145  H109  1.082903 S    
N10   O67   1.301368 A    
C9    C225  1.401400 A    
C133  C174  1.465597 S    
C62   C70   1.579656 S    
C101  C141  1.391598 A    
O10   C2    1.282770 A    
C196  C216  1.414941 A    
O45   C161  1.286785 A    
C60   C92   1.549426 S    
C143  H107  1.082903 S    
C149  C185  1.418956 A    
C42   C50   1.540575 S    
C193  C199  1.420131 A    
N9    O65   1.301286 A    
C59   C91   1.553721 S    
C122  C140  1.400421 A    
O4    C4    1.279183 A    
O5    C5    1.280879 A    
N38   O123  1.301514 A    
N21   O89   1.301387 A    
N16   O79   1.301372 A    
C168  C180  1.395697 A    
C65   C97   1.541520 S    
O10   Zn3   2.032878 S    
C10   O18   1.349982 S    
C94   H58   1.108347 S    
C80   C88   1.582088 S    
C43   H23   1.108835 S    
C53   C85   1.553717 S    
C27   N7    1.367817 A    
C137  N5    1.432143 S    
C14   O22   1.349926 S    
C3    C72   1.469793 S    
C29   C149  1.420132 A    
C56   C88   1.549422 S    
C68   N16   1.472828 S    
C78   C94   1.548874 S    
C50   N30   1.471519 S    
C218  C226  1.395779 A    
C25   C183  1.401405 A    
C36   C206  1.415035 A    
C139  N7    1.432143 S    
C67   N15   1.469873 S    
C65   H53   1.114889 S    
C214  C222  1.387747 A    
C11   O19   1.349937 S    
C136  C175  1.465096 S    
C115  C147  1.400241 A    
O64   C176  1.293818 A    
C38   C70   1.550864 S    
C55   C71   1.574464 S    
C209  C217  1.387777 A    
C30   C194  1.418786 A    
C47   H35   1.115790 S    
C22   C180  1.401489 A    
C108  H120  1.083026 S    
C34   C190  1.418793 A    
C37   H17   1.108834 S    
H90   C210  1.076852 S    
O38   C156  1.294006 A    
C196  C200  1.420231 A    
C103  C143  1.391598 A    
C20   C200  1.419145 A    
C39   H19   1.108839 S    
C31   C201  1.414839 A    
C47   N27   1.471439 S    
N12   O71   1.301368 A    
C195  C199  1.420133 A    
C132  H104  1.083099 S    
O39   C155  1.294505 A    
H10   C218  1.083567 S    
Zn5   O57   2.018926 S    
C144  H108  1.082941 S    
C52   N32   1.471518 S    
C134  C173  1.465408 S    
H8    C124  1.082934 S    
C112  C156  1.465586 S    
C83   C91   1.573065 S    
C87   N19   1.473185 S    
O15   Zn4   2.034175 S    
C81   C89   1.573063 S    
N22   O91   1.301257 A    
C40   H28   1.099815 S    
C10   C226  1.401476 A    
O4    Zn1   2.031709 S    
O2    Zn1   2.031711 S    
C120  C128  1.391746 A    
H123  C203  1.076858 S    
C68   H56   1.114452 S    
O7    Zn2   2.033002 S    
C21   N5    1.367819 A    
N18   O83   1.301259 A    
C171  C207  1.387772 A    
C23   C177  1.401405 A    
O14   Zn4   2.032878 S    
O49   Zn7   2.034520 S    
C169  C205  1.387772 A    
C58   H78   1.109419 S    
C23   O27   1.349931 S    
C41   C73   1.562971 S    
C27   C181  1.401405 A    
H13   C221  1.083494 S    
C24   O28   1.349926 S    
C40   C48   1.540571 S    
C32   C202  1.414943 A    
N20   O88   1.301488 A    
C106  H118  1.083030 S    
C26   C184  1.401488 A    
C190  C198  1.420355 A    
C59   C75   1.574467 S    
N26   O100  1.301170 A    
N37   O121  1.300096 A    
C17   C225  1.407782 A    
C48   N28   1.471520 S    
C106  C112  1.404285 A    
C210  C218  1.387752 A    
C88   N20   1.474863 S    
O44   C160  1.287100 A    
N34   O116  1.299126 A    
H48   C92   1.114607 S    
H86   C170  1.083567 S    
C110  C154  1.465903 S    
C30   C204  1.414941 A    
N36   O120  1.299126 A    
N1    C113  1.432093 S    
O48   C164  1.287100 A    
C11   C227  1.401400 A    
N31   O109  1.301208 A    
C38   H26   1.099815 S    
C123  C139  1.400315 A    
C131  C135  1.404227 A    
C55   H75   1.113563 S    
O45   Zn9   2.029997 S    
C25   O29   1.349931 S    
C220  C228  1.395780 A    
N12   O72   1.300422 A    
C172  C184  1.395800 A    
C98   H62   1.108346 S    
C117  C137  1.400310 A    
C31   C149  1.420132 A    
C107  C111  1.404241 A    
O56   Zn10  2.032692 S    
N35   O117  1.300096 A    
O51   C159  1.282146 A    
O1    C1    1.280882 A    
C104  H116  1.083053 S    
O52   Zn6   2.032692 S    
O42   C158  1.287100 A    
C119  C137  1.400312 A    
N32   O111  1.301397 A    
C35   C205  1.414839 A    
C92   N24   1.474866 S    
C64   C72   1.579656 S    
N3    C115  1.432093 S    
O13   C5    1.280205 A    
C55   N35   1.475103 S    
C33   C207  1.414842 A    
C24   N6    1.367695 A    
C194  C214  1.414941 A    
C116  C146  1.400231 A    
O7    C7    1.280879 A    
O8    C8    1.279189 A    
C19   C231  1.407783 A    
C79   C87   1.573067 S    
N39   O126  1.301760 A    
N20   O87   1.301259 A    
C11   N1    1.367805 A    
O8    Zn2   2.031709 S    
C35   C151  1.420131 A    
N11   O69   1.301286 A    
C222  C230  1.395699 A    
C16   N4    1.367696 A    
C49   H37   1.115795 S    
C126  H98   1.083029 S    
H6    C122  1.082933 S    
C58   N38   1.474546 S    
N23   O93   1.301386 A    
C124  C140  1.400421 A    
C165  C201  1.387772 A    
C58   C74   1.564813 S    
N25   O97   1.301208 A    
C180  C186  1.407819 A    
N30   O107  1.301397 A    
C130  H102  1.083097 S    
C184  C188  1.407901 A    
C85   N17   1.473184 S    
C40   H20   1.110374 S    
O11   Zn3   2.034175 S    
C1    C70   1.469793 S    
C146  H110  1.082907 S    
C77   C157  1.464328 S    
O47   Zn11  2.029997 S    
O56   C164  1.284286 A    
H41   C85   1.115553 S    
H3    C119  1.082909 S    
O42   Zn6   2.034291 S    
C111  C155  1.465675 S    
C66   H54   1.114453 S    
O11   C3    1.280199 A    
N40   O127  1.301513 A    
C29   C203  1.414840 A    
C35   C191  1.418614 A    
C117  C125  1.391688 A    
C96   H68   1.110999 S    
C37   C45   1.535782 S    
N33   O113  1.300100 A    
C166  C178  1.395695 A    
C109  C153  1.465675 S    
C54   H74   1.109418 S    
C39   C47   1.535782 S    
O33   C153  1.294503 A    
O6    C6    1.279189 A    
C99   H71   1.110558 S    
C195  C215  1.414841 A    
C52   C84   1.579229 S    
C31   C195  1.418614 A    
C17   C227  1.407783 A    
C97   H69   1.110558 S    
C32   C196  1.418786 A    
C18   C228  1.407952 A    
C37   H25   1.104563 S    
O35   Zn7   2.019980 S    
H46   C90   1.114608 S    
O55   Zn9   2.034520 S    
C93   H57   1.107747 S    
C138  N6    1.431965 S    
C113  C141  1.400240 A    
O35   C153  1.294505 A    
C60   N40   1.474546 S    
C30   C150  1.420231 A    
O55   C163  1.282146 A    
C9    O17   1.349937 S    
C96   H60   1.108347 S    
C129  C135  1.404227 A    
C42   C74   1.550871 S    
C130  C136  1.404126 A    
O53   Zn11  2.034520 S    
C84   C92   1.582086 S    
H82   C166  1.083499 S    
C63   N11   1.469875 S    
C7    C76   1.469795 S    
C65   N13   1.469874 S    
N13   O74   1.300983 A    
C215  C223  1.387777 A    
N24   O96   1.301487 A    
C152  C188  1.419123 A    
C105  C145  1.391598 A    
N28   O104  1.301170 A    
N17   O82   1.301246 A    
H43   C87   1.115554 S    
H95   C215  1.076855 S    
H44   C88   1.114610 S    
C151  C187  1.418956 A    
C135  C176  1.465597 S    
C61   C69   1.573904 S    
C115  C145  1.400241 A    
C51   N31   1.471441 S    
H92   C212  1.076853 S    
C51   C83   1.565166 S    
C97   H61   1.107749 S    
C56   H76   1.109418 S    
C49   C81   1.565166 S    
C61   C93   1.541521 S    
C67   C99   1.541520 S    
H45   C89   1.115552 S    
O3    Zn1   2.033002 S    
C81   C161  1.464326 S    
C19   C229  1.407782 A    
H83   C167  1.083494 S    
C63   C95   1.541521 S    
C132  C136  1.404125 A    
C83   C163  1.464326 S    
C14   N4    1.367694 A    
H91   C211  1.076858 S    
H2    C118  1.082906 S    
C101  H113  1.082944 S    
C28   N8    1.367818 A    
O40   C156  1.294005 A    
C82   C98   1.548869 S    
H9    C217  1.083494 S    
C64   N12   1.472829 S    
H126  C206  1.076850 S    
C128  H100  1.083031 S    
C123  C131  1.391688 A    
O9    C1    1.280199 A    
C53   N33   1.475103 S    
C42   H30   1.099819 S    
C191  C211  1.414839 A    
C67   H55   1.114889 S    
H122  C202  1.076776 S    
N38   O124  1.299123 A    
O9    Zn3   2.034173 S    
N16   O80   1.300423 A    
C46   N26   1.471520 S    
C148  H112  1.082907 S    
C22   N6    1.367696 A    
C2    C71   1.472798 S    
C102  C110  1.404444 A    
C103  H115  1.082946 S    
C8    C73   1.472800 S    
C60   H80   1.109419 S    
N33   O114  1.301761 A    
C12   C228  1.401475 A    
C212  C220  1.387752 A    
N28   O103  1.301394 A    
C170  C206  1.387749 A    
C52   H40   1.114011 S    
C90   N22   1.474865 S    
C66   C98   1.539319 S    
C13   C229  1.401400 A    
H94   C214  1.076774 S    
C107  H119  1.082945 S    
C45   H33   1.115792 S    
C63   H51   1.114887 S    
O44   Zn8   2.034291 S    
C125  C133  1.404230 A    
C100  H72   1.111001 S    
C9    N1    1.367804 A    
C121  C139  1.400313 A    
C18   C226  1.407954 A    
C15   C231  1.401400 A    
H81   C165  1.083492 S    
H4    C120  1.082904 S    
N35   O118  1.301761 A    
O14   C6    1.282766 A    
C113  C143  1.400241 A    
C128  C134  1.404226 A    
O46   C162  1.287100 A    
C114  C144  1.400167 A    
C120  C138  1.400245 A    
C93   H65   1.110558 S    
C191  C197  1.420131 A    
C124  C132  1.391754 A    
C131  H103  1.082990 S    
C33   C151  1.420131 A    
O41   C157  1.286786 A    
H124  C204  1.076777 S    
C34   C152  1.420347 A    
N14   O75   1.301373 A    
C26   O30   1.349982 S    
C57   H77   1.113561 S    
C18   C198  1.419106 A    
C68   C76   1.579655 S    
C118  C138  1.400244 A    
C77   C85   1.573067 S    
H87   C171  1.083494 S    
C80   C160  1.469634 S    
H14   C222  1.083500 S    
N10   O68   1.300422 A    
N11   O70   1.300983 A    
C48   C80   1.579233 S    
H125  C205  1.076860 S    
N31   O110  1.301018 A    
C13   N3    1.367804 A    
O2    C2    1.279183 A    
N2    C114  1.431815 S    
O16   C8    1.282766 A    
C94   H66   1.110998 S    
O1    Zn1   2.033000 S    
O16   Zn4   2.032876 S    
N22   O92   1.301490 A    
O39   Zn11  2.019980 S    
C189  C209  1.414839 A    
O34   C154  1.294096 A    
N29   O105  1.301208 A    
C121  C129  1.391688 A    
O48   Zn12  2.034291 S    
C193  C213  1.414841 A    
N18   O84   1.301488 A    
C168  C204  1.387747 A    
Zn12  O64   2.018880 S    
C28   C182  1.401488 A    
C17   C197  1.418956 A    
C223  C231  1.395789 A    
H7    C123  1.082911 S    
C91   N23   1.473184 S    
N27   O101  1.301208 A    
C54   C70   1.564814 S    
C27   O31   1.349931 S    
Zn6   O58   2.018880 S    
C221  C229  1.395790 A    
C179  C185  1.407778 A    
N9    O66   1.300983 A    
C166  C202  1.387747 A    
C54   N34   1.474543 S    
C38   H18   1.110373 S    
N21   O90   1.301246 A    
H93   C213  1.076857 S    
O53   C161  1.282146 A    
C79   C95   1.552203 S    
C177  C185  1.407777 A    
N34   O115  1.301516 A    
C80   C96   1.548869 S    
C66   C74   1.579654 S    
C104  C110  1.404443 A    
N39   O125  1.300096 A    
C105  H117  1.082945 S    
C140  N8    1.432155 S    
C147  H111  1.082903 S    
H96   C216  1.076773 S    
O43   C159  1.286786 A    
O49   C157  1.282146 A    
O15   C7    1.280205 A    
C107  C147  1.391598 A    
C39   C71   1.562968 S    
C40   C72   1.550864 S    
O58   C174  1.293820 A    
C34   C208  1.415035 A    
C44   H32   1.099818 S    
C86   N18   1.474863 S    
Zn8   O60   2.018880 S    
C108  C112  1.404284 A    
O57   C173  1.294326 A    
C19   C199  1.418956 A    
C53   C69   1.574464 S    
C20   C232  1.407820 A    
N29   O106  1.301018 A    
N19   O85   1.301387 A    
H47   C91   1.115556 S    
O61   C175  1.294252 A    
C15   N3    1.367806 A    
C59   H79   1.113561 S    
C114  C142  1.400168 A    
C126  C134  1.404227 A    
C95   H67   1.110559 S    
O50   C158  1.284286 A    
C41   H21   1.108836 S    
C55   C87   1.553717 S    
N32   O112  1.301171 A    
O63   C175  1.294254 A    
O47   C163  1.286785 A    
H88   C172  1.083566 S    
C171  C183  1.395793 A    
C5    C74   1.469795 S    
C21   O25   1.349931 S    
O43   Zn7   2.029997 S    
O54   Zn12  2.032692 S    
C61   N9    1.469875 S    
C44   C76   1.550870 S    
C102  H114  1.083054 S    
C116  C148  1.400229 A    
C53   H73   1.113563 S    
C45   C77   1.565166 S    
C59   N39   1.475105 S    
C150  C186  1.419145 A    
C60   C76   1.564813 S    
C219  C227  1.395790 A    
C45   N25   1.471439 S    
C43   C75   1.562970 S    
O59   C173  1.294328 A    
C41   H29   1.104562 S    
C58   C90   1.549426 S    
C36   C152  1.420346 A    
C49   N29   1.471440 S    
C44   H24   1.110373 S    
N30   O108  1.301167 A    
C127  C133  1.404230 A    
C79   C159  1.464328 S    
C65   C73   1.573904 S    
C50   C82   1.579229 S    
C43   C51   1.535779 S    
C66   N14   1.472827 S    
O6    Zn2   2.031711 S    
C99   H63   1.107751 S    
C103  C109  1.404241 A    
N14   O76   1.300421 A    
C12   O20   1.349982 S    
C95   H59   1.107749 S    
O13   Zn4   2.034173 S    
C13   O21   1.349937 S    
C181  C187  1.407777 A    
H128  C208  1.076850 S    
Zn7   O59   2.018926 S    
H12   C220  1.083565 S    
N40   O128  1.299121 A    
C16   O24   1.349926 S    
C83   C99   1.552202 S    
C77   C93   1.552203 S    
H127  C207  1.076857 S    
C20   C230  1.407822 A    
C23   N5    1.367818 A    
C105  C111  1.404239 A    
C46   C78   1.579229 S    
C127  H99   1.082991 S    
C84   C100  1.548874 S    
N26   O99   1.301395 A    
N37   O122  1.301760 A    
C142  H106  1.082941 S    
H121  C201  1.076859 S    
C36   C192  1.418793 A    
C37   C69   1.562973 S    
C172  C208  1.387749 A    
C50   H38   1.114011 S    
O37   Zn9   2.019980 S    
O36   Zn8   2.019933 S    
C57   C89   1.553721 S    
C100  H64   1.108347 S    
O54   C162  1.284286 A    
O51   Zn5   2.034520 S    
C29   C193  1.418614 A    
N15   O78   1.300983 A    
H5    C121  1.082913 S    
N36   O119  1.301515 A    
O52   C160  1.284286 A    
C167  C203  1.387772 A    
C216  C224  1.387747 A    
C14   C230  1.401489 A    
C42   H22   1.110374 S    
H89   C209  1.076858 S    
C182  C188  1.407898 A    
