data_mof_unit_63443.cif
_audit_creation_date              2012-12-10T18:06:24-0500
_audit_creation_method            fapswitch 2.2
_symmetry_space_group_name_H-M    P1
_symmetry_Int_Tables_number       1
_space_group_crystal_system       triclinic
_cell_length_a                    28.593428
_cell_length_b                    18.376716
_cell_length_c                    18.373106
_cell_angle_alpha                 90.00012
_cell_angle_beta                  129.553254
_cell_angle_gamma                 90.000014
_cell_volume                      7443.71435777

loop_
_atom_site_label
_atom_site_type_symbol
_atom_type_description
_atom_site_fract_x
_atom_site_fract_y
_atom_site_fract_z
_atom_type_partial_charge
C1    C     C_R   0.499609 0.999997 0.359714 0.822735
C2    C     C_R   0.500391 0.999997 0.640286 0.822740
C3    C     C_R   0.999607 0.499997 0.359713 0.822714
C4    C     C_R   0.000393 0.499997 0.640288 0.822703
C5    C     C_R   0.882985 0.995251 0.883276 0.859921
C6    C     C_R   0.117014 0.995249 0.116724 0.859925
C7    C     C_R   0.382985 0.495256 0.883276 0.859913
C8    C     C_R   0.617015 0.495261 0.116724 0.859905
C9    C     C_R   0.500000 0.139695 0.000000 0.838233
C10   C     C_R   0.500000 0.860305 1.000000 0.839196
C11   C     C_R   0.000000 0.639695 0.000000 0.838231
C12   C     C_R   1.000000 0.360305 1.000000 0.839206
C13   C     C_R   0.499785 0.999993 0.139499 0.838429
C14   C     C_R   0.500215 0.999993 0.860501 0.838431
C15   C     C_R   0.999785 0.499993 0.139499 0.838434
C16   C     C_R   0.000215 0.499993 0.860501 0.838433
C17   C     C_1   1.000000 0.217455 0.000000 -0.178939
C18   C     C_1   0.000000 0.782543 1.000000 -0.172918
C19   C     C_1   0.500000 0.717455 0.000000 -0.178937
C20   C     C_1   0.500000 0.282543 0.000000 -0.172922
C21   C     C_1   0.500000 0.782753 1.000000 -0.172476
C22   C     C_1   0.500000 0.217246 0.000000 -0.172971
C23   C     C_1   1.000000 0.282753 1.000000 -0.172479
C24   C     C_1   0.000000 0.717246 0.000000 -0.172977
C25   C     C_R   0.617115 0.000447 0.613780 0.819441
C26   C     C_R   0.382885 0.000447 0.386219 0.819442
C27   C     C_R   0.117114 0.500446 0.613777 0.819438
C28   C     C_R   0.882887 0.500446 0.386223 0.819443
C29   C     C_2   0.782194 0.002473 0.835727 -0.179216
C30   C     C_2   0.217805 0.002454 0.164268 -0.179220
C31   C     C_2   0.282194 0.502528 0.835715 -0.179199
C32   C     C_2   0.717807 0.502571 0.164297 -0.179184
C33   C     C_2   0.818891 0.978263 0.819723 -0.352008
C34   C     C_2   0.181108 0.978258 0.180278 -0.352020
C35   C     C_2   0.318890 0.478279 0.819725 -0.351984
C36   C     C_2   0.681111 0.478291 0.180273 -0.351957
C37   C     C_2   0.716151 0.988471 0.768534 0.077696
C38   C     C_2   0.283848 0.988452 0.231466 0.077690
C39   C     C_2   0.216151 0.488526 0.768536 0.077713
C40   C     C_2   0.783848 0.488566 0.231463 0.077719
C41   C     C_2   0.683056 0.003906 0.674702 -0.058771
C42   C     C_2   0.316943 0.003906 0.325293 -0.058776
C43   C     C_2   0.183054 0.503904 0.674689 -0.058744
C44   C     C_2   0.816948 0.503902 0.325321 -0.058726
C45   C     C_1   0.499399 0.999994 0.281969 -0.183817
C46   C     C_1   0.500600 0.999994 0.718031 -0.183816
C47   C     C_1   0.999399 0.499994 0.281968 -0.183805
C48   C     C_1   0.000602 0.499994 0.718032 -0.183810
C49   C     C_1   0.499412 0.999993 0.216684 -0.176093
C50   C     C_1   0.500588 0.999993 0.783315 -0.176096
C51   C     C_1   0.999412 0.499993 0.216684 -0.176108
C52   C     C_1   0.000588 0.499993 0.783316 -0.176105
C53   C     C_R   1.000000 0.139903 0.000000 0.849360
C54   C     C_R   0.000000 0.860091 1.000000 0.836029
C55   C     C_R   0.500000 0.639903 0.000000 0.849342
C56   C     C_R   0.500000 0.360091 0.000000 0.836039
Cu1   Cu    Cu3+1 0.500000 0.927480 0.500000 0.942477
Cu2   Cu    Cu3+1 0.500000 0.072520 0.500000 0.930667
Cu3   Cu    Cu3+1 1.000000 0.427480 0.500000 0.942504
Cu4   Cu    Cu3+1 1.000000 0.572520 0.500000 0.930680
Cu5   Cu    Cu3+1 0.999980 0.000000 0.072500 0.951570
Cu6   Cu    Cu3+1 0.000020 0.000000 0.927500 0.951569
Cu7   Cu    Cu3+1 0.499980 0.500000 0.072500 0.951567
Cu8   Cu    Cu3+1 0.500020 0.500000 0.927500 0.951567
Cu9   Cu    Cu3+1 0.561010 0.000000 0.061020 0.956974
Cu10  Cu    Cu3+1 0.438990 0.000000 0.938980 0.956977
Cu11  Cu    Cu3+1 0.061010 0.500000 0.061020 0.956959
Cu12  Cu    Cu3+1 0.938990 0.500000 0.938980 0.956949
H1    H     H_    0.800685 0.034081 0.898797 0.163315
H2    H     H_    0.199315 0.034052 0.101192 0.163322
H3    H     H_    0.300688 0.534164 0.898765 0.163295
H4    H     H_    0.699312 0.534233 0.101264 0.163278
H5    H     H_    0.802127 0.943699 0.759852 0.150164
H6    H     H_    0.197872 0.943704 0.240156 0.150171
H7    H     H_    0.302125 0.443688 0.759877 0.150148
H8    H     H_    0.697875 0.443674 0.240100 0.150132
O1    O     O_R   0.500010 0.938750 0.394200 -0.580681
O2    O     O_R   0.499990 0.061250 0.605800 -0.587467
O3    O     O_R   0.499990 0.938750 0.605800 -0.580677
O4    O     O_R   0.500010 0.061250 0.394200 -0.587465
O5    O     O_R   0.000010 0.438750 0.394200 -0.580681
O6    O     O_R   0.999990 0.561250 0.605800 -0.587464
O7    O     O_R   0.999990 0.438750 0.605800 -0.580685
O8    O     O_R   0.000010 0.561250 0.394200 -0.587473
O9    O     O_R   0.589030 0.938750 0.589040 -0.594883
O10   O     O_R   0.410970 0.061250 0.410960 -0.594142
O11   O     O_R   0.410970 0.938750 0.410960 -0.594890
O12   O     O_R   0.589030 0.061250 0.589040 -0.594142
O13   O     O_R   0.089030 0.438750 0.589040 -0.594866
O14   O     O_R   0.910970 0.561250 0.410960 -0.594141
O15   O     O_R   0.910970 0.438750 0.410960 -0.594856
O16   O     O_R   0.089030 0.561250 0.589040 -0.594143
O17   O     O_R   0.999970 0.105800 0.061210 -0.583160
O18   O     O_R   0.000030 0.894200 0.938790 -0.587001
O19   O     O_R   0.000030 0.105800 0.938790 -0.583160
O20   O     O_R   0.999970 0.894200 0.061210 -0.587001
O21   O     O_R   0.499970 0.605800 0.061210 -0.583166
O22   O     O_R   0.500030 0.394200 0.938790 -0.586995
O23   O     O_R   0.500030 0.605800 0.938790 -0.583168
O24   O     O_R   0.499970 0.394200 0.061210 -0.586997
O25   O     O_R   0.910960 0.000000 0.972180 -0.586554
O26   O     O_R   0.089040 0.000000 0.027820 -0.586556
O27   O     O_R   0.410960 0.500000 0.972180 -0.586550
O28   O     O_R   0.589040 0.500000 0.027820 -0.586547
O29   O     O_R   0.910970 1.000000 0.849710 -0.588608
O30   O     O_R   0.089030 0.000000 0.150290 -0.588610
O31   O     O_R   0.410970 0.500000 0.849710 -0.588604
O32   O     O_R   0.589030 0.500000 0.150290 -0.588601
O33   O     O_R   0.551520 0.105790 0.051530 -0.583181
O34   O     O_R   0.448480 0.894210 0.948470 -0.583279
O35   O     O_R   0.448480 0.105790 0.948470 -0.583181
O36   O     O_R   0.551520 0.894210 0.051530 -0.583278
O37   O     O_R   0.051520 0.605790 0.051530 -0.583183
O38   O     O_R   0.948480 0.394210 0.948470 -0.583275
O39   O     O_R   0.948480 0.605790 0.948470 -0.583186
O40   O     O_R   0.051520 0.394210 0.051530 -0.583275
O41   O     O_R   0.551510 0.000000 0.157320 -0.581914
O42   O     O_R   0.448490 0.000000 0.842680 -0.581913
O43   O     O_R   0.051510 0.500000 0.157320 -0.581914
O44   O     O_R   0.948490 0.500000 0.842680 -0.581918
O45   O     O_R   0.448450 1.000000 0.054250 -0.588289
O46   O     O_R   0.551550 0.000000 0.945750 -0.588290
O47   O     O_R   0.948450 0.500000 0.054250 -0.588298
O48   O     O_R   0.051550 0.500000 0.945750 -0.588293
C57   C     C_3   0.684319 0.963790 0.806871 -0.387525
C58   C     C_3   0.726331 0.949560 0.913755 -0.360576
C59   C     C_3   0.690591 0.920497 0.943329 -0.819084
H9    H     H_    0.655312 0.960290 0.925155 0.263411
H10   H     H_    0.668509 0.868006 0.907403 0.253196
H11   H     H_    0.721814 0.911356 0.020802 0.241906
H12   H     H_    0.761579 0.909022 0.933545 0.234189
H13   H     H_    0.748866 0.001002 0.952776 0.217696
H14   H     H_    0.650642 0.005888 0.789643 0.187161
H15   H     H_    0.659485 0.912503 0.770353 0.213318
C60   C     C_3   0.315681 0.963752 0.193136 -0.387517
C61   C     C_3   0.273668 0.949496 0.086258 -0.360567
C62   C     C_3   0.309408 0.920413 0.056693 -0.819098
H16   H     H_    0.344683 0.960203 0.074846 0.263408
H17   H     H_    0.331495 0.867930 0.092642 0.253196
H18   H     H_    0.278185 0.911251 0.979225 0.241907
H19   H     H_    0.238422 0.908962 0.066484 0.234188
H20   H     H_    0.251131 0.000931 0.047217 0.217695
H21   H     H_    0.349355 0.005847 0.210348 0.187154
H22   H     H_    0.340517 0.912470 0.229672 0.213329
C63   C     C_3   0.184319 0.463910 0.806898 -0.387573
C64   C     C_3   0.226333 0.449724 0.913791 -0.360575
C65   C     C_3   0.190593 0.420720 0.943392 -0.819045
H23   H     H_    0.155319 0.460532 0.925194 0.263414
H24   H     H_    0.168505 0.368221 0.907505 0.253200
H25   H     H_    0.221816 0.411613 0.020871 0.241896
H26   H     H_    0.261576 0.409168 0.933607 0.234192
H27   H     H_    0.248875 0.501176 0.952777 0.217690
H28   H     H_    0.150650 0.506028 0.789644 0.187178
H29   H     H_    0.159476 0.412618 0.770416 0.213289
C66   C     C_3   0.815678 0.463997 0.193080 -0.387618
C67   C     C_3   0.773660 0.449837 0.086180 -0.360551
C68   C     C_3   0.809400 0.420878 0.056557 -0.819024
H30   H     H_    0.844664 0.460710 0.074761 0.263414
H31   H     H_    0.831500 0.368379 0.092423 0.253202
H32   H     H_    0.778173 0.411787 0.979074 0.241888
H33   H     H_    0.738426 0.409263 0.066354 0.234191
H34   H     H_    0.751107 0.501291 0.047213 0.217686
H35   H     H_    0.849338 0.506133 0.210344 0.187194
H36   H     H_    0.840530 0.412706 0.229539 0.213267
C69   C     C_3   0.711100 0.036415 0.633044 -0.442727
C70   C     C_3   0.666235 0.072445 0.535361 -0.330041
C71   C     C_3   0.698415 0.098659 0.498505 -0.841080
H37   H     H_    0.733882 0.139262 0.547627 0.255017
H38   H     H_    0.719698 0.052086 0.490725 0.256540
H39   H     H_    0.665002 0.124610 0.428349 0.248621
H40   H     H_    0.630677 0.032787 0.483893 0.213573
H41   H     H_    0.644484 0.120219 0.540088 0.242762
H42   H     H_    0.745239 0.078304 0.681990 0.225328
H43   H     H_    0.733615 0.992048 0.624722 0.207817
C72   C     C_3   0.288897 0.036430 0.366941 -0.442728
C73   C     C_3   0.333759 0.072478 0.464613 -0.330021
C74   C     C_3   0.301577 0.098699 0.501463 -0.841094
H44   H     H_    0.266101 0.139288 0.452325 0.255020
H45   H     H_    0.280304 0.052126 0.509264 0.256539
H46   H     H_    0.334986 0.124668 0.571608 0.248619
H47   H     H_    0.369323 0.032830 0.516093 0.213580
H48   H     H_    0.355503 0.120251 0.459868 0.242760
H49   H     H_    0.254755 0.078312 0.317982 0.225325
H50   H     H_    0.266386 0.992068 0.375276 0.207818
C75   C     C_3   0.211091 0.536353 0.632992 -0.442742
C76   C     C_3   0.166216 0.572336 0.535279 -0.330070
C77   C     C_3   0.198387 0.598505 0.498389 -0.841030
H51   H     H_    0.233846 0.639130 0.547469 0.255010
H52   H     H_    0.219677 0.551916 0.490652 0.256533
H53   H     H_    0.164966 0.624418 0.428208 0.248624
H54   H     H_    0.130663 0.532659 0.483849 0.213555
H55   H     H_    0.144460 0.620124 0.539969 0.242752
H56   H     H_    0.245230 0.578256 0.681898 0.225336
H57   H     H_    0.233601 0.491961 0.624700 0.207814
C78   C     C_3   0.788918 0.536307 0.367049 -0.442741
C79   C     C_3   0.833802 0.572242 0.464794 -0.330100
C80   C     C_3   0.801640 0.598376 0.501712 -0.840989
H58   H     H_    0.766193 0.639026 0.452675 0.255005
H59   H     H_    0.780336 0.551777 0.509404 0.256528
H60   H     H_    0.835070 0.624248 0.571920 0.248627
H61   H     H_    0.869346 0.532542 0.516188 0.213537
H62   H     H_    0.855570 0.620039 0.460147 0.242747
H63   H     H_    0.754784 0.578228 0.318181 0.225338
H64   H     H_    0.766402 0.491899 0.375306 0.207816

loop_
_geom_bond_atom_site_label_1
_geom_bond_atom_site_label_2
_ccdc_geom_bond_type
C57   H15   S    
C9    O35   A    
Cu3   Cu4   S    
C70   H41   S    
C69   C70   S    
C14   O46   A    
C53   O19   A    
C1    O1    A    
Cu1   O3    S    
C10   O34   A    
C65   H23   S    
C56   O22   A    
C75   H57   S    
C20   C56   S    
Cu11  O48   S    
Cu3   O5    S    
C63   C64   S    
Cu1   Cu2   S    
Cu5   O20   S    
C60   C61   S    
C71   H38   S    
Cu6   O29   S    
C5    O29   A    
C2    C46   S    
C73   H48   S    
C62   H17   S    
C12   C23   S    
C35   H7    S    
C17   C23   T    
C15   O47   A    
C18   C24   T    
C32   C36   D    
C67   C68   S    
C65   H24   S    
Cu3   O7    S    
C38   C42   D    
C42   C72   S    
C16   O44   A    
Cu3   O13   S    
Cu5   O17   S    
C9    C22   S    
C78   H63   S    
C43   C75   S    
C57   H14   S    
C29   C33   D    
C11   C24   S    
C30   C38   S    
C8    C36   S    
C76   H54   S    
C80   H59   S    
C77   H53   S    
C61   H20   S    
C2    O3    A    
C36   H8    S    
Cu4   O6    S    
C68   H30   S    
C15   O43   A    
C26   O11   A    
C74   H45   S    
C32   H4    S    
C41   C69   S    
C3    O5    A    
C40   C66   S    
C10   O36   A    
C15   C51   S    
Cu10  O35   S    
C11   O39   A    
C29   H1    S    
Cu2   O4    S    
C63   H28   S    
Cu8   O22   S    
C76   C77   S    
C67   H34   S    
C70   H40   S    
C68   H31   S    
C7    O27   A    
Cu6   O19   S    
C37   C41   D    
C39   C63   S    
Cu5   Cu6   S    
C14   C50   S    
C8    O32   A    
Cu12  O47   S    
C30   H2    S    
C71   H39   S    
C37   C57   S    
Cu8   O23   S    
C10   C21   S    
C9    O33   A    
C73   H47   S    
C62   H18   S    
C5    O25   A    
C54   O18   A    
C30   C34   D    
C53   O17   A    
Cu11  Cu12  S    
Cu1   O1    S    
C65   H25   S    
Cu7   O27   S    
C25   C41   S    
C71   H37   S    
Cu2   O2    S    
C61   C62   S    
C47   C51   T    
C78   H64   S    
C69   H42   S    
C14   O42   A    
C69   H43   S    
C38   C60   S    
C28   C44   S    
C25   O12   A    
C6    C34   S    
C5    C33   S    
C64   H26   S    
C80   H60   S    
Cu5   O25   S    
Cu11  O40   S    
C59   H10   S    
Cu9   O36   S    
Cu7   O24   S    
Cu2   O10   S    
C27   C43   S    
C13   O45   A    
Cu7   O32   S    
C13   O41   A    
C72   C73   S    
C48   C52   T    
C26   O10   A    
C74   H46   S    
C55   O21   A    
C25   O9    A    
C45   C49   T    
C6    O30   A    
Cu10  O45   S    
C27   O16   A    
Cu3   O15   S    
Cu9   O46   S    
Cu10  O34   S    
Cu5   O30   S    
C8    O28   A    
Cu9   O33   S    
C34   H6    S    
C12   O38   A    
C64   H27   S    
C63   H29   S    
C33   H5    S    
C73   C74   S    
C20   C22   T    
C67   H33   S    
Cu9   Cu10  S    
C68   H32   S    
Cu6   O18   S    
C70   C71   S    
C29   C37   S    
C13   C49   S    
C56   O24   A    
C79   H62   S    
C59   H9    S    
C17   C53   S    
C66   C67   S    
C32   C40   S    
C2    O2    A    
C26   C42   S    
Cu8   O31   S    
C72   H49   S    
C64   C65   S    
C4    C48   S    
C19   C55   S    
Cu8   O28   S    
C60   H22   S    
C44   C78   S    
C19   C21   T    
C7    C35   S    
C16   C52   S    
C75   H56   S    
C79   C80   S    
Cu2   O12   S    
C39   C43   D    
Cu4   O14   S    
C66   H36   S    
C78   C79   S    
C62   H16   S    
C46   C50   T    
C66   H35   S    
Cu11  O37   S    
C59   H11   S    
C77   H51   S    
Cu7   O21   S    
Cu12  O44   S    
Cu4   O8    S    
C1    C45   S    
C75   C76   S    
C57   C58   S    
C4    O7    A    
C58   H12   S    
C58   C59   S    
C31   C35   D    
C3    C47   S    
C60   H21   S    
C61   H19   S    
Cu1   O9    S    
C27   O13   A    
C28   O15   A    
C7    O31   A    
C6    O26   A    
C76   H55   S    
C80   H58   S    
C11   O37   A    
C77   H52   S    
C58   H13   S    
C18   C54   S    
Cu12  O39   S    
Cu7   Cu8   S    
Cu1   O11   S    
C40   C44   D    
C4    O6    A    
C74   H44   S    
Cu10  O42   S    
C55   O23   A    
C3    O8    A    
C31   C39   S    
C1    O4    A    
Cu9   O41   S    
C72   H50   S    
C28   O14   A    
Cu6   O26   S    
C79   H61   S    
C16   O48   A    
Cu4   O16   S    
Cu11  O43   S    
C54   O20   A    
Cu12  O38   S    
C31   H3    S    
C12   O40   A    
