data_mof_unit_18861.cif
_audit_creation_date              2012-12-10T17:36:18-0500
_audit_creation_method            fapswitch 2.2
_symmetry_space_group_name_H-M    P1
_symmetry_Int_Tables_number       1
_space_group_crystal_system       triclinic
_cell_length_a                    12.298791
_cell_length_b                    13.024902
_cell_length_c                    15.859421
_cell_angle_alpha                 79.100806
_cell_angle_beta                  100.584819
_cell_angle_gamma                 116.539466
_cell_volume                      2217.55020992

loop_
_atom_site_label
_atom_site_type_symbol
_atom_type_description
_atom_site_fract_x
_atom_site_fract_y
_atom_site_fract_z
_atom_type_partial_charge
C1    C     C_R   0.855374 0.286179 0.501289 0.845395
C2    C     C_3   0.077495 0.434396 0.068379 -0.356577
C3    C     C_3   0.996846 0.493611 0.083776 -0.239666
C4    C     C_3   0.057901 0.621501 0.040401 0.409779
C5    C     C_3   0.050467 0.625711 0.940212 0.421844
C6    C     C_1   0.000196 0.496048 0.176233 0.177695
C7    C     C_1   0.996691 0.498823 0.824224 0.284785
C8    C     C_1   0.997287 0.499286 0.748741 -0.090529
C9    C     C_R   0.265661 0.027198 0.392480 0.191465
C10   C     C_R   0.227825 0.838205 0.473884 -0.102886
C11   C     C_R   0.818344 0.074462 0.508158 0.149128
C12   C     C_R   0.999013 0.499755 0.659409 0.804566
C13   C     C_R   0.733048 0.957038 0.507415 0.241784
C14   C     C_R   0.608127 0.928467 0.495846 -0.171733
C15   C     C_R   0.564176 0.013764 0.477162 -0.024327
C16   C     C_R   0.648168 0.129215 0.457217 -0.079925
C17   C     C_R   0.436966 0.984385 0.466819 0.053080
C18   C     C_R   0.393221 0.062145 0.413932 0.018187
C19   C     C_R   0.478290 0.170910 0.381033 -0.270388
C20   C     C_R   0.603417 0.204188 0.401889 0.602284
C21   C     C_R   0.352032 0.879189 0.506790 0.120621
C22   C     C_R   0.185062 0.913516 0.419209 -0.198325
C23   C     C_R   0.145400 0.714376 0.489306 0.808147
C24   C     C_R   0.774273 0.162436 0.488084 -0.144574
C25   C     C_R   0.360684 0.351609 0.651101 -0.051223
C26   C     C_R   0.741345 0.611895 0.368644 0.758164
C27   C     C_R   0.626097 0.600811 0.327915 -0.163013
C28   C     C_R   0.525162 0.544275 0.374859 0.640969
C29   C     C_R   0.542094 0.514225 0.464903 -0.156344
C30   C     C_R   0.660980 0.525615 0.502416 -0.031666
C31   C     C_R   0.445690 0.470632 0.519190 -0.200920
C32   C     C_R   0.462448 0.414278 0.603057 -0.193889
C33   C     C_R   0.582940 0.434529 0.639521 0.638889
C34   C     C_R   0.000884 0.499870 0.340643 0.845259
C35   C     C_R   0.681201 0.509647 0.593081 0.153862
C36   C     C_R   0.338090 0.489102 0.497416 0.741713
C37   C     C_R   0.252374 0.364792 0.621409 0.677971
C38   C     C_3   0.079165 0.439330 0.969232 1.104651
C39   C     C_3   0.863748 0.425899 0.942727 0.936736
C40   C     C_3   0.861138 0.436622 0.039015 0.534914
C41   C     C_1   0.001584 0.498002 0.251595 -0.081710
C42   C     C_3   0.996754 0.498306 0.916681 -0.342196
Cu1   Cu    Cu3+1 0.098280 0.475420 0.519630 1.062939
Cu2   Cu    Cu3+1 0.901720 0.524580 0.480370 1.045078
H1    H     H_    0.172769 0.488245 0.095475 0.227730
H2    H     H_    0.088474 0.883158 0.396410 0.193896
H3    H     H_    0.449291 0.230805 0.337264 0.196037
H4    H     H_    0.544732 0.838458 0.495141 0.179317
H5    H     H_    0.156015 0.661030 0.067178 0.157304
N1    N     N_R   0.246300 0.438200 0.549400 -0.311526
N2    N     N_R   0.754300 0.561180 0.451130 -0.242252
O1    O     O_R   0.972520 0.318130 0.524690 -0.564316
O2    O     O_R   0.806530 0.359650 0.491530 -0.530689
O3    O     O_R   0.083030 0.479240 0.637150 -0.502287
O4    O     O_R   0.917040 0.520750 0.603990 -0.597385
O5    O     O_R   0.193470 0.640350 0.508470 -0.539836
O6    O     O_R   0.027480 0.681870 0.475310 -0.571789
O7    O     O_R   0.082960 0.479250 0.396010 -0.546082
O8    O     O_R   0.916970 0.520760 0.362850 -0.475314
C43   C     C_3   0.049658 0.312806 0.118010 -0.674663
H6    H     H_    0.130587 0.294434 0.122202 0.265085
H7    H     H_    0.031135 0.306812 0.185051 0.215464
H8    H     H_    0.972269 0.243619 0.084956 0.280112
F1    F     F_    0.198757 0.501776 0.949524 -0.580335
F2    F     F_    0.007240 0.688193 0.061909 -0.581246
C44   C     C_3   0.213842 0.106893 0.338025 -0.825385
H9    H     H_    0.245236 0.131197 0.272811 0.251527
H10   H     H_    0.112216 0.065515 0.329778 0.234509
H11   H     H_    0.244179 0.185966 0.369599 0.237196
C45   C     C_3   0.387963 0.821899 0.593068 -0.781461
H12   H     H_    0.316677 0.795249 0.636961 0.231109
H13   H     H_    0.398679 0.744253 0.585062 0.246450
H14   H     H_    0.474181 0.882670 0.626384 0.243350
C46   C     C_3   0.954171 0.104714 0.526924 -0.771231
H15   H     H_    0.977267 0.030793 0.531879 0.219670
H16   H     H_    0.003534 0.167801 0.473830 0.228700
H17   H     H_    0.990159 0.140041 0.589701 0.288440
C47   C     C_3   0.771831 0.859864 0.520451 -0.887230
H18   H     H_    0.825440 0.858654 0.584761 0.241286
H19   H     H_    0.692235 0.774094 0.517620 0.228481
H20   H     H_    0.827673 0.871313 0.468823 0.241734
F3    F     F_    0.039976 0.329853 0.945477 -0.582548
F4    F     F_    0.678854 0.302027 0.356568 -0.664562
F5    F     F_    0.155458 0.310607 0.667982 -0.634918
F6    F     F_    0.608352 0.406295 0.725376 -0.609846
C48   C     C_3   0.365347 0.272490 0.733290 -0.535462
H21   H     H_    0.415584 0.324177 0.787696 0.289827
H22   H     H_    0.272557 0.212085 0.750996 0.238845
H23   H     H_    0.410545 0.218563 0.724732 0.233084
F7    F     F_    0.331209 0.570033 0.431772 -0.597394
F8    F     F_    0.840522 0.671860 0.324728 -0.637273
F9    F     F_    0.411705 0.513532 0.330813 -0.615510
C49   C     C_3   0.608330 0.644051 0.233795 -0.579005
H24   H     H_    0.695346 0.686668 0.204057 0.272040
H25   H     H_    0.544266 0.570515 0.197690 0.260217
H26   H     H_    0.569231 0.707720 0.226765 0.233689
C50   C     C_3   0.776438 0.609366 0.639209 -0.726565
H27   H     H_    0.848133 0.670773 0.597736 0.227888
H28   H     H_    0.731531 0.658224 0.657272 0.212507
H29   H     H_    0.818713 0.577748 0.700032 0.268041
F10   F     F_    0.782772 0.463438 0.888937 -0.581763
F11   F     F_    0.824261 0.311169 0.930869 -0.604398
C51   C     C_3   0.777049 0.320652 0.087087 -0.604947
H30   H     H_    0.774992 0.330138 0.154791 0.223590
H31   H     H_    0.681957 0.293093 0.054669 0.268310
H32   H     H_    0.802982 0.249855 0.087571 0.204239
F12   F     F_    0.806823 0.509981 0.039149 -0.558958
F13   F     F_    0.168490 0.686343 0.916879 -0.601072
C52   C     C_3   0.978926 0.694785 0.890322 -0.503645
H33   H     H_    0.969132 0.692451 0.819673 0.173171
H34   H     H_    0.887032 0.662583 0.911324 0.287364
H35   H     H_    0.029913 0.786905 0.901814 0.250670

loop_
_geom_bond_atom_site_label_1
_geom_bond_atom_site_label_2
_ccdc_geom_bond_type
C44   H10   S    
C30   N2    A    
C49   H24   S    
C19   C20   A    
C47   H20   S    
C5    C42   S    
C3    C6    S    
C50   H27   S    
C7    C8    T    
C10   C22   A    
C26   C27   A    
C46   H16   S    
C30   C35   A    
C43   H8    S    
C28   C29   A    
C38   C42   S    
C52   H34   S    
C4    F2    S    
C47   H19   S    
C9    C22   A    
C44   H11   S    
Cu2   O8    S    
C15   C16   A    
C11   C46   S    
C11   C24   A    
C43   H7    S    
C18   C19   A    
C7    C42   S    
C1    O2    A    
C9    C44   S    
C33   F6    S    
Cu1   O7    S    
C25   C37   A    
Cu2   O2    S    
C6    C41   T    
C37   F5    S    
C45   H12   S    
C31   C36   A    
C16   C20   A    
C25   C32   A    
C44   H9    S    
C16   C24   A    
C13   C14   A    
C38   F3    S    
C34   C41   S    
C50   H28   S    
C39   F10   S    
C39   C42   S    
C38   F1    S    
C10   C21   A    
C46   H15   S    
C48   H22   S    
C23   O5    A    
C51   H31   S    
C52   H35   S    
C39   C40   S    
C47   H18   S    
C14   H4    S    
C26   F8    S    
C46   H17   S    
C17   C21   A    
C43   H6    S    
Cu1   Cu2   S    
C29   C30   A    
C2    C38   S    
Cu1   O3    S    
C31   C32   A    
Cu2   O6    S    
C8    C12   S    
C45   H14   S    
C17   C18   A    
C28   F9    S    
C40   F12   S    
C23   O6    A    
Cu2   N2    S    
C22   H2    S    
C3    C40   S    
C49   H26   S    
C34   O8    A    
C27   C49   S    
C3    C4    S    
C51   H30   S    
C50   H29   S    
C36   N1    A    
C39   F11   S    
Cu1   O5    S    
C36   F7    S    
C15   C17   A    
C13   C47   S    
C48   H21   S    
C4    C5    S    
C48   H23   S    
C20   F4    S    
Cu1   N1    S    
C10   C23   S    
C4    H5    S    
C21   C45   S    
C32   C33   A    
C2    C3    S    
C29   C31   A    
C26   N2    A    
C40   C51   S    
C37   N1    A    
C11   C13   A    
Cu2   O4    S    
C5    C52   S    
C25   C48   S    
C33   C35   A    
C51   H32   S    
C2    C43   S    
Cu1   O1    S    
C1    O1    A    
C12   O4    A    
C2    H1    S    
C9    C18   A    
C1    C24   S    
C49   H25   S    
C19   H3    S    
C52   H33   S    
C27   C28   A    
C34   O7    A    
C14   C15   A    
C45   H13   S    
C35   C50   S    
C12   O3    A    
C5    F13   S    
