data_mof_unit_10248.cif
_audit_creation_date              2012-12-11T14:40:19-0500
_audit_creation_method            fapswitch 2.2
_symmetry_space_group_name_H-M    P1
_symmetry_Int_Tables_number       1
_space_group_crystal_system       triclinic
_cell_length_a                    19.581697
_cell_length_b                    10.969253
_cell_length_c                    19.465177
_cell_angle_alpha                 90.107991
_cell_angle_beta                  97.838878
_cell_angle_gamma                 90.067842
_cell_volume                      4141.97211501

loop_
_atom_site_label
_atom_site_type_symbol
_atom_type_description
_atom_site_fract_x
_atom_site_fract_y
_atom_site_fract_z
_atom_type_partial_charge
C1    C     C_R   0.725667 0.952713 0.360673 0.558414
C2    C     C_3   0.269502 0.337118 0.559679 -0.022231
C3    C     C_3   0.231894 0.842613 0.440775 0.001384
C4    C     C_3   0.768170 0.845086 0.560098 -0.021451
C5    C     C_3   0.706237 0.485048 0.472001 -0.060876
C6    C     C_3   0.245301 0.465155 0.536034 -0.049263
C7    C     C_3   0.203825 0.960176 0.469844 -0.063821
C8    C     C_3   0.750288 0.976539 0.537073 -0.056346
C9    C     C_3   0.775355 0.509532 0.519373 -0.141463
C10   C     C_3   0.192282 0.405502 0.480101 -0.192240
C11   C     C_3   0.275497 0.979120 0.513475 -0.168321
C12   C     C_R   0.272437 0.946759 0.641771 0.553316
C13   C     C_3   0.693023 0.924318 0.482330 -0.192252
C14   C     C_3   0.813055 0.411801 0.481718 -0.104063
C15   C     C_3   0.216217 0.276554 0.504371 -0.138289
C16   C     C_3   0.303552 0.862122 0.483526 -0.079913
C17   C     C_3   0.710788 0.792402 0.505913 -0.134197
C18   C     C_3   0.792537 0.315863 0.532153 0.224951
C19   C     C_3   0.270841 0.279881 0.454459 0.176557
C20   C     C_3   0.278461 0.788050 0.541736 0.230056
C21   C     C_3   0.764103 0.785773 0.454781 0.178031
C22   C     C_3   0.755928 0.411773 0.570156 0.036194
C23   C     C_R   0.226257 0.450275 0.360129 0.554267
C24   C     C_3   0.246990 0.405987 0.429869 0.049612
C25   C     C_3   0.251530 0.903061 0.572112 0.036751
C26   C     C_3   0.745963 0.913860 0.430776 0.050667
C27   C     C_3   0.528574 0.271476 0.977054 -0.112489
C28   C     C_3   0.470612 0.270302 0.023356 -0.112683
C29   C     C_3   0.028576 0.771474 0.977054 -0.112432
C30   C     C_3   0.970614 0.770304 0.023356 -0.112803
C31   C     C_3   0.567557 0.171075 0.021688 -0.107772
C32   C     C_3   0.432440 0.169151 0.978286 -0.107451
C33   C     C_3   0.067557 0.671070 0.021689 -0.107717
C34   C     C_R   0.772636 0.446651 0.641673 0.549804
C35   C     C_3   0.932440 0.669154 0.978286 -0.107523
C36   C     C_3   0.509124 0.170285 0.067255 0.053931
C37   C     C_3   0.490874 0.170719 0.932727 0.053439
C38   C     C_3   0.009124 0.670285 0.067255 0.053442
C39   C     C_3   0.990874 0.670719 0.932727 0.053529
C40   C     C_R   0.535813 0.180108 0.338304 0.544954
C41   C     C_R   0.464980 0.179893 0.662272 0.527764
C42   C     C_R   0.035844 0.680121 0.338326 0.535768
C43   C     C_R   0.964986 0.679915 0.662277 0.526849
C44   C     C_3   0.471533 0.068813 0.023330 -0.120251
C45   C     C_3   0.724580 0.287058 0.485314 -0.058613
C46   C     C_3   0.529277 0.069986 0.976215 -0.121099
C47   C     C_3   0.971531 0.568814 0.023330 -0.120448
C48   C     C_3   0.029275 0.569984 0.976216 -0.120859
C49   C     C_1   0.762963 0.425595 0.904199 -0.004054
C50   C     C_1   0.236982 0.425288 0.095801 -0.003647
C51   C     C_1   0.262958 0.925583 0.904195 -0.003964
C52   C     C_1   0.736984 0.925279 0.095803 -0.003848
C53   C     C_1   0.747489 0.407825 0.034601 -0.048768
C54   C     C_1   0.252588 0.407964 0.965434 -0.048910
C55   C     C_1   0.247485 0.907811 0.034598 -0.048997
C56   C     C_3   0.325246 0.336073 0.510674 -0.084800
C57   C     C_1   0.752591 0.907953 0.965437 -0.048956
C58   C     C_1   0.754359 0.415399 0.963839 -0.047860
C59   C     C_1   0.245635 0.415242 0.036169 -0.047838
C60   C     C_1   0.254354 0.915384 0.963835 -0.047572
C61   C     C_1   0.745638 0.915231 0.036172 -0.047915
C62   C     C_1   0.742541 0.394504 0.094948 -0.004920
C63   C     C_1   0.257559 0.394812 0.905076 -0.006758
C64   C     C_1   0.242538 0.894495 0.094946 -0.006752
C65   C     C_1   0.757561 0.894803 0.905079 -0.007050
C66   C     C_R   0.739179 0.361735 0.362531 0.564428
C67   C     C_3   0.207319 0.764554 0.498701 -0.092166
C68   C     C_R   0.276065 0.306948 0.632988 0.555003
C69   C     C_R   0.224606 0.809687 0.367560 0.575431
C70   C     C_R   0.775413 0.809747 0.632496 0.549327
C71   C     C_R   0.721908 0.952652 0.163737 0.544604
C72   C     C_R   0.278099 0.952859 0.836282 0.543989
C73   C     C_R   0.221906 0.452656 0.163735 0.546825
C74   C     C_R   0.778101 0.452864 0.836285 0.543391
C75   C     C_R   0.529756 0.178543 0.141034 0.543213
C76   C     C_R   0.470223 0.178763 0.858965 0.541099
C77   C     C_R   0.029756 0.678543 0.141034 0.543689
C78   C     C_3   0.822256 0.834263 0.509546 -0.091376
C79   C     C_R   0.970223 0.678762 0.858965 0.541103
C80   C     C_R   0.735843 0.360077 0.164307 0.545048
C81   C     C_R   0.264157 0.360349 0.835668 0.552516
C82   C     C_R   0.235843 0.860077 0.164309 0.555190
C83   C     C_R   0.764158 0.860346 0.835670 0.551586
C84   C     C_1   0.487349 0.171202 0.595619 -0.008379
C85   C     C_1   0.515491 0.172073 0.405875 0.021749
C86   C     C_1   0.987459 0.671348 0.595669 -0.010738
C87   C     C_1   0.015638 0.672169 0.405946 0.011049
C88   C     C_1   0.506049 0.167971 0.465566 -0.006869
C89   C     C_3   0.744398 0.387458 0.435601 0.014936
C90   C     C_1   0.497908 0.167351 0.536245 -0.030545
C91   C     C_1   0.006271 0.668198 0.465659 -0.019237
C92   C     C_1   0.998125 0.667630 0.536329 -0.034225
C93   C     C_3   0.688879 0.387090 0.523094 0.189878
C94   C     C_3   0.299336 0.462994 0.485760 0.256694
C95   C     C_3   0.181514 0.883479 0.528903 0.199784
C96   C     C_3   0.802325 0.964071 0.485033 0.256550
Cr1   Cr    Cr6+3 0.765830 0.160660 0.268180 1.051285
Cr2   Cr    Cr6+3 0.384070 0.324050 0.751550 1.052111
Cr3   Cr    Cr6+3 0.115930 0.824050 0.248450 1.032997
Cr4   Cr    Cr6+3 0.884070 0.824050 0.751550 1.051039
Cr5   Cr    Cr6+3 0.234170 0.160660 0.731820 1.044464
Cr6   Cr    Cr6+3 0.265830 0.660660 0.268180 1.043386
Cr7   Cr    Cr6+3 0.734170 0.660660 0.731820 1.041755
Cr8   Cr    Cr6+3 0.612110 0.009150 0.248770 1.029328
Cr9   Cr    Cr6+3 0.387890 0.009150 0.751230 1.030899
Cr10  Cr    Cr6+3 0.112110 0.509150 0.248770 1.024999
Cr11  Cr    Cr6+3 0.887890 0.509150 0.751230 1.031268
Cr12  Cr    Cr6+3 0.615930 0.324050 0.248450 1.035079
H1    H     H_    0.702855 0.196572 0.468783 0.114110
H2    H     H_    0.640184 0.962160 0.470017 0.132742
H3    H     H_    0.799525 0.596641 0.537928 0.134406
H4    H     H_    0.137797 0.434893 0.467020 0.137234
H5    H     H_    0.864080 0.422755 0.463618 0.143956
H6    H     H_    0.181672 0.200392 0.514317 0.151952
H7    H     H_    0.354503 0.852725 0.465070 0.163377
H8    H     H_    0.672657 0.722646 0.516679 0.147554
H9    H     H_    0.623520 0.171769 0.041552 0.119717
H10   H     H_    0.376479 0.168318 0.958417 0.119398
H11   H     H_    0.123520 0.671761 0.041553 0.119502
H12   H     H_    0.379761 0.308825 0.524030 0.129865
H13   H     H_    0.876479 0.668325 0.958417 0.119439
H14   H     H_    0.552688 0.353200 0.956823 0.131704
H15   H     H_    0.445836 0.351027 0.043941 0.131217
H16   H     H_    0.052692 0.853195 0.956823 0.131729
H17   H     H_    0.945839 0.851030 0.043941 0.131237
H18   H     H_    0.447603 0.987326 0.043998 0.126955
H19   H     H_    0.553866 0.989497 0.955194 0.126725
H20   H     H_    0.947600 0.487330 0.043998 0.126775
H21   H     H_    0.053863 0.489493 0.955195 0.126840
H22   H     H_    0.630132 0.306391 0.579714 0.318716
H23   H     H_    0.177340 0.678858 0.489980 0.093009
H24   H     H_    0.374718 0.526972 0.443402 0.328739
H25   H     H_    0.119667 0.837817 0.592696 0.324014
H26   H     H_    0.878667 0.014419 0.439616 0.328610
H27   H     H_    0.882212 0.268400 0.576637 0.348455
H28   H     H_    0.241440 0.174132 0.377433 0.333744
H29   H     H_    0.365861 0.733692 0.588848 0.353756
H30   H     H_    0.729538 0.687754 0.375690 0.328555
H31   H     H_    0.875161 0.797865 0.521585 0.126820
H32   H     H_    0.669001 0.550769 0.444829 0.139577
H33   H     H_    0.232922 0.536400 0.572757 0.181772
H34   H     H_    0.171554 0.028633 0.438636 0.144881
H35   H     H_    0.744660 0.053641 0.572829 0.171390
H36   H     H_    0.305454 0.064611 0.523181 0.155544
O1    O     O_R   0.783230 0.287800 0.346510 -0.492856
O2    O     O_R   0.454570 0.285140 0.836900 -0.513411
O3    O     O_R   0.045430 0.785140 0.163100 -0.513327
O4    O     O_R   0.954570 0.785140 0.836900 -0.513331
O5    O     O_R   0.677850 0.374730 0.185500 -0.495138
O6    O     O_R   0.322150 0.374730 0.814500 -0.488370
O7    O     O_R   0.177850 0.874730 0.185500 -0.489883
O8    O     O_R   0.822150 0.874730 0.814500 -0.488820
O9    O     O_3   0.664630 0.164620 0.255130 -0.267004
O10   O     O_3   0.335370 0.164620 0.744870 -0.291850
O11   O     O_3   0.164630 0.664620 0.255130 -0.286735
O12   O     O_R   0.216770 0.287800 0.653490 -0.503698
O13   O     O_3   0.835370 0.664620 0.744870 -0.289320
O14   O     O_R   0.760130 0.037060 0.338610 -0.486273
O15   O     O_R   0.239870 0.037060 0.661390 -0.507742
O16   O     O_R   0.260130 0.537060 0.338610 -0.500220
O17   O     O_R   0.739870 0.537060 0.661390 -0.507874
O18   O     O_R   0.666620 0.921370 0.332440 -0.526939
O19   O     O_R   0.333380 0.921370 0.667560 -0.505610
O20   O     O_R   0.166620 0.421370 0.332440 -0.523841
O21   O     O_R   0.833380 0.421370 0.667560 -0.504455
O22   O     O_R   0.557170 0.082420 0.312350 -0.502248
O23   O     O_R   0.283230 0.787800 0.346510 -0.492180
O24   O     O_R   0.442830 0.082420 0.687650 -0.501497
O25   O     O_R   0.057170 0.582420 0.312350 -0.502957
O26   O     O_R   0.942830 0.582420 0.687650 -0.501781
O27   O     O_R   0.548310 0.285980 0.316250 -0.500328
O28   O     O_R   0.451690 0.285980 0.683750 -0.503650
O29   O     O_R   0.048310 0.785980 0.316250 -0.507991
O30   O     O_R   0.951690 0.785980 0.683750 -0.501669
O31   O     O_R   0.680520 0.375500 0.327470 -0.504929
O32   O     O_R   0.319480 0.375500 0.672530 -0.472697
O33   O     O_R   0.180520 0.875500 0.327470 -0.500936
O34   O     O_R   0.716770 0.787800 0.653490 -0.505472
O35   O     O_R   0.819480 0.875500 0.672530 -0.477342
O36   O     O_R   0.780350 0.286970 0.193350 -0.509035
O37   O     O_R   0.219650 0.286970 0.806650 -0.503977
O38   O     O_R   0.280350 0.786970 0.193350 -0.504436
O39   O     O_R   0.719650 0.786970 0.806650 -0.503919
O40   O     O_R   0.757460 0.036290 0.196640 -0.498366
O41   O     O_R   0.242540 0.036290 0.803360 -0.497595
O42   O     O_R   0.257460 0.536290 0.196640 -0.498229
O43   O     O_R   0.742540 0.536290 0.803360 -0.496931
O44   O     O_R   0.663740 0.920540 0.179290 -0.506120
O45   O     O_R   0.554500 0.081650 0.170370 -0.499809
O46   O     O_R   0.336260 0.920540 0.820710 -0.501474
O47   O     O_R   0.163740 0.420540 0.179290 -0.504047
O48   O     O_R   0.836260 0.420540 0.820710 -0.502381
O49   O     O_3   0.624730 0.374730 0.546173 -0.681903
O50   O     O_3   0.342594 0.559967 0.473968 -0.652679
O51   O     O_3   0.118415 0.896829 0.554045 -0.675471
O52   O     O_3   0.849681 0.053257 0.471430 -0.622399
O53   O     O_3   0.836547 0.228384 0.566318 -0.636477
O54   O     O_3   0.284838 0.186665 0.409340 -0.705922
O55   O     O_3   0.317914 0.702347 0.582811 -0.654979
O56   O     O_R   0.445500 0.081650 0.829630 -0.499151
O57   O     O_3   0.773031 0.691640 0.408294 -0.717506
O58   O     O_R   0.054500 0.581650 0.170370 -0.498224
O59   O     O_R   0.945500 0.581650 0.829630 -0.498940
O60   O     O_R   0.545430 0.285140 0.163100 -0.514031

loop_
_geom_bond_atom_site_label_1
_geom_bond_atom_site_label_2
_ccdc_geom_bond_type
C19   C56   S    
C9    H3    S    
H24   O50   S    
C21   C26   S    
Cr11  O21   S    
C8    C13   S    
C53   C58   S    
C87   C91   T    
C14   C18   S    
C20   C67   S    
C8    C96   S    
C81   O37   A    
C71   O44   A    
C4    C8    S    
C34   O17   A    
C35   C47   S    
C78   H31   S    
Cr2   O10   S    
C73   O42   A    
C68   O32   A    
C28   H15   S    
C47   H20   S    
C14   C89   S    
Cr4   O8    S    
C56   C94   S    
C25   C95   S    
C44   H18   S    
Cr6   O23   S    
C30   C35   S    
C63   C81   S    
Cr7   O39   S    
C50   C59   T    
C80   O36   A    
C62   C80   S    
C1    O14   A    
C75   O45   A    
C27   C37   S    
Cr3   O33   S    
C3    C7    S    
C10   C15   S    
C31   C36   S    
Cr8   O18   S    
C43   O30   A    
C45   H1    S    
C70   O35   A    
C65   C83   S    
C20   C25   S    
C11   C25   S    
C81   O6    A    
Cr12  O31   S    
C29   C33   S    
C30   C38   S    
C4    C78   S    
C11   C16   S    
C31   H9    S    
C66   O1    A    
Cr8   O22   S    
C69   O33   A    
C15   C19   S    
Cr4   O13   S    
C27   H14   S    
Cr9   O56   S    
Cr12  O9    S    
H29   O55   S    
C78   C96   S    
C6    C94   S    
C31   C46   S    
Cr3   O11   S    
Cr11  O48   S    
C23   C24   S    
Cr9   O19   S    
C10   H4    S    
Cr1   O9    S    
Cr8   O9    S    
C34   O21   A    
C45   C89   S    
C11   H36   S    
C77   O3    A    
H28   O54   S    
C82   O7    A    
H25   O51   S    
Cr2   O28   S    
H22   O49   S    
H26   O52   S    
Cr9   O10   S    
C30   H17   S    
C76   O2    A    
C18   C22   S    
C55   C60   S    
C55   C64   T    
Cr8   O44   S    
C67   C95   S    
C56   H12   S    
Cr11  O59   S    
C2    C6    S    
C84   C90   T    
Cr10  O47   S    
Cr5   O41   S    
C71   O40   A    
C72   O46   A    
Cr11  O13   S    
C43   O26   A    
C44   C46   S    
C7    C11   S    
C66   C89   S    
C54   C59   S    
C26   C96   S    
C80   O5    A    
C22   C34   S    
C41   O28   A    
C67   H23   S    
C4    C70   S    
Cr7   O17   S    
C27   C31   S    
Cr6   O38   S    
C21   O57   S    
C46   H19   S    
C28   C32   S    
Cr7   O43   S    
C76   O56   A    
C50   C73   S    
Cr6   O16   S    
C91   C92   S    
C9    C22   S    
C70   O34   A    
Cr1   O36   S    
Cr2   O2    S    
Cr5   O12   S    
C10   C24   S    
C41   C84   S    
Cr3   O7    S    
C16   H7    S    
C17   C21   S    
C49   C58   T    
C39   C79   S    
C40   C85   S    
C21   C78   S    
C35   C39   S    
C9    C14   S    
C69   O23   A    
C20   O55   S    
C5    C9    S    
C13   H2    S    
C36   C75   S    
C24   C94   S    
Cr10  O58   S    
Cr2   O32   S    
C53   C62   T    
C47   C48   S    
Cr3   O29   S    
C35   H13   S    
C16   C20   S    
C42   O25   A    
C23   O16   A    
C29   C39   S    
C18   O53   S    
C32   C44   S    
C15   H6    S    
C83   O39   A    
Cr6   O42   S    
C32   C37   S    
C6    H33   S    
C2    C15   S    
C64   C82   S    
C38   C47   S    
C73   O47   A    
C74   O48   A    
C4    C17   S    
C13   C26   S    
C37   C76   S    
C88   C90   S    
C45   C93   S    
C33   H11   S    
Cr10  O20   S    
C5    H32   S    
Cr4   O30   S    
C1    C26   S    
C22   C93   S    
Cr1   O1    S    
C66   O31   A    
C36   C44   S    
C77   O58   A    
C51   C72   S    
C18   C45   S    
C32   H10   S    
C27   C28   S    
Cr5   O37   S    
Cr1   O40   S    
C83   O8    A    
Cr2   O6    S    
C85   C88   T    
Cr3   O3    S    
C19   O54   S    
C95   O51   S    
C3    C69   S    
C94   O50   S    
C43   C86   S    
C40   O22   A    
Cr9   O46   S    
C93   O49   S    
C57   C65   T    
C41   O24   A    
C68   O12   A    
C42   O29   A    
H27   O53   S    
C5    C93   S    
C75   O60   A    
C57   C61   S    
C79   O4    A    
C51   C60   T    
C38   C77   S    
C14   H5    S    
C7    C95   S    
C82   O38   A    
C2    C68   S    
C33   C38   S    
Cr9   O24   S    
C13   C17   S    
C12   C25   S    
C52   C61   T    
C79   O59   A    
Cr1   O14   S    
Cr7   O34   S    
C19   C24   S    
Cr12  O60   S    
C52   C71   S    
C86   C92   T    
C12   O19   A    
C23   O20   A    
C3    C67   S    
Cr5   O10   S    
Cr4   O4    S    
Cr8   O45   S    
Cr10  O25   S    
C8    H35   S    
C7    H34   S    
C12   O15   A    
C48   H21   S    
C72   O41   A    
C1    O18   A    
C6    C10   S    
C74   O43   A    
C29   C30   S    
Cr12  O5    S    
C29   H16   S    
C96   O52   S    
Cr5   O15   S    
Cr7   O13   S    
C28   C36   S    
Cr10  O11   S    
C54   C63   T    
Cr12  O27   S    
H30   O57   S    
C33   C48   S    
C49   C74   S    
C2    C56   S    
C42   C87   S    
C37   C46   S    
Cr4   O35   S    
Cr6   O11   S    
C40   O27   A    
C5    C89   S    
C3    C16   S    
C17   H8    S    
C39   C48   S    
Cr11  O26   S    
