data_mof_unit_55715.cif
_audit_creation_date              2012-12-10T17:33:01-0500
_audit_creation_method            fapswitch 2.2
_symmetry_space_group_name_H-M    P1
_symmetry_Int_Tables_number       1
_space_group_crystal_system       triclinic
_cell_length_a                    12.392531
_cell_length_b                    13.263301
_cell_length_c                    14.200725
_cell_angle_alpha                 93.687245
_cell_angle_beta                  107.309968
_cell_angle_gamma                 117.129118
_cell_volume                      1927.5167077

loop_
_atom_site_label
_atom_site_type_symbol
_atom_type_description
_atom_site_fract_x
_atom_site_fract_y
_atom_site_fract_z
_atom_type_partial_charge
C1    C     C_R   0.650435 0.714133 0.508018 0.768594
C2    C     C_R   0.849523 0.497400 0.916590 0.091767
C3    C     C_R   0.787902 0.493076 0.987176 0.154252
C4    C     C_R   0.960835 0.482822 0.943272 0.063057
C5    C     C_R   0.018391 0.479451 0.044681 0.091728
C6    C     C_R   0.950738 0.469869 0.111208 -0.161005
C7    C     C_R   0.838051 0.477373 0.083041 -0.280605
C8    C     C_R   0.012403 0.465249 0.871232 -0.251222
C9    C     C_R   0.116710 0.444755 0.898464 -0.166782
C10   C     C_R   0.180212 0.450137 0.999735 0.019542
C11   C     C_R   0.137259 0.477197 0.074731 -0.089467
C12   C     C_R   0.618020 0.516352 0.686769 0.783706
C13   C     C_R   0.285292 0.428205 0.026982 0.447492
C14   C     C_R   0.351238 0.439534 0.129993 -0.395412
C15   C     C_R   0.216993 0.505037 0.177638 0.358548
C16   C     C_R   0.144207 0.964405 0.367546 -0.202450
C17   C     C_R   0.251342 0.161807 0.466086 -0.048371
C18   C     C_R   0.727323 0.922528 0.570004 -0.221077
C19   C     C_R   0.817561 0.040563 0.588941 0.155123
C20   C     C_R   0.921238 0.073549 0.555258 -0.222742
C21   C     C_R   0.932717 0.989928 0.497971 0.055813
C22   C     C_R   0.830735 0.872442 0.467752 0.069283
C23   C     C_R   0.345957 0.285238 0.485936 0.797210
C24   C     C_R   0.040904 0.019697 0.467711 0.085276
C25   C     C_R   0.038995 0.935301 0.399390 0.170470
C26   C     C_R   0.930577 0.823915 0.361241 -0.244257
C27   C     C_R   0.827148 0.793345 0.393662 -0.191438
C28   C     C_R   0.151454 0.131072 0.503524 -0.258220
C29   C     C_R   0.249656 0.077578 0.400127 -0.204926
C30   C     C_R   0.734639 0.837650 0.512031 -0.142795
C31   C     C_R   0.252398 0.699476 0.646646 -0.295893
C32   C     C_R   0.654242 0.338521 0.366074 0.069492
C33   C     C_R   0.731324 0.302501 0.336442 -0.284987
C34   C     C_R   0.383017 0.485104 0.313138 0.850210
C35   C     C_R   0.866736 0.364148 0.385440 -0.181552
C36   C     C_R   0.927367 0.463563 0.465111 0.006876
C37   C     C_R   0.843646 0.496517 0.492800 0.244496
C38   C     C_R   0.066924 0.530946 0.518714 -0.065269
C39   C     C_R   0.117958 0.633172 0.594356 0.076814
C40   C     C_R   0.034778 0.666482 0.619812 0.036862
C41   C     C_R   0.900529 0.594250 0.571645 -0.217757
C42   C     C_R   0.159002 0.502280 0.500611 0.026990
C43   C     C_R   0.336433 0.662688 0.633512 0.319395
C44   C     C_R   0.679639 0.517270 0.792704 -0.061339
C45   C     C_R   0.316761 0.476550 0.205325 -0.204133
C46   C     C_R   0.673756 0.500357 0.959818 -0.181460
C47   C     C_R   0.618611 0.509870 0.862434 -0.212793
C48   C     C_R   0.796658 0.515153 0.821384 -0.259077
Cu1   Cu    Cu3+1 0.416420 0.526630 0.522910 0.928878
Cu2   Cu    Cu3+1 0.583580 0.473370 0.477090 0.899487
H1    H     H_    0.789147 0.469550 0.136323 0.150304
H2    H     H_    0.326708 0.100295 0.370456 0.143593
H3    H     H_    0.925452 0.760065 0.305832 0.146181
H4    H     H_    0.142638 0.900756 0.314578 0.134535
H5    H     H_    0.162156 0.196848 0.559849 0.146631
H6    H     H_    0.652602 0.897121 0.602490 0.144362
H7    H     H_    0.988583 0.165615 0.571725 0.124806
H8    H     H_    0.742953 0.707864 0.357257 0.175531
H9    H     H_    0.294743 0.779756 0.702033 0.148519
H10   H     H_    0.127207 0.428099 0.442083 0.138430
H11   H     H_    0.549489 0.289886 0.327288 0.119059
H12   H     H_    0.921577 0.332784 0.359160 0.136003
H13   H     H_    0.685809 0.226402 0.275059 0.141912
H14   H     H_    0.840925 0.615626 0.597758 0.212868
H15   H     H_    0.431762 0.422600 0.151404 0.172956
H16   H     H_    0.148485 0.426176 0.839522 0.183008
H17   H     H_    0.624953 0.495045 0.012766 0.153215
H18   H     H_    0.526192 0.507214 0.840867 0.169352
H19   H     H_    0.844962 0.527516 0.767894 0.146399
H20   H     H_    0.979188 0.449704 0.183869 0.199012
H21   H     H_    0.969581 0.459761 0.791701 0.143500
N1    N     N_R   0.290690 0.566960 0.557640 -0.200874
N2    N     N_R   0.709100 0.433710 0.442970 -0.195432
O1    O     O_R   0.545970 0.684450 0.528810 -0.601283
O2    O     O_R   0.687130 0.639470 0.490120 -0.603996
O3    O     O_R   0.519670 0.535100 0.660030 -0.592742
O4    O     O_R   0.660830 0.490120 0.621340 -0.603347
O5    O     O_R   0.312870 0.360530 0.509880 -0.585018
O6    O     O_R   0.454030 0.315550 0.471190 -0.594513
O7    O     O_R   0.339170 0.509880 0.378660 -0.524036
O8    O     O_R   0.480330 0.464900 0.339970 -0.600438
O9    O     O_3   0.325053 0.400608 0.952183 -0.598880
C49   C     C_3   0.325642 0.294449 0.954998 0.059930
H22   H     H_    0.243950 0.229746 0.974712 0.141356
H23   H     H_    0.420049 0.311149 0.010820 0.141587
C50   C     C_3   0.310675 0.240333 0.850901 -0.811764
H24   H     H_    0.388150 0.302006 0.826657 0.255428
H25   H     H_    0.318921 0.160645 0.854106 0.203115
H26   H     H_    0.214131 0.217225 0.794193 0.240165
C51   C     C_3   0.805731 0.131247 0.648297 -0.416799
C52   C     C_3   0.687260 0.140594 0.586538 -0.360893
C53   C     C_3   0.682275 0.240085 0.641675 -0.784080
H27   H     H_    0.684448 0.230372 0.719236 0.247186
H28   H     H_    0.766202 0.325052 0.646786 0.250781
H29   H     H_    0.590851 0.239200 0.598922 0.259981
H30   H     H_    0.692277 0.156534 0.511599 0.232656
H31   H     H_    0.596082 0.057644 0.573362 0.212783
H32   H     H_    0.796453 0.107492 0.720309 0.192154
H33   H     H_    0.895181 0.218012 0.669067 0.197351
C54   C     C_3   0.475317 0.731470 0.709978 -0.394348
C55   C     C_3   0.486300 0.700020 0.813798 -0.334605
C56   C     C_3   0.455092 0.767522 0.882748 -0.837458
H34   H     H_    0.507151 0.862163 0.885547 0.244463
H35   H     H_    0.348578 0.733966 0.856744 0.248929
H36   H     H_    0.486843 0.755307 0.960877 0.244646
H37   H     H_    0.419969 0.605365 0.802650 0.234322
H38   H     H_    0.588048 0.719645 0.853943 0.209147
H39   H     H_    0.544207 0.718318 0.685509 0.223473
H40   H     H_    0.511405 0.826513 0.718464 0.156426
O10   O     O_3   0.201636 0.565031 0.251497 -0.579602
C57   C     C_3   0.276996 0.685868 0.260797 0.095118
H41   H     H_    0.234676 0.710885 0.191805 0.138377
H42   H     H_    0.380364 0.712467 0.272824 0.127649
C58   C     C_3   0.276391 0.751699 0.352253 -0.771881
H43   H     H_    0.322806 0.731576 0.422630 0.263743
H44   H     H_    0.331829 0.846998 0.358799 0.183903
H45   H     H_    0.174608 0.725924 0.343859 0.242662
C59   C     C_3   0.090579 0.778627 0.699959 -0.405891
C60   C     C_3   0.991755 0.808708 0.719594 -0.357304
C61   C     C_3   0.059612 0.928934 0.789971 -0.853352
H46   H     H_    0.130595 0.934849 0.862752 0.251597
H47   H     H_    0.110728 0.996317 0.752412 0.258535
H48   H     H_    0.986006 0.945531 0.806063 0.244288
H49   H     H_    0.926840 0.809656 0.647106 0.234982
H50   H     H_    0.932438 0.743059 0.754607 0.210987
H51   H     H_    0.148991 0.772246 0.773389 0.194122
H52   H     H_    0.156286 0.852649 0.675123 0.210180

loop_
_geom_bond_atom_site_label_1
_geom_bond_atom_site_label_2
_ccdc_geom_bond_type
C55   H38   S    
C40   C59   S    
Cu2   O4    S    
C43   N1    A    
C17   C29   A    
C47   H18   S    
C19   C20   A    
C48   H19   S    
C4    C8    A    
Cu2   O6    S    
C58   H43   S    
C60   H49   S    
C26   C27   A    
C17   C23   S    
C31   C43   A    
C1    O1    A    
C36   C37   A    
C32   H11   S    
C38   C42   A    
C3    C7    A    
C5    C6    A    
C50   H25   S    
C16   C25   A    
Cu1   O5    S    
C56   H36   S    
C18   C19   A    
C31   H9    S    
O10   C57   S    
C53   H27   S    
C34   O7    A    
C52   H30   S    
C59   C60   S    
C11   C15   A    
C35   C36   A    
C8    C9    A    
Cu1   N1    S    
C18   C30   A    
C34   O8    A    
C57   C58   S    
C9    C10   A    
C44   C47   A    
C18   H6    S    
C54   H40   S    
C21   C22   A    
C15   O10   S    
C42   N1    A    
C28   H5    S    
C61   H47   S    
C14   C45   A    
C54   H39   S    
C1    O2    A    
C55   C56   S    
C43   C54   S    
Cu2   N2    S    
C42   H10   S    
C52   C53   S    
C50   H24   S    
C2    C48   A    
C16   C29   A    
C13   O9    S    
C50   H26   S    
C53   H29   S    
C52   H31   S    
C2    C4    A    
C49   H22   S    
C33   H13   S    
C12   O4    A    
C53   H28   S    
Cu1   O3    S    
C57   H42   S    
C34   C45   S    
C24   C25   A    
C56   H35   S    
C60   H50   S    
C40   C41   A    
C49   H23   S    
Cu1   Cu2   S    
C22   C27   A    
C12   O3    A    
C59   H52   S    
C15   C45   A    
C26   H3    S    
C51   H33   S    
C32   N2    A    
C61   H46   S    
C55   H37   S    
C6    H20   S    
C37   N2    A    
C46   C47   A    
C8    H21   S    
C22   C30   A    
C57   H41   S    
C17   C28   A    
C24   C28   A    
C4    C5    A    
C10   C13   A    
C58   H44   S    
C60   C61   S    
C61   H48   S    
C5    C11   A    
C6    C7    A    
C3    C46   A    
Cu1   O7    S    
C32   C33   A    
C36   C38   A    
C2    C3    A    
C25   C26   A    
C7    H1    S    
C46   H17   S    
C12   C44   S    
C19   C51   S    
Cu2   O2    S    
C9    H16   S    
C51   C52   S    
C38   C39   A    
C27   H8    S    
C1    C30   S    
C33   C35   A    
C14   H15   S    
C31   C39   A    
C35   H12   S    
C23   O5    A    
C37   C41   A    
C56   H34   S    
C16   H4    S    
C58   H45   S    
C10   C11   A    
C39   C40   A    
C49   C50   S    
C20   C21   A    
O9    C49   S    
C21   C24   A    
Cu1   O1    S    
C54   C55   S    
C59   H51   S    
C41   H14   S    
C23   O6    A    
C20   H7    S    
C13   C14   A    
C51   H32   S    
C44   C48   A    
Cu2   O8    S    
C29   H2    S    
