data_mof_unit_21299.cif
_audit_creation_date              2012-12-11T16:24:15-0500
_audit_creation_method            fapswitch 2.2
_symmetry_space_group_name_H-M    P1
_symmetry_Int_Tables_number       1
_space_group_crystal_system       triclinic
_cell_length_a                    14.742504
_cell_length_b                    14.753937
_cell_length_c                    33.278729
_cell_angle_alpha                 96.08606
_cell_angle_beta                  96.156448
_cell_angle_gamma                 61.227425
_cell_volume                      6295.88051761

loop_
_atom_site_label
_atom_site_type_symbol
_atom_type_description
_atom_site_fract_x
_atom_site_fract_y
_atom_site_fract_z
_atom_type_partial_charge
C1    C     C_R   0.390857 0.699996 0.446263 0.553086
C2    C     C_R   0.328312 0.346682 0.308994 0.040643
C3    C     C_R   0.411284 0.264574 0.328471 -0.104269
C4    C     C_R   0.431895 0.273914 0.370144 -0.119560
C5    C     C_R   0.392359 0.251822 0.166171 -0.107624
C6    C     C_R   0.383946 0.233772 0.124301 -0.122185
C7    C     C_R   0.208736 0.377337 0.121957 -0.119519
C8    C     C_R   0.217357 0.395087 0.163870 -0.096038
C9    C     C_R   0.307992 0.330330 0.186056 0.042256
C10   C     C_1   0.312190 0.338945 0.229361 -0.002955
C11   C     C_1   0.317614 0.343143 0.265704 -0.001515
C12   C     C_R   0.405835 0.386271 0.434011 0.543034
C13   C     C_R   0.290636 0.293979 0.101968 0.019842
C14   C     C_R   0.759109 0.371567 0.410801 -0.010674
C15   C     C_R   0.805635 0.425315 0.397271 -0.093461
C16   C     C_R   0.840967 0.403647 0.358347 0.168139
C17   C     C_R   0.828533 0.327856 0.332251 0.047884
C18   C     C_R   0.791534 0.267382 0.347358 -0.134613
C19   C     C_R   0.757139 0.288966 0.386305 -0.132374
C20   C     C_R   0.846654 0.306851 0.206881 0.335654
C21   C     C_R   0.841124 0.318839 0.288534 0.370146
C22   C     C_R   0.840264 0.387135 0.143629 -0.115064
C23   C     C_R   0.701008 0.409817 0.447588 0.549656
C24   C     C_R   0.867231 0.377149 0.103950 -0.126813
C25   C     C_R   0.918765 0.193983 0.100853 -0.131990
C26   C     C_R   0.892279 0.203873 0.140646 -0.123526
C27   C     C_R   0.857054 0.299658 0.162953 0.037699
C28   C     C_R   0.910950 0.279649 0.082852 0.025676
C29   C     C_R   0.369624 0.757843 0.410005 -0.011508
C30   C     C_R   0.270809 0.799741 0.389778 -0.089638
C31   C     C_R   0.255628 0.833398 0.350819 0.166590
C32   C     C_R   0.340580 0.824482 0.331583 0.044474
C33   C     C_R   0.436602 0.792677 0.353465 -0.143411
C34   C     C_R   0.392800 0.702785 0.560849 0.571425
C35   C     C_R   0.451118 0.759540 0.392402 -0.136641
C36   C     C_R   0.333333 0.840926 0.206679 0.347725
C37   C     C_R   0.334664 0.834920 0.287901 0.364153
C38   C     C_R   0.247190 0.843225 0.136711 0.276095
C39   C     C_R   0.234394 0.867138 0.096234 -0.108625
C40   C     C_R   0.375622 0.908485 0.106680 -0.147739
C41   C     C_R   0.391513 0.881425 0.146657 -0.164481
C42   C     C_R   0.325518 0.852229 0.162628 0.040566
C43   C     C_R   0.294010 0.905809 0.081697 -0.023713
C44   C     C_R   0.368322 0.367238 0.583722 0.019446
C45   C     C_R   0.406939 0.388655 0.548820 0.543966
C46   C     C_R   0.281169 0.446184 0.602502 -0.123390
C47   C     C_R   0.258017 0.433634 0.640399 -0.120928
C48   C     C_R   0.321730 0.341989 0.660047 0.029812
C49   C     C_R   0.402786 0.259597 0.639485 -0.109841
C50   C     C_R   0.425951 0.272155 0.601673 -0.123583
C51   C     C_R   0.308273 0.333973 0.784376 0.351366
C52   C     C_R   0.312018 0.336297 0.703190 0.340295
C53   C     C_R   0.218956 0.401339 0.849152 -0.107412
C54   C     C_R   0.210842 0.388133 0.889504 0.258603
C55   C     C_R   0.380514 0.235657 0.888822 -0.166285
C56   C     C_R   0.702032 0.413305 0.562473 0.547266
C57   C     C_R   0.388768 0.250559 0.849160 -0.114778
C58   C     C_R   0.305954 0.330215 0.828284 -0.012621
C59   C     C_R   0.289122 0.299949 0.908571 0.024224
C60   C     C_R   0.758436 0.378763 0.601970 -0.025939
C61   C     C_R   0.795291 0.439760 0.626218 -0.105958
C62   C     C_R   0.830023 0.418611 0.666723 0.279495
C63   C     C_R   0.824589 0.337828 0.683335 0.042925
C64   C     C_R   0.794797 0.272692 0.658669 -0.133404
C65   C     C_R   0.762583 0.292488 0.618151 -0.126275
C66   C     C_R   0.901960 0.209863 0.820131 0.292490
C67   C     C_R   0.369815 0.365951 0.392663 0.017279
C68   C     C_R   0.917590 0.199592 0.862122 0.121787
C69   C     C_R   0.868889 0.383811 0.873328 0.245951
C70   C     C_R   0.845241 0.393681 0.831263 -0.162611
C71   C     C_R   0.866693 0.306898 0.804949 -0.032953
C72   C     C_1   0.852475 0.317875 0.762073 0.037619
C73   C     C_1   0.841177 0.326389 0.726141 0.042650
C74   C     C_R   0.910114 0.284595 0.888903 -0.000579
C75   C     C_R   0.376317 0.756205 0.601571 -0.004244
C76   C     C_R   0.276340 0.826258 0.614594 0.186283
C77   C     C_R   0.263544 0.857071 0.656105 0.200313
C78   C     C_R   0.282084 0.445066 0.373196 -0.106956
C79   C     C_R   0.350376 0.818229 0.683981 0.017291
C80   C     C_R   0.449416 0.755136 0.670518 -0.143540
C81   C     C_R   0.462432 0.724728 0.629707 -0.166934
C82   C     C_R   0.382151 0.905122 0.830108 0.170928
C83   C     C_R   0.365564 0.929481 0.871248 -0.097817
C84   C     C_R   0.234970 0.872637 0.864125 -0.124769
C85   C     C_R   0.252180 0.847178 0.823049 -0.155667
C86   C     C_R   0.323420 0.866097 0.805749 0.035252
C87   C     C_1   0.331977 0.849992 0.762794 0.049952
C88   C     C_1   0.339442 0.836926 0.726803 0.060537
C89   C     C_R   0.261754 0.435520 0.331484 -0.081689
C90   C     C_R   0.289430 0.916827 0.888354 -0.013691
C91   C     C_R   0.963995 0.263932 0.045732 0.543178
C92   C     C_R   0.272601 0.259427 0.060080 0.539714
C93   C     C_R   0.258932 0.959964 0.043890 0.544417
C94   C     C_R   0.961930 0.267592 0.930583 0.586390
C95   C     C_R   0.270750 0.263788 0.945112 0.556642
C96   C     C_R   0.256034 0.965325 0.928909 0.546249
Cr1   Cr    Cr6+3 0.576280 0.580550 0.506370 1.034930
Cr2   Cr    Cr6+3 0.346780 0.572400 0.496520 1.064911
Cr3   Cr    Cr6+3 0.576960 0.347070 0.497150 1.035931
Cr4   Cr    Cr6+3 0.087320 0.083240 0.984860 1.064602
Cr5   Cr    Cr6+3 0.087720 0.316210 0.996740 1.066289
Cr6   Cr    Cr6+3 0.317350 0.090340 0.995890 1.021056
H1    H     H_    0.448340 0.169071 0.109820 0.132816
H2    H     H_    0.722498 0.245500 0.396089 0.146831
H3    H     H_    0.859482 0.444651 0.090666 0.135442
H4    H     H_    0.782249 0.208048 0.328092 0.151198
H5    H     H_    0.811662 0.462438 0.159790 0.144282
H6    H     H_    0.952059 0.117776 0.085282 0.128187
H7    H     H_    0.904513 0.135380 0.154516 0.123085
H8    H     H_    0.206209 0.802024 0.403434 0.169710
H9    H     H_    0.528005 0.728533 0.407474 0.151879
H10   H     H_    0.172667 0.862033 0.077019 0.140736
H11   H     H_    0.462983 0.201637 0.183221 0.120023
H12   H     H_    0.502607 0.786175 0.339390 0.153519
H13   H     H_    0.423316 0.937469 0.096178 0.144420
H14   H     H_    0.452690 0.888197 0.165615 0.148331
H15   H     H_    0.234638 0.520061 0.589167 0.150668
H16   H     H_    0.492668 0.209392 0.587638 0.141428
H17   H     H_    0.194112 0.498004 0.655246 0.142090
H18   H     H_    0.452167 0.187210 0.653504 0.150647
H19   H     H_    0.462977 0.195384 0.311182 0.125644
H20   H     H_    0.154731 0.464373 0.833757 0.139971
H21   H     H_    0.443306 0.168995 0.902940 0.160702
H22   H     H_    0.458158 0.196003 0.834228 0.184028
H23   H     H_    0.791747 0.209455 0.671239 0.156079
H24   H     H_    0.734856 0.243963 0.600270 0.154384
H25   H     H_    0.792788 0.506714 0.614481 0.147599
H26   H     H_    0.811965 0.468605 0.818624 0.135271
H27   H     H_    0.499894 0.211628 0.384229 0.138509
H28   H     H_    0.408111 0.964064 0.889185 0.160160
H29   H     H_    0.516589 0.725741 0.691887 0.158325
H30   H     H_    0.539800 0.670982 0.620585 0.153824
H31   H     H_    0.206812 0.816722 0.804435 0.138859
H32   H     H_    0.175857 0.862117 0.876460 0.173201
H33   H     H_    0.232790 0.516897 0.389678 0.148028
H34   H     H_    0.151836 0.456284 0.179119 0.132028
H35   H     H_    0.135798 0.424958 0.105646 0.134260
H36   H     H_    0.197166 0.499311 0.316555 0.149094
H37   H     H_    0.810781 0.487169 0.416300 0.162908
N1    N     N_R   0.816411 0.398833 0.228546 -0.215927
N2    N     N_R   0.235781 0.415894 0.723993 -0.247818
N3    N     N_R   0.385751 0.255432 0.723754 -0.207540
N4    N     N_R   0.383706 0.254132 0.763474 -0.191215
N5    N     N_R   0.812941 0.404796 0.268513 -0.158905
N6    N     N_R   0.870189 0.226875 0.266898 -0.207417
N7    N     N_R   0.873690 0.220868 0.226855 -0.228240
N8    N     N_R   0.281675 0.799162 0.222370 -0.143724
N9    N     N_R   0.282741 0.795730 0.262138 -0.164964
N10   N     N_R   0.388617 0.874518 0.272389 -0.223942
N11   N     N_R   0.387255 0.878181 0.232522 -0.239120
N12   N     N_R   0.233552 0.414457 0.763803 -0.239787
O1    O     O_R   0.679450 0.499830 0.463150 -0.514746
O2    O     O_R   0.356040 0.477400 0.534170 -0.499791
O3    O     O_R   0.495910 0.323070 0.537100 -0.516146
O4    O     O_R   0.663920 0.359620 0.542290 -0.494460
O5    O     O_3   0.500010 0.500010 0.500010 -0.253527
O6    O     O_R   0.170070 0.978950 0.027680 -0.521863
O7    O     O_R   0.001760 0.175230 0.026640 -0.500860
O8    O     O_R   0.984760 0.333570 0.037150 -0.519696
O9    O     O_R   0.183410 0.309240 0.041890 -0.506842
O10   O     O_R   0.340240 0.172500 0.045430 -0.518155
O11   O     O_R   0.309670 0.000990 0.032050 -0.497496
O12   O     O_R   0.480650 0.664000 0.464630 -0.498964
O13   O     O_R   0.168330 0.982130 0.939200 -0.478770
O14   O     O_R   0.000140 0.178170 0.944610 -0.465219
O15   O     O_R   0.983010 0.336750 0.948660 -0.442964
O16   O     O_R   0.181800 0.312190 0.959860 -0.444966
O17   O     O_R   0.338500 0.175680 0.956950 -0.530796
O18   O     O_R   0.308050 0.003930 0.950020 -0.506581
O19   O     O_3   0.164130 0.163270 0.992500 -0.260519
O20   O     O_R   0.323930 0.675950 0.455370 -0.505839
O21   O     O_R   0.354700 0.475360 0.451930 -0.500198
O22   O     O_R   0.494470 0.320860 0.448390 -0.516506
O23   O     O_R   0.662580 0.357570 0.460050 -0.496513
O24   O     O_R   0.680900 0.502040 0.551870 -0.518808
O25   O     O_R   0.481990 0.666040 0.546870 -0.506450
O26   O     O_R   0.325370 0.678160 0.544080 -0.464229
Br1   Br    Br    0.905128 0.480162 0.342818 -0.467461
Br2   Br    Br    0.117711 0.889785 0.325426 -0.453632
O27   O     O_3   0.182270 0.811935 0.150736 -0.541977
C97   C     C_3   0.085129 0.899768 0.156951 -0.089375
H38   H     H_    0.043915 0.932579 0.127766 0.090204
H39   H     H_    0.093029 0.960363 0.177698 0.141072
H40   H     H_    0.036337 0.875766 0.171419 0.170386
O28   O     O_3   0.120860 0.454472 0.908306 -0.560816
C98   C     C_3   0.125494 0.545794 0.922299 -0.123668
H41   H     H_    0.125362 0.588603 0.896682 0.117942
H42   H     H_    0.194479 0.528925 0.943674 0.122425
H43   H     H_    0.055516 0.597167 0.939044 0.138864
Br3   Br    Br    0.946986 0.067378 0.880126 -0.450235
O29   O     O_3   0.916969 0.125169 0.793918 -0.514937
C99   C     C_3   0.020843 0.074745 0.783112 -0.065241
H44   H     H_    0.035491 0.002215 0.764817 0.188407
H45   H     H_    0.076644 0.052962 0.810181 0.135836
H46   H     H_    0.035626 0.123565 0.764244 0.133998
O30   O     O_3   0.846341 0.469576 0.900483 -0.531391
C100  C     C_3   0.866628 0.543685 0.885512 -0.067613
H47   H     H_    0.937742 0.507564 0.868222 0.151977
H48   H     H_    0.879261 0.590583 0.911619 0.157085
H49   H     H_    0.798425 0.597453 0.866733 0.125112
O31   O     O_3   0.858406 0.483967 0.691009 -0.566128
C101  C     C_3   0.964876 0.448556 0.687499 -0.096652
H50   H     H_    0.981050 0.452048 0.655937 0.120388
H51   H     H_    0.012777 0.368523 0.697760 0.136360
H52   H     H_    0.988556 0.499900 0.707339 0.172552
Br4   Br    Br    0.480764 0.932676 0.807948 -0.501870
Br5   Br    Br    0.157793 0.881294 0.576218 -0.401979
Br6   Br    Br    0.127900 0.949202 0.675096 -0.483280

loop_
_geom_bond_atom_site_label_1
_geom_bond_atom_site_label_2
_ccdc_geom_bond_type
C92   O10   A    
Cr6   O19   S    
C7    C13   A    
C66   C68   A    
C23   O1    A    
Cr1   O24   S    
C55   C59   A    
C8    H34   S    
C41   C42   A    
C74   C94   S    
C36   C42   S    
N8    N9    A    
C96   O18   A    
C87   C88   T    
C95   O17   A    
C94   O15   A    
N6    N7    A    
C57   C58   A    
C7    C8    A    
C12   O21   A    
C23   O23   A    
C97   H38   S    
O27   C97   S    
C25   C28   A    
C84   H32   S    
C33   H12   S    
C29   C30   A    
C101  H51   S    
C30   H8    S    
C5    C6    A    
C38   C42   A    
C53   H20   S    
C30   C31   A    
C80   C81   A    
C40   H13   S    
C68   C74   A    
C15   C16   A    
Cr3   O3    S    
C100  H48   S    
C18   C19   A    
O31   C101  S    
Cr1   O5    S    
Cr5   O16   S    
C91   O7    A    
C32   C37   S    
C43   C93   S    
Cr4   O6    S    
C40   C43   A    
C66   C71   A    
Cr5   O9    S    
C16   Br1   S    
C16   C17   A    
Cr1   O12   S    
C54   O28   S    
Cr3   O4    S    
Cr5   O15   S    
C70   C71   A    
C99   H44   S    
C78   H33   S    
C91   O8    A    
C76   Br5   S    
C34   C75   S    
Cr2   O21   S    
Cr6   O18   S    
C47   H17   S    
Cr2   O2    S    
C51   N12   A    
C14   C15   A    
C80   H29   S    
C66   O29   S    
C22   H5    S    
C61   C62   A    
C67   C78   A    
C84   C90   A    
C56   O4    A    
C2    C11   S    
C94   O14   A    
C79   C88   S    
C53   C54   A    
C44   C46   A    
C15   H37   S    
C54   C59   A    
C97   H39   S    
C78   C89   A    
C12   C67   S    
Cr2   O5    S    
C38   O27   S    
C101  H50   S    
C56   O24   A    
Cr4   O19   S    
O29   C99   S    
C99   H46   S    
C24   C28   A    
Cr5   O19   S    
C76   C77   A    
C83   H28   S    
C61   H25   S    
C77   Br6   S    
C7    H35   S    
C86   C87   S    
O30   C100  S    
C81   H30   S    
C39   C43   A    
C63   C73   S    
C25   C26   A    
C85   C86   A    
C101  H52   S    
C69   O30   S    
C52   N3    A    
C96   O13   A    
C46   H15   S    
C31   Br2   S    
Cr4   O14   S    
C99   H45   S    
C14   C23   S    
C100  H49   S    
C75   C76   A    
C18   H4    S    
C62   O31   S    
C5    C9    A    
C62   C63   A    
Cr4   O7    S    
C19   H2    S    
C36   N8    A    
C47   C48   A    
Cr3   O22   S    
C68   Br3   S    
Cr6   O11   S    
C70   H26   S    
Cr3   O5    S    
C1    C29   S    
C17   C18   A    
C8    C9    A    
C77   C79   A    
C69   C74   A    
Cr4   O13   S    
C51   C58   S    
C6    H1    S    
C84   C85   A    
Cr2   O26   S    
C93   O6    A    
C26   H7    S    
Cr5   O8    S    
C59   C95   S    
Cr2   O20   S    
C39   H10   S    
C60   C65   A    
C64   H23   S    
C22   C27   A    
C55   C57   A    
C13   C92   S    
C26   C27   A    
C49   C50   A    
C20   N7    A    
C45   O2    A    
C41   H14   S    
C98   H42   S    
C3    C4    A    
C55   H21   S    
C82   Br4   S    
C35   H9    S    
C44   C45   S    
N2    N12   A    
C9    C10   S    
C97   H40   S    
C44   C50   A    
C83   C90   A    
C46   C47   A    
C40   C41   A    
Cr6   O17   S    
C5    H11   S    
C50   H16   S    
C14   C19   A    
C31   C32   A    
C75   C81   A    
N1    N5    A    
C21   N5    A    
C37   N10   A    
C72   C73   T    
C95   O16   A    
C4    C67   A    
C53   C58   A    
C90   C96   S    
C4    H27   S    
C24   H3    S    
C20   C27   S    
C51   N4    A    
C29   C35   A    
C52   N2    A    
C92   O9    A    
C65   H24   S    
C20   N1    A    
C98   H43   S    
C2    C3    A    
C71   C72   S    
C82   C86   A    
N10   N11   A    
C32   C33   A    
C6    C13   A    
C36   N11   A    
O28   C98   S    
C38   C39   A    
Cr3   O23   S    
C93   O11   A    
Cr6   O10   S    
C48   C49   A    
C64   C65   A    
C63   C64   A    
C33   C35   A    
Cr1   O1    S    
C1    O20   A    
C28   C91   S    
C22   C24   A    
C37   N9    A    
C100  H47   S    
C69   C70   A    
C34   O25   A    
C10   C11   T    
C79   C80   A    
C49   H18   S    
C2    C89   A    
C56   C60   S    
C48   C52   S    
C1    O12   A    
C89   H36   S    
C85   H31   S    
Cr1   O25   S    
N3    N4    A    
C60   C61   A    
C34   O26   A    
C45   O3    A    
C82   C83   A    
C98   H41   S    
C3    H19   S    
C25   H6    S    
C21   N6    A    
C12   O22   A    
C57   H22   S    
C17   C21   S    
