data_mof_unit_57978.cif
_audit_creation_date              2012-12-10T17:29:16-0500
_audit_creation_method            fapswitch 2.2
_symmetry_space_group_name_H-M    P1
_symmetry_Int_Tables_number       1
_space_group_crystal_system       triclinic
_cell_length_a                    11.998565
_cell_length_b                    12.890603
_cell_length_c                    13.102656
_cell_angle_alpha                 87.309519
_cell_angle_beta                  113.879915
_cell_angle_gamma                 93.428356
_cell_volume                      1849.1983842

loop_
_atom_site_label
_atom_site_type_symbol
_atom_type_description
_atom_site_fract_x
_atom_site_fract_y
_atom_site_fract_z
_atom_type_partial_charge
C1    C     C_R   0.477702 0.299422 0.499217 0.886397
C2    C     C_R   0.557302 0.484527 0.989794 0.112884
C3    C     C_R   0.534731 0.453117 0.881547 0.040718
C4    C     C_R   0.463213 0.468166 0.028211 0.109867
C5    C     C_R   0.357489 0.405793 0.967389 0.100875
C6    C     C_R   0.345332 0.362245 0.867955 -0.218109
C7    C     C_R   0.432851 0.385580 0.825371 -0.173903
C8    C     C_R   0.470965 0.513745 0.125023 -0.309791
C9    C     C_R   0.282702 0.423469 0.111859 0.396823
C10   C     C_R   0.613377 0.491638 0.831218 -0.225059
C11   C     C_R   0.535886 0.811901 0.502201 -0.058293
C12   C     C_R   0.567534 0.494373 0.709295 0.903598
C13   C     C_R   0.464251 0.188121 0.498360 -0.056646
C14   C     C_R   0.338689 0.030473 0.465469 -0.209304
C15   C     C_R   0.349677 0.137718 0.471549 -0.178431
C16   C     C_R   0.568109 0.131984 0.521323 -0.268782
C17   C     C_R   0.557926 0.025535 0.514699 0.182427
C18   C     C_R   0.442281 0.974476 0.486250 0.182221
C19   C     C_R   0.432072 0.868037 0.479485 -0.268066
C20   C     C_R   0.650487 0.862306 0.529171 -0.179185
C21   C     C_R   0.661513 0.969539 0.535462 -0.209310
C22   C     C_R   0.005832 0.597104 0.393656 -0.322842
C23   C     C_R   0.522346 0.700584 0.500941 0.895551
C24   C     C_R   0.126676 0.588225 0.404736 0.067865
C25   C     C_R   0.159662 0.457938 0.546242 -0.018793
C26   C     C_R   0.038817 0.464548 0.538470 0.087525
C27   C     C_R   0.960877 0.535109 0.460995 0.086234
C28   C     C_R   0.839948 0.541598 0.453123 -0.033685
C29   C     C_R   0.873350 0.411796 0.595251 0.073354
C30   C     C_R   0.993951 0.402584 0.605887 -0.311110
C31   C     C_R   0.432248 0.501508 0.291033 0.914323
C32   C     C_R   0.266657 0.386152 0.008279 -0.221991
C33   C     C_R   0.388251 0.485309 0.171794 -0.151443
C34   C     C_R   0.727429 0.540461 0.897207 0.396433
C35   C     C_R   0.757795 0.555368 0.009862 -0.150731
C36   C     C_R   0.673118 0.530499 0.055457 -0.270589
H1    H     H_    0.731198 0.819014 0.546907 0.175652
H2    H     H_    0.249769 0.991556 0.443916 0.145041
H3    H     H_    0.750439 0.008457 0.557048 0.144268
H4    H     H_    0.268947 0.181019 0.453705 0.177087
H5    H     H_    0.779203 0.595750 0.393942 0.117267
H6    H     H_    0.839746 0.364004 0.647752 0.133168
H7    H     H_    0.948127 0.651990 0.332877 0.143022
H8    H     H_    0.051559 0.347544 0.666473 0.138637
H9    H     H_    0.160394 0.636173 0.352424 0.131927
H10   H     H_    0.219864 0.403169 0.604680 0.117288
H11   H     H_    0.544892 0.568296 0.169482 0.158105
H12   H     H_    0.701916 0.545626 0.142975 0.153111
H13   H     H_    0.420697 0.349444 0.748456 0.147651
H14   H     H_    0.342976 0.829090 0.457388 0.159771
N1    N     N_R   0.798200 0.480260 0.519790 -0.093938
N2    N     N_R   0.201820 0.519740 0.480210 -0.094442
O1    O     O_R   0.579910 0.341070 0.505280 -0.632888
O2    O     O_R   0.388440 0.353740 0.492580 -0.617719
O3    O     O_R   0.643280 0.490550 0.663120 -0.561018
O4    O     O_R   0.451810 0.503220 0.650420 -0.622121
O5    O     O_R   0.611560 0.646260 0.507420 -0.612696
O6    O     O_R   0.420090 0.658930 0.494720 -0.631493
O7    O     O_R   0.548190 0.496780 0.349580 -0.627518
O8    O     O_R   0.356720 0.509450 0.336880 -0.566931
Zn1   Zn    Zn3+2 0.627850 0.491540 0.508480 0.980174
Zn2   Zn    Zn3+2 0.372150 0.508460 0.491520 0.980191
Cl1   Cl    Cl    0.173538 0.384410 0.165758 -0.600175
H15   H     H_    0.657191 0.170945 0.543374 0.159385
H16   H     H_    0.267240 0.311501 0.822131 0.136318
H17   H     H_    0.186071 0.337984 0.962244 0.174056
Cl2   Cl    Cl    0.833551 0.589405 0.843146 -0.596641
H18   H     H_    0.845627 0.590984 0.061558 0.184425

loop_
_geom_bond_atom_site_label_1
_geom_bond_atom_site_label_2
_ccdc_geom_bond_type
C34   Cl2   S    
C24   N2    A    
C23   O6    A    
C2    C4    A    
C1    O2    A    
C31   C33   S    
O6    Zn2   S    
C29   C30   A    
C29   H6    S    
C14   H2    S    
O2    Zn2   S    
C14   C18   A    
C32   H17   S    
C22   H7    S    
C21   H3    S    
C4    C8    A    
C5    C32   A    
C11   C19   A    
C2    C36   A    
C2    C3    A    
C25   N2    A    
C10   C34   A    
C3    C10   A    
N2    Zn2   S    
C9    C33   A    
C20   H1    S    
C19   H14   S    
C30   H8    S    
C26   C27   A    
C12   O4    A    
C10   C12   S    
C35   H18   S    
C24   H9    S    
O3    Zn1   S    
O8    Zn2   S    
C36   H12   S    
C6    C7    A    
C3    C7    A    
C22   C27   A    
C13   C15   A    
C5    C6    A    
C11   C20   A    
C28   N1    A    
C22   C24   A    
C15   H4    S    
C8    H11   S    
C12   O3    A    
O7    Zn1   S    
C31   O7    A    
C9    C32   A    
C28   H5    S    
C4    C5    A    
C1    C13   S    
C20   C21   A    
C7    H13   S    
C17   C18   A    
C34   C35   A    
C29   N1    A    
C13   C16   A    
C11   C23   S    
C27   C28   A    
C23   O5    A    
C1    O1    A    
C14   C15   A    
C18   C19   A    
C35   C36   A    
C16   H15   S    
C31   O8    A    
C25   C26   A    
C9    Cl1   S    
O1    Zn1   S    
C25   H10   S    
O4    Zn2   S    
C6    H16   S    
C17   C21   A    
O5    Zn1   S    
C16   C17   A    
C8    C33   A    
C26   C30   A    
N1    Zn1   S    
