data_mof_unit_64091.cif
_audit_creation_date              2012-12-10T19:56:03-0500
_audit_creation_method            fapswitch 2.2
_symmetry_space_group_name_H-M    P1
_symmetry_Int_Tables_number       1
_space_group_crystal_system       triclinic
_cell_length_a                    18.277172
_cell_length_b                    18.270569
_cell_length_c                    35.574558
_cell_angle_alpha                 90.039033
_cell_angle_beta                  89.981285
_cell_angle_gamma                 89.996363
_cell_volume                      11879.5628528

loop_
_atom_site_label
_atom_site_type_symbol
_atom_type_description
_atom_site_fract_x
_atom_site_fract_y
_atom_site_fract_z
_atom_type_partial_charge
C1    C     C_R   0.499998 0.141134 0.499993 0.908626
C2    C     C_1   0.717759 0.500002 0.499986 -0.181026
C3    C     C_3   0.083545 0.651191 0.111105 -0.275067
C4    C     C_3   0.465779 0.820287 0.879770 -0.254622
C5    C     C_3   0.916491 0.651318 0.889065 -0.275243
C6    C     C_3   0.534246 0.179561 0.879796 -0.254627
C7    C     C_3   0.083573 0.348792 0.888877 -0.275426
C8    C     C_3   0.965989 0.679758 0.620248 -0.255540
C9    C     C_3   0.416211 0.848826 0.610973 -0.277422
C10   C     C_3   0.034079 0.320412 0.620190 -0.255748
C11   C     C_3   0.583740 0.151123 0.611125 -0.275896
C12   C     C_3   0.966009 0.320237 0.379770 -0.262699
C13   C     C_1   0.499981 0.717764 0.500056 -0.184225
C14   C     C_3   0.412129 0.150059 0.390232 -0.281989
C15   C     C_3   0.033960 0.679605 0.379785 -0.256781
C16   C     C_3   0.677696 0.958275 0.379293 -0.267808
C17   C     C_1   0.282241 0.499995 0.500014 -0.181417
C18   C     C_1   0.999996 0.782231 0.999971 -0.193455
C19   C     C_1   0.217759 0.000005 0.999987 -0.182139
C20   C     C_1   0.000004 0.217769 0.000029 -0.193486
C21   C     C_1   0.782241 0.999996 0.000014 -0.182390
C22   C     C_1   0.499995 0.217505 0.499976 -0.202706
C23   C     C_1   0.782478 0.500004 0.499989 -0.172708
C24   C     C_1   0.499989 0.782490 0.500073 -0.183693
C25   C     C_R   0.858854 0.500002 0.499997 0.943206
C26   C     C_1   0.217522 0.499995 0.500012 -0.172655
C27   C     C_1   0.999995 0.717505 0.999976 -0.200880
C28   C     C_1   0.282478 0.000006 0.999989 -0.172275
C29   C     C_1   0.000005 0.282494 0.000024 -0.200903
C30   C     C_1   0.717522 0.999995 0.000011 -0.172796
C31   C     C_R   0.500042 0.000050 0.426676 0.950121
C32   C     C_R   0.000001 0.499977 0.426616 0.963599
C33   C     C_R   0.499989 0.000001 0.573287 0.928245
C34   C     C_R   0.000005 0.500023 0.573384 0.963236
C35   C     C_R   0.000011 0.500005 0.926714 0.928332
C36   C     C_R   0.499999 0.858865 0.500055 0.929844
C37   C     C_R   0.500003 0.999977 0.926617 0.963001
C38   C     C_R   0.999989 0.499997 0.073286 0.928274
C39   C     C_R   0.499785 0.000036 0.073370 0.964854
C40   C     C_R   0.461870 0.056396 0.173611 -0.265507
C41   C     C_R   0.945938 0.461429 0.173564 -0.256523
C42   C     C_R   0.533106 0.944690 0.174142 -0.264243
C43   C     C_R   0.053960 0.538373 0.173602 -0.256120
C44   C     C_R   0.465312 0.943449 0.826060 -0.264235
C45   C     C_R   0.946074 0.538620 0.826443 -0.256188
C46   C     C_R   0.534669 0.056309 0.826059 -0.264250
C47   C     C_R   0.141145 0.499998 0.500004 0.943153
C48   C     C_R   0.054075 0.461634 0.826391 -0.256149
C49   C     C_R   0.965455 0.556608 0.673959 -0.264291
C50   C     C_R   0.445900 0.961508 0.673569 -0.256297
C51   C     C_R   0.034700 0.443672 0.673928 -0.264292
C52   C     C_R   0.554006 0.038334 0.673603 -0.256516
C53   C     C_R   0.965377 0.443392 0.326059 -0.264466
C54   C     C_R   0.444282 0.039730 0.326710 -0.254246
C55   C     C_R   0.034577 0.556347 0.326053 -0.263923
C56   C     C_R   0.554088 0.965483 0.325889 -0.264720
C57   C     C_R   0.463971 0.057806 0.134270 0.460373
C58   C     C_R   0.999998 0.641134 0.999993 0.910204
C59   C     C_R   0.946221 0.460107 0.134315 0.469534
C60   C     C_R   0.532657 0.942741 0.134795 0.458832
C61   C     C_R   0.053698 0.539783 0.134356 0.469146
C62   C     C_R   0.466617 0.941824 0.865405 0.460148
C63   C     C_R   0.946322 0.539936 0.865692 0.469271
C64   C     C_R   0.533390 0.057997 0.865404 0.460181
C65   C     C_R   0.053779 0.460220 0.865638 0.469277
C66   C     C_R   0.966721 0.558220 0.634613 0.460297
C67   C     C_R   0.446180 0.960179 0.634321 0.469400
C68   C     C_R   0.033382 0.441974 0.634583 0.460375
C69   C     C_R   0.358854 0.000002 0.999997 0.943399
C70   C     C_R   0.553743 0.039739 0.634356 0.469385
C71   C     C_R   0.966684 0.441775 0.365404 0.461852
C72   C     C_R   0.445071 0.040326 0.365949 0.466012
C73   C     C_R   0.033299 0.558038 0.365398 0.460850
C74   C     C_R   0.556322 0.965880 0.365235 0.466204
C75   C     C_R   0.498837 0.000190 0.114682 -0.274417
C76   C     C_R   0.999965 0.499967 0.114460 -0.284095
C77   C     C_R   0.500007 0.999929 0.885280 -0.275574
C78   C     C_R   0.000036 0.500050 0.885540 -0.283969
C79   C     C_R   0.000035 0.500073 0.614722 -0.275834
C80   C     C_R   0.000002 0.358866 0.000007 0.910225
C81   C     C_R   0.499966 0.999978 0.614462 -0.283595
C82   C     C_R   0.999997 0.499927 0.385278 -0.276126
C83   C     C_R   0.500229 0.001668 0.385447 -0.280311
C84   C     C_R   0.358624 0.499997 0.500005 0.931424
C85   C     C_R   0.499998 0.358620 0.499989 0.932495
C86   C     C_R   0.641376 0.499999 0.499995 0.932290
C87   C     C_R   0.499986 0.641377 0.500015 0.933625
C88   C     C_R   0.858624 0.999999 0.000005 0.932583
C89   C     C_R   0.999999 0.858621 0.999989 0.934199
C90   C     C_R   0.141376 0.000002 0.999995 0.932630
C91   C     C_R   0.641145 0.999998 0.000003 0.943170
C92   C     C_R   0.000001 0.141379 0.000011 0.934196
C93   C     C_R   0.497134 0.000715 0.193248 0.007251
C94   C     C_R   0.999945 0.499879 0.192985 -0.005242
C95   C     C_R   0.499981 0.999866 0.806682 0.006907
C96   C     C_R   0.000085 0.500150 0.807015 -0.005162
C97   C     C_R   0.000088 0.500159 0.693321 0.006858
C98   C     C_R   0.499950 0.999900 0.692988 -0.005122
C99   C     C_R   0.999968 0.499853 0.306679 0.006876
C100  C     C_R   0.498612 0.002542 0.306917 0.000503
C101  C     C_1   0.496995 0.001407 0.233274 -0.003158
C102  C     C_1   0.499996 0.282230 0.499971 -0.194398
C103  C     C_1   0.999937 0.499843 0.233013 -0.001196
C104  C     C_1   0.499957 0.999852 0.766648 -0.002365
C105  C     C_1   0.000093 0.500176 0.766987 -0.000982
C106  C     C_1   0.000093 0.500180 0.733355 -0.002342
C107  C     C_1   0.499947 0.999864 0.733016 -0.000981
C108  C     C_1   0.999944 0.499833 0.266644 -0.002406
C109  C     C_1   0.497399 0.001992 0.266899 -0.002025
C110  C     C_3   0.460334 0.179498 0.120145 -0.255537
C111  C     C_3   0.916393 0.348729 0.110951 -0.276077
C112  C     C_3   0.535920 0.821102 0.120650 -0.253733
H1    H     H_    0.432625 0.098641 0.188843 0.159987
H2    H     H_    0.403937 0.931878 0.688803 0.167194
H3    H     H_    0.062917 0.401031 0.689345 0.160594
H4    H     H_    0.595964 0.067933 0.688862 0.167154
H5    H     H_    0.937175 0.400717 0.310631 0.159741
H6    H     H_    0.401250 0.068376 0.311781 0.166933
H7    H     H_    0.062762 0.598997 0.310619 0.160876
H8    H     H_    0.595031 0.935421 0.310148 0.161038
H9    H     H_    0.520069 0.176838 0.113996 0.154791
H10   H     H_    0.450803 0.200496 0.149058 0.147763
H11   H     H_    0.435943 0.219462 0.100315 0.188258
H12   H     H_    0.904007 0.431750 0.188796 0.166895
H13   H     H_    0.924012 0.321259 0.138596 0.152215
H14   H     H_    0.967784 0.346019 0.094178 0.143206
H15   H     H_    0.873875 0.317938 0.095296 0.196143
H16   H     H_    0.476895 0.824236 0.112978 0.156303
H17   H     H_    0.542356 0.800524 0.149853 0.148485
H18   H     H_    0.561852 0.780567 0.101621 0.187993
H19   H     H_    0.075856 0.678619 0.138778 0.152661
H20   H     H_    0.032193 0.653916 0.094321 0.142932
H21   H     H_    0.126093 0.682013 0.095495 0.196249
H22   H     H_    0.524840 0.824544 0.887223 0.155906
H23   H     H_    0.561829 0.902705 0.189786 0.161069
H24   H     H_    0.459326 0.799356 0.850619 0.147346
H25   H     H_    0.440840 0.779453 0.898949 0.188007
H26   H     H_    0.924140 0.678791 0.861421 0.152780
H27   H     H_    0.967866 0.654009 0.905833 0.143099
H28   H     H_    0.873964 0.682118 0.904727 0.196132
H29   H     H_    0.475186 0.175322 0.887272 0.155922
H30   H     H_    0.540694 0.200444 0.850648 0.147340
H31   H     H_    0.559192 0.220425 0.898976 0.187991
H32   H     H_    0.075903 0.321378 0.861202 0.152791
H33   H     H_    0.032205 0.346081 0.905666 0.143135
H34   H     H_    0.095883 0.568020 0.188863 0.167507
H35   H     H_    0.126100 0.317949 0.904480 0.196134
H36   H     H_    0.025048 0.675433 0.612779 0.155918
H37   H     H_    0.959548 0.700710 0.649398 0.147418
H38   H     H_    0.941095 0.720611 0.601070 0.187528
H39   H     H_    0.423790 0.821363 0.638622 0.153366
H40   H     H_    0.467601 0.846039 0.594203 0.141568
H41   H     H_    0.373657 0.818080 0.595320 0.195847
H42   H     H_    0.975025 0.324732 0.612732 0.155693
H43   H     H_    0.040495 0.299527 0.649337 0.147435
H44   H     H_    0.058977 0.279510 0.601004 0.187617
H45   H     H_    0.437052 0.900815 0.810631 0.160593
H46   H     H_    0.576136 0.178545 0.638805 0.152829
H47   H     H_    0.532368 0.153939 0.594361 0.143839
H48   H     H_    0.626313 0.181888 0.595503 0.195583
H49   H     H_    0.025065 0.324574 0.387222 0.157306
H50   H     H_    0.959581 0.299295 0.350620 0.146258
H51   H     H_    0.941126 0.279372 0.398951 0.185347
H52   H     H_    0.419009 0.178566 0.362812 0.152024
H53   H     H_    0.463411 0.153693 0.407030 0.139068
H54   H     H_    0.368752 0.179174 0.406126 0.197861
H55   H     H_    0.974906 0.675269 0.387259 0.155197
H56   H     H_    0.904161 0.568316 0.811217 0.167197
H57   H     H_    0.040378 0.700497 0.350638 0.146945
H58   H     H_    0.058838 0.720510 0.398966 0.187605
H59   H     H_    0.676661 0.017310 0.387168 0.153205
H60   H     H_    0.697929 0.951445 0.350036 0.146520
H61   H     H_    0.717340 0.930714 0.398173 0.187897
H62   H     H_    0.562917 0.098919 0.810627 0.160577
H63   H     H_    0.096002 0.431970 0.811124 0.167209
H64   H     H_    0.937252 0.599277 0.689402 0.160573
O1    O     O_R   0.560470 0.107230 0.500140 -0.622640
O2    O     O_R   0.392770 0.060470 0.000140 -0.619174
O3    O     O_R   0.939530 0.392770 0.000140 -0.618099
O4    O     O_R   0.607230 0.939530 0.000140 -0.619557
O5    O     O_R   0.060470 0.392770 0.999860 -0.618191
O6    O     O_R   0.392770 0.939530 0.999860 -0.619381
O7    O     O_R   0.939530 0.607230 0.999860 -0.618166
O8    O     O_R   0.607230 0.060470 0.999860 -0.619147
O9    O     O_R   0.560470 0.999900 0.444700 -0.601924
O10   O     O_R   0.000100 0.560470 0.444700 -0.595917
O11   O     O_R   0.439530 0.000100 0.444700 -0.577620
O12   O     O_R   0.892770 0.560470 0.500140 -0.618816
O13   O     O_R   0.999900 0.439530 0.444700 -0.596183
O14   O     O_R   0.560470 0.000100 0.555300 -0.583910
O15   O     O_R   0.000100 0.439530 0.555300 -0.596165
O16   O     O_R   0.439530 0.999900 0.555300 -0.583591
O17   O     O_R   0.999900 0.560470 0.555300 -0.596103
O18   O     O_R   0.060470 0.499900 0.944700 -0.583131
O19   O     O_R   0.500100 0.060470 0.944700 -0.596157
O20   O     O_R   0.939530 0.500100 0.944700 -0.583108
O21   O     O_R   0.499900 0.939530 0.944700 -0.596120
O22   O     O_R   0.060470 0.500100 0.055300 -0.583123
O23   O     O_R   0.439530 0.892770 0.500140 -0.619313
O24   O     O_R   0.500100 0.939530 0.055300 -0.596902
O25   O     O_R   0.939530 0.499900 0.055300 -0.583119
O26   O     O_R   0.499900 0.060470 0.055300 -0.596363
O27   O     O_R   0.392480 0.499860 0.468850 -0.619164
O28   O     O_R   0.500140 0.392480 0.468850 -0.624084
O29   O     O_R   0.607520 0.500140 0.468850 -0.618023
O30   O     O_R   0.499860 0.607520 0.468850 -0.613768
O31   O     O_R   0.392480 0.500140 0.531150 -0.620215
O32   O     O_R   0.500140 0.607520 0.531150 -0.626048
O33   O     O_R   0.607520 0.499860 0.531150 -0.620454
O34   O     O_R   0.107230 0.439530 0.500140 -0.619597
O35   O     O_R   0.499860 0.392480 0.531150 -0.622698
O36   O     O_R   0.892480 0.999860 0.968850 -0.619690
O37   O     O_R   0.000140 0.892480 0.968850 -0.622776
O38   O     O_R   0.107520 0.000140 0.968850 -0.619785
O39   O     O_R   0.999860 0.107520 0.968850 -0.622701
O40   O     O_R   0.892480 0.000140 0.031150 -0.620041
O41   O     O_R   0.000140 0.107520 0.031150 -0.623007
O42   O     O_R   0.107520 0.999860 0.031150 -0.619679
O43   O     O_R   0.999860 0.892480 0.031150 -0.622890
O44   O     O_3   0.425927 0.111170 0.114722 -0.586889
O45   O     O_R   0.560470 0.892770 0.499860 -0.614298
O46   O     O_3   0.892405 0.421542 0.115526 -0.581640
O47   O     O_3   0.571411 0.889034 0.115840 -0.587876
O48   O     O_3   0.107535 0.578376 0.115607 -0.581601
O49   O     O_3   0.429133 0.887614 0.884610 -0.586677
O50   O     O_3   0.892495 0.578514 0.884487 -0.581769
O51   O     O_3   0.570887 0.112240 0.884604 -0.586672
O52   O     O_3   0.107586 0.421601 0.884380 -0.581766
O53   O     O_3   0.929276 0.612471 0.615427 -0.586577
O54   O     O_3   0.392318 0.921672 0.615535 -0.581678
O55   O     O_3   0.070806 0.387682 0.615367 -0.586459
O56   O     O_R   0.892770 0.439530 0.499860 -0.620429
O57   O     O_3   0.607623 0.078268 0.615605 -0.582084
O58   O     O_3   0.929272 0.387515 0.384610 -0.586383
O59   O     O_3   0.390193 0.076753 0.385068 -0.579585
O60   O     O_3   0.070713 0.612344 0.384594 -0.585216
O61   O     O_3   0.608599 0.925138 0.384084 -0.582615
O62   O     O_R   0.439530 0.107230 0.499860 -0.618500
O63   O     O_R   0.107230 0.560470 0.499860 -0.619150
O64   O     O_R   0.060470 0.607230 0.000140 -0.618104
Zn1   Zn    Zn3+2 0.580800 0.000000 0.500000 0.995469
Zn2   Zn    Zn3+2 0.500000 0.500000 0.541650 0.967565
Zn3   Zn    Zn3+2 1.000000 0.000000 0.958350 0.968259
Zn4   Zn    Zn3+2 1.000000 0.000000 0.041650 0.967295
Zn5   Zn    Zn3+2 1.000000 0.580800 0.500000 0.989942
Zn6   Zn    Zn3+2 0.419200 0.000000 0.500000 1.017745
Zn7   Zn    Zn3+2 1.000000 0.419200 0.500000 0.988108
Zn8   Zn    Zn3+2 0.080800 0.500000 0.000000 1.014131
Zn9   Zn    Zn3+2 0.500000 0.080800 0.000000 0.990777
Zn10  Zn    Zn3+2 0.919200 0.500000 0.000000 1.014128
Zn11  Zn    Zn3+2 0.500000 0.919200 0.000000 0.990334
Zn12  Zn    Zn3+2 0.500000 0.500000 0.458350 0.977927

loop_
_geom_bond_atom_site_label_1
_geom_bond_atom_site_label_2
_ccdc_geom_bond_type
C16   H61   S    
C11   O57   S    
O1    Zn1   S    
C96   C105  S    
C25   O56   A    
C51   C97   A    
C3    O48   S    
O64   Zn8   S    
O13   Zn7   S    
C42   C93   A    
O15   Zn7   S    
C64   C77   A    
C62   C77   A    
C105  C106  T    
C28   C69   S    
C84   O31   A    
C86   O33   A    
C40   C93   A    
C39   O24   A    
C15   H55   S    
C10   H42   S    
C61   O48   S    
O5    Zn8   S    
O16   Zn6   S    
C5    H26   S    
C9    H40   S    
O45   Zn1   S    
C5    O50   S    
C7    H33   S    
C12   O58   S    
C99   C108  S    
C20   C92   S    
C66   O53   S    
C43   C61   A    
C24   C36   S    
C50   H2    S    
C20   C29   T    
C33   O16   A    
C3    H19   S    
C17   C26   T    
C37   O19   A    
C41   H12   S    
C4    H22   S    
C34   O15   A    
C59   O46   S    
O32   Zn2   S    
O36   Zn3   S    
O24   Zn11  S    
C110  H11   S    
O4    Zn11  S    
C53   H5    S    
O2    Zn9   S    
C7    O52   S    
O21   Zn11  S    
C101  C109  T    
C48   C96   A    
C43   C94   A    
C31   C83   S    
O43   Zn4   S    
C15   H57   S    
C92   O39   A    
C71   O58   S    
C70   C81   A    
C7    H32   S    
C73   O60   S    
C14   H53   S    
C85   O28   A    
C4    H25   S    
C1    O1    A    
C36   O45   A    
O10   Zn5   S    
C46   C95   A    
C41   C94   A    
C67   O54   S    
O22   Zn8   S    
C38   O25   A    
C15   O60   S    
C111  H13   S    
C13   C87   S    
C46   H62   S    
C103  C108  T    
C65   C78   A    
C37   O21   A    
C48   C65   A    
C6    H30   S    
O56   Zn7   S    
O30   Zn12  S    
C50   C67   A    
C74   C83   A    
C1    C22   S    
O23   Zn6   S    
C68   O55   S    
C10   H44   S    
C69   O6    A    
C4    H24   S    
C71   C82   A    
C68   C79   A    
O41   Zn4   S    
C12   H49   S    
C21   C88   S    
C9    H41   S    
C100  C109  S    
O18   Zn8   S    
C91   O8    A    
C6    O51   S    
C44   H45   S    
C56   H8    S    
O35   Zn2   S    
C54   C100  A    
C8    H36   S    
O20   Zn10  S    
O34   Zn7   S    
C58   O64   A    
C85   O35   A    
C86   O29   A    
C14   O59   S    
C11   H48   S    
C5    H27   S    
C63   O50   S    
C7    H35   S    
O40   Zn4   S    
C52   H4    S    
C61   C76   A    
C33   O14   A    
C50   C98   A    
C56   C74   A    
C49   C66   A    
C11   H47   S    
C3    H20   S    
C72   C83   A    
C80   O3    A    
O37   Zn3   S    
C41   C59   A    
O31   Zn2   S    
C42   C60   A    
O3    Zn10  S    
C15   H58   S    
O9    Zn1   S    
C44   C62   A    
C80   O5    A    
C37   C77   S    
C45   C63   A    
C53   C99   A    
C98   C107  S    
C65   O52   S    
C46   C64   A    
C9    O54   S    
C3    H21   S    
C70   O57   S    
C55   C73   A    
O33   Zn2   S    
C8    H38   S    
O6    Zn11  S    
C87   O30   A    
C66   C79   A    
C25   O12   A    
C69   O2    A    
C89   O43   A    
C8    O53   S    
C16   H60   S    
C40   H1    S    
C91   O4    A    
C31   O9    A    
C111  H14   S    
C38   O22   A    
O12   Zn5   S    
C90   O42   A    
C4    O49   S    
C104  C107  T    
C6    H29   S    
C19   C28   T    
C26   C47   S    
C42   H23   S    
C47   O63   A    
C97   C106  S    
C35   O20   A    
C34   O17   A    
C38   C76   S    
C16   O61   S    
C67   C81   A    
C39   C75   S    
C54   H6    S    
C111  H15   S    
C112  H17   S    
C112  O47   S    
C64   O51   S    
C39   O26   A    
C14   H54   S    
C56   C100  A    
C93   C101  S    
C53   C71   A    
C60   O47   S    
C73   C82   A    
C90   O38   A    
C110  O44   S    
C95   C104  S    
C84   O27   A    
C5    H28   S    
C89   O37   A    
C21   C30   T    
C9    H39   S    
C36   O23   A    
C40   C57   A    
C88   O40   A    
C18   C89   S    
C18   C27   T    
C30   C91   S    
C27   C58   S    
C10   H43   S    
C94   C103  S    
C57   O44   S    
C1    O62   A    
O11   Zn6   S    
C62   O49   S    
C32   C82   S    
C34   C79   S    
C35   C78   S    
O39   Zn3   S    
C22   C102  T    
C72   O59   S    
C32   O10   A    
O63   Zn5   S    
C17   C84   S    
C112  H18   S    
O8    Zn9   S    
C48   H63   S    
C74   O61   S    
C8    H37   S    
O7    Zn10  S    
C110  H9    S    
C19   C90   S    
C110  H10   S    
C12   H51   S    
C16   H59   S    
C57   C75   A    
C29   C80   S    
O38   Zn3   S    
O19   Zn9   S    
C52   C98   A    
C10   O55   S    
C32   O13   A    
C2    C86   S    
C2    C23   T    
C51   C68   A    
C23   C25   S    
C14   H52   S    
C92   O41   A    
C45   H56   S    
C51   H3    S    
C87   O32   A    
C112  H16   S    
C60   C75   A    
C52   C70   A    
O62   Zn6   S    
C12   H50   S    
O27   Zn12  S    
O28   Zn12  S    
C55   H7    S    
O26   Zn9   S    
C54   C72   A    
C13   C24   T    
O14   Zn1   S    
O25   Zn10  S    
C88   O36   A    
C47   O34   A    
C55   C99   A    
O42   Zn4   S    
O29   Zn12  S    
O17   Zn5   S    
C58   O7    A    
C31   O11   A    
C6    H31   S    
C45   C96   A    
C33   C81   S    
C59   C76   A    
C111  O46   S    
C49   H64   S    
C44   C95   A    
C85   C102  S    
C43   H34   S    
C11   H46   S    
C35   O18   A    
C63   C78   A    
C49   C97   A    
