data_mof_unit_42833.cif
_audit_creation_date              2013-03-05T15:51:59-0500
_audit_creation_method            fapswitch 2.2
_symmetry_space_group_name_H-M    P1
_symmetry_Int_Tables_number       1
_space_group_crystal_system       triclinic
_cell_length_a                    23.242693
_cell_length_b                    7.303462
_cell_length_c                    15.118273
_cell_angle_alpha                 89.853333
_cell_angle_beta                  108.235917
_cell_angle_gamma                 90.181354
_cell_volume                      2437.45080293

loop_
_atom_site_label
_atom_site_type_symbol
_atom_site_description
_atom_site_fract_x
_atom_site_fract_y
_atom_site_fract_z
_atom_type_partial_charge
O1    O     O_R   0.711000 0.648610 0.341170 -0.584935
O2    O     O_R   0.289000 0.351390 0.658830 -0.584934
O3    O     O_R   0.789000 0.148610 0.158830 -0.584269
O4    O     O_R   0.211000 0.851390 0.841170 -0.584268
O5    O     O_R   0.829650 0.322030 0.336650 -0.588104
O6    O     O_R   0.170350 0.677970 0.663350 -0.588103
O7    O     O_R   0.670350 0.822030 0.163350 -0.588312
O8    O     O_R   0.329650 0.177970 0.836650 -0.588313
C1    C     C_R   0.854269 0.485893 0.356776 0.969046
C2    C     C_R   0.145730 0.514107 0.643224 0.969043
C3    C     C_R   0.645729 0.985691 0.143225 0.968686
C4    C     C_R   0.354271 0.014309 0.856775 0.968685
O9    O     O_R   0.713950 0.319280 0.352070 -0.584820
O10   O     O_R   0.286050 0.680720 0.647930 -0.584819
O11   O     O_R   0.786050 0.819280 0.147930 -0.584654
O12   O     O_R   0.213950 0.180720 0.852070 -0.584656
O13   O     O_R   0.672470 0.142870 0.174360 -0.585577
O14   O     O_R   0.327530 0.857130 0.825640 -0.585576
O15   O     O_R   0.827530 0.642870 0.325640 -0.586265
O16   O     O_R   0.172470 0.357130 0.674360 -0.586264
C5    C     C_R   0.701826 0.487210 0.376001 0.937938
C6    C     C_R   0.298172 0.512789 0.623998 0.937940
C7    C     C_R   0.798154 0.987820 0.123998 0.937831
C8    C     C_R   0.201847 0.012180 0.876004 0.937830
O17   O     O_3   0.736530 0.478650 0.191680 -0.285881
O18   O     O_3   0.263470 0.521350 0.808320 -0.285881
O19   O     O_3   0.763470 0.978650 0.308320 -0.286932
O20   O     O_3   0.236530 0.021350 0.691680 -0.286929
V1    V     V_3+5 0.752500 0.206170 0.260820 1.191560
V2    V     V_3+5 0.247500 0.793830 0.739180 1.191566
V3    V     V_3+5 0.747500 0.706170 0.239180 1.190871
V4    V     V_3+5 0.252500 0.293830 0.760820 1.190874
C9    C     C_R   0.827599 0.997168 0.051894 -0.141246
C10   C     C_R   0.172404 0.002835 0.948109 -0.141250
C11   C     C_R   0.672408 0.494684 0.448151 -0.142815
C12   C     C_R   0.327589 0.505316 0.551846 -0.142810
C13   C     C_R   0.821173 0.017114 0.888997 0.406330
C14   C     C_R   0.178833 0.982959 0.111010 0.406317
C15   C     C_R   0.678859 0.518005 0.610893 0.404623
C16   C     C_R   0.321137 0.482029 0.389102 0.404627
C17   C     C_R   0.793128 0.010246 0.958495 -0.237372
C18   C     C_R   0.206876 0.989794 0.041509 -0.237371
C19   C     C_R   0.706909 0.507496 0.541526 -0.235979
C20   C     C_R   0.293088 0.492537 0.458470 -0.235977
C21   C     C_R   0.890563 0.995755 0.077754 -0.224472
C22   C     C_R   0.109440 0.004243 0.922250 -0.224457
C23   C     C_R   0.609491 0.487066 0.422532 -0.225103
C24   C     C_R   0.390506 0.512911 0.577465 -0.225102
C25   C     C_R   0.921058 0.003999 0.010383 0.087190
C26   C     C_R   0.078946 0.996035 0.989622 0.087185
C27   C     C_R   0.579013 0.495623 0.489892 0.088213
C28   C     C_R   0.420984 0.504362 0.510104 0.088202
C29   C     C_R   0.885400 0.005931 0.914660 -0.024617
C30   C     C_R   0.114605 0.994134 0.085347 -0.024616
C31   C     C_R   0.614509 0.519991 0.584807 -0.025951
C32   C     C_R   0.385487 0.480014 0.415189 -0.025945
C33   C     C_R   0.985785 0.005265 0.035408 0.097824
C34   C     C_R   0.014218 0.994781 0.964597 0.097823
C35   C     C_R   0.514370 0.485935 0.465268 0.097528
C36   C     C_R   0.485627 0.514045 0.534728 0.097531
C37   C     C_R   0.977013 0.979890 0.871090 -0.222454
C38   C     C_R   0.022990 0.020182 0.128914 -0.222473
C39   C     C_R   0.522389 0.554293 0.626296 -0.221648
C40   C     C_R   0.477606 0.445690 0.373699 -0.221661
C41   C     C_R   0.914406 0.987662 0.846884 -0.101552
C42   C     C_R   0.085597 0.012433 0.153120 -0.101529
C43   C     C_R   0.585064 0.554820 0.650735 -0.106107
C44   C     C_R   0.414931 0.445176 0.349260 -0.106064
H1    H     H_    0.888975 0.972132 0.774011 0.181757
H2    H     H_    0.111027 0.028002 0.225991 0.181787
H3    H     H_    0.610081 0.589957 0.721834 0.181977
H4    H     H_    0.389914 0.410043 0.278160 0.181991
H5    H     H_    0.085824 0.017365 0.848844 0.112786
H6    H     H_    0.914179 0.982602 0.151159 0.112795
H7    H     H_    0.414197 0.519819 0.651067 0.112819
H8    H     H_    0.585801 0.480134 0.348930 0.112820
H9    H     H_    0.255798 0.982918 0.060095 0.160541
H10   H     H_    0.744206 0.017134 0.939907 0.160528
H11   H     H_    0.244098 0.492527 0.439659 0.161793
H12   H     H_    0.755899 0.507530 0.560337 0.161787
H13   H     H_    0.994742 0.958563 0.814133 0.135312
H14   H     H_    0.005258 0.041527 0.185867 0.135317
H15   H     H_    0.504193 0.589736 0.681279 0.135625
H16   H     H_    0.495803 0.410247 0.318716 0.135627
C45   C     C_1   0.416767 0.007230 0.918741 -0.286826
C46   C     C_1   0.583233 0.992770 0.081259 -0.286830
C47   C     C_1   0.083235 0.506745 0.581269 -0.287238
C48   C     C_1   0.916764 0.493255 0.418731 -0.287242
C49   C     C_1   0.469144 0.002526 0.969963 0.063442
C50   C     C_1   0.530856 0.997474 0.030037 0.063442
C51   C     C_1   0.030856 0.502286 0.530041 0.063221
C52   C     C_1   0.969143 0.497714 0.469959 0.063220
N1    N     N_R   0.783878 0.040308 0.793673 0.254077
O21   O     O_R   0.729366 0.972104 0.765827 -0.355308
O22   O     O_R   0.799327 0.157501 0.740112 -0.372229
N2    N     N_R   0.216133 0.959846 0.206338 0.254078
O23   O     O_R   0.270654 0.028054 0.234157 -0.355341
O24   O     O_R   0.200675 0.842728 0.259942 -0.372274
N3    N     N_R   0.716377 0.522096 0.706858 0.255352
O25   O     O_R   0.769491 0.599663 0.729420 -0.357503
O26   O     O_R   0.703142 0.419193 0.768236 -0.368146
N4    N     N_R   0.283618 0.477978 0.293136 0.255347
O27   O     O_R   0.230491 0.400467 0.270571 -0.357519
O28   O     O_R   0.296871 0.580873 0.231762 -0.368190

loop_
_geom_bond_atom_site_label_1
_geom_bond_atom_site_label_2
_geom_bond_distance
_ccdc_geom_bond_type
O17   V3    1.797422 S    
O1    C5    1.333328 A    
N1    O21   1.301519 A    
C47   C51   1.221793 T    
O19   V1    1.795515 S    
C9    C21   1.391634 A    
O3    C7    1.332852 A    
C10   C18   1.391622 A    
O15   V3    1.965443 S    
C25   C33   1.431872 A    
C33   C38   1.411793 A    
O7    C3    1.319956 A    
C35   C40   1.411787 A    
C26   C30   1.425049 A    
C4    C45   1.462468 S    
C36   C39   1.411783 A    
C40   C44   1.386270 A    
O9    V1    2.042675 S    
C23   H8    1.077300 S    
C14   C18   1.399844 A    
C1    C48   1.462318 S    
O4    C8    1.332852 A    
C25   C29   1.425035 A    
C3    C46   1.462468 S    
O1    V3    2.021642 S    
O13   V1    1.964245 S    
C31   C43   1.398512 A    
O2    V4    2.021645 S    
O3    V1    2.024401 S    
C40   H16   1.076419 S    
C28   C36   1.431931 A    
C1    O15   1.319428 A    
C15   C31   1.422572 A    
C48   C52   1.221793 T    
C2    O16   1.319428 A    
C7    C9    1.458613 S    
N2    O24   1.301625 A    
O2    C6    1.333326 A    
C10   C22   1.391626 A    
C11   C19   1.391518 A    
C16   C20   1.399781 A    
C43   H3    1.081036 S    
C44   H4    1.081042 S    
C13   C29   1.422601 A    
C34   C37   1.411800 A    
O11   C7    1.335839 A    
C38   H14   1.076442 S    
C11   C23   1.391663 A    
C35   C36   1.425563 A    
O12   C8    1.335837 A    
C24   H7    1.077301 S    
O10   V2    2.042678 S    
O5    V1    1.988599 S    
C39   C43   1.386264 A    
C2    C47   1.462318 S    
O7    V3    1.990929 S    
C38   C42   1.386259 A    
O9    C5    1.335216 A    
O8    V4    1.990932 S    
C46   C50   1.221880 T    
C17   H10   1.083849 S    
C45   C49   1.221879 T    
O18   V4    1.797424 S    
C23   C27   1.412407 A    
C16   C32   1.422581 A    
C19   H12   1.083856 S    
C32   C44   1.398518 A    
C8    C10   1.458610 S    
C39   H15   1.076419 S    
C21   H6    1.077324 S    
C26   C34   1.431875 A    
O5    C1    1.319408 A    
C15   N3    1.440304 S    
N3    O25   1.301661 A    
C14   C30   1.422621 A    
C21   C25   1.412315 A    
O8    C4    1.319955 A    
N2    O23   1.301686 A    
C13   N1    1.440407 S    
N4    O28   1.301702 A    
O14   V2    1.964247 S    
O6    V2    1.988598 S    
C12   C20   1.391519 A    
C27   C35   1.431935 A    
C14   N2    1.440425 S    
C51   C52   1.438074 S    
C29   C41   1.398531 A    
O16   V4    1.965439 S    
C3    O13   1.319397 A    
N3    O26   1.301587 A    
C20   H11   1.083857 S    
O6    C2    1.319408 A    
C15   C19   1.399775 A    
O11   V3    2.037520 S    
C30   C42   1.398541 A    
O12   V4    2.037521 S    
C6    C12   1.458642 S    
C22   C26   1.412315 A    
C9    C17   1.391625 A    
O10   C6    1.335215 A    
O20   V2    1.795516 S    
C5    C11   1.458643 S    
C37   H13   1.076436 S    
C33   C34   1.425530 A    
C42   H2    1.081055 S    
C41   H1    1.081055 S    
C12   C24   1.391659 A    
C27   C31   1.425079 A    
C13   C17   1.399835 A    
N4    O27   1.301744 A    
C16   N4    1.440308 S    
C37   C41   1.386254 A    
C24   C28   1.412403 A    
C18   H9    1.083850 S    
N1    O22   1.301431 A    
C4    O14   1.319397 A    
C49   C50   1.438214 S    
C22   H5    1.077321 S    
O4    V2    2.024398 S    
C28   C32   1.425076 A    
