data_mof_unit_11102.cif
_audit_creation_date              2013-03-05T16:03:25-0500
_audit_creation_method            fapswitch 2.2
_symmetry_space_group_name_H-M    P1
_symmetry_Int_Tables_number       1
_space_group_crystal_system       triclinic
_cell_length_a                    6.960134
_cell_length_b                    18.288581
_cell_length_c                    20.282175
_cell_angle_alpha                 68.718287
_cell_angle_beta                  90.348848
_cell_angle_gamma                 89.904543
_cell_volume                      2405.61627658

loop_
_atom_site_label
_atom_site_type_symbol
_atom_site_description
_atom_site_fract_x
_atom_site_fract_y
_atom_site_fract_z
_atom_type_partial_charge
O1    O     O_R   0.488960 0.443750 0.941980 -0.575254
O2    O     O_R   0.823890 0.406510 0.087590 -0.565489
O3    O     O_R   0.999680 0.556250 0.058020 -0.549196
C1    C     C_R   0.655413 0.381893 0.113807 0.969976
O4    O     O_R   0.818360 0.434410 0.944340 -0.539108
O5    O     O_R   0.994110 0.584350 0.913750 -0.561032
C2    C     C_R   0.650524 0.421628 0.922911 0.966398
O6    O     O_R   0.494530 0.415650 0.086250 -0.579224
O7    O     O_3   0.662590 0.549160 0.990130 -0.247945
V1    V     V_3+5 0.935320 0.490880 0.001830 1.355146
O8    O     O_R   0.324180 0.593490 0.912410 -0.605012
C3    C     C_R   0.153445 0.618312 0.885734 0.926305
O9    O     O_R   0.329720 0.565590 0.055660 -0.564043
C4    C     C_R   0.162272 0.577071 0.078234 1.008058
V2    V     V_3+5 0.435990 0.509120 0.998170 1.309369
O10   O     O_3   0.158850 0.450840 0.009870 -0.249452
C5    C     C_3   0.044427 0.709963 0.309028 0.193593
C6    C     C_3   0.233715 0.687675 0.282682 0.188415
C7    C     C_1   0.157525 0.623602 0.123011 -0.078529
C8    C     C_1   0.108776 0.876323 0.377312 -0.136394
C9    C     C_3   0.954827 0.730607 0.234348 -0.225597
C10   C     C_3   0.146351 0.708448 0.207653 -0.039500
C11   C     C_3   0.025739 0.816312 0.214500 -0.111974
C12   C     C_3   0.113063 0.795368 0.289741 -0.095870
C13   C     C_3   0.217836 0.794600 0.187120 -0.300657
C14   C     C_3   0.301708 0.772642 0.263003 0.206969
C15   C     C_1   0.155284 0.662184 0.160790 0.296136
C16   C     C_1   0.109353 0.840353 0.337493 0.328746
H1    H     H_    0.292438 0.829821 0.137549 0.207610
H2    H     H_    0.335765 0.535591 0.688169 0.190187
C17   C     C_R   0.028412 0.784399 0.874298 -0.114265
C18   C     C_R   0.963163 0.861043 0.866392 -0.044432
C19   C     C_R   0.940026 0.917196 0.799254 -0.165011
C20   C     C_R   0.990871 0.901226 0.740379 -0.138875
C21   C     C_R   0.061761 0.826847 0.745558 0.136501
C22   C     C_R   0.076988 0.764891 0.813441 0.019999
C23   C     C_R   0.122504 0.815813 0.683399 -0.252105
C24   C     C_R   0.194206 0.741934 0.687465 0.071907
C25   C     C_R   0.184243 0.675965 0.752208 -0.018857
C26   C     C_R   0.137345 0.687444 0.816742 -0.272950
C27   C     C_R   0.270072 0.732182 0.626555 -0.140505
C28   C     C_R   0.331833 0.658957 0.627954 -0.129293
C29   C     C_R   0.304461 0.593364 0.688974 -0.217888
C30   C     C_R   0.221918 0.600128 0.749314 0.328788
H3    H     H_    0.889249 0.975699 0.792175 0.158195
H4    H     H_    0.976797 0.949661 0.690432 0.129300
H5    H     H_    0.282312 0.781458 0.577172 0.148337
C31   C     C_R   0.492414 0.103833 0.250304 -0.167355
C32   C     C_R   0.394237 0.104516 0.189058 -0.187690
C33   C     C_R   0.441317 0.161915 0.123780 0.276418
C34   C     C_R   0.567134 0.222213 0.122431 -0.245682
C35   C     C_R   0.598110 0.238009 0.185475 0.102409
C36   C     C_R   0.572213 0.175370 0.251859 0.104614
C37   C     C_R   0.646864 0.314391 0.183090 -0.199372
C38   C     C_R   0.679691 0.327440 0.247178 -0.043390
C39   C     C_R   0.683588 0.262900 0.313463 -0.082554
C40   C     C_R   0.622567 0.186362 0.316448 -0.224934
C41   C     C_R   0.704712 0.405054 0.246620 0.263121
C42   C     C_R   0.784617 0.416871 0.305324 -0.328604
C43   C     C_R   0.807337 0.353946 0.368749 0.202098
C44   C     C_R   0.742177 0.279257 0.374549 0.233091
O11   O     O_R   0.770540 0.084530 0.414050 -0.551165
O12   O     O_R   0.445710 0.065660 0.555720 -0.564965
O13   O     O_R   0.270420 0.915650 0.586190 -0.605701
C45   C     C_R   0.612877 0.075015 0.580020 1.039987
O14   O     O_R   0.441140 0.093540 0.412470 -0.592773
O15   O     O_R   0.265820 0.943740 0.441930 -0.624640
C46   C     C_R   0.610146 0.118288 0.385866 1.000098
O16   O     O_R   0.775150 0.056440 0.558310 -0.574769
O17   O     O_3   0.602370 0.950960 0.510050 -0.288535
V3    V     V_3+5 0.329450 0.009140 0.498150 1.258491
O18   O     O_R   0.935790 0.934280 0.444060 -0.545648
C47   C     C_R   0.103934 0.920432 0.423811 0.989611
O19   O     O_R   0.940370 0.906390 0.587310 -0.606639
C48   C     C_R   0.110478 0.882559 0.613845 0.897445
V4    V     V_3+5 0.828810 0.990710 0.501460 1.272357
O20   O     O_3   0.105780 0.049100 0.489960 -0.237964
C49   C     C_3   0.725956 0.313329 0.718161 0.233622
C50   C     C_3   0.536755 0.288925 0.693124 0.175346
C51   C     C_1   0.616258 0.119760 0.626072 -0.154258
C52   C     C_1   0.646690 0.376163 0.877505 -0.127055
C53   C     C_3   0.806413 0.229393 0.735744 -0.281914
C54   C     C_3   0.615387 0.204763 0.710247 -0.106338
C55   C     C_3   0.726161 0.205656 0.812090 -0.250875
C56   C     C_3   0.646303 0.290317 0.794056 -0.029483
C57   C     C_3   0.535926 0.181809 0.786174 0.319189
C58   C     C_3   0.454964 0.265707 0.768729 -0.329929
C59   C     C_1   0.613572 0.157841 0.664099 0.252056
C60   C     C_1   0.648806 0.337669 0.839831 0.262218
N1    N     N_R   0.344217 0.617340 0.321813 0.256918
O21   O     O_R   0.405055 0.605846 0.385558 -0.268916
O22   O     O_R   0.369169 0.562901 0.295582 -0.356974
C61   C     C_2   0.414014 0.649133 0.564489 0.708133
H6    H     H_    0.457376 0.591296 0.566503 0.090922
O23   O     O_2   0.434461 0.705169 0.509339 -0.528513
N2    N     N_R   0.145009 0.529952 0.800362 0.231854
O24   O     O_R   0.246420 0.465684 0.821008 -0.401671
O25   O     O_R   0.959703 0.524749 0.808362 -0.381462
N3    N     N_R   0.878260 0.367554 0.430041 0.269132
O26   O     O_R   0.765271 0.359029 0.483177 -0.234790
O27   O     O_R   0.048601 0.397038 0.429300 -0.254259
C62   C     C_2   0.546167 0.025546 0.302117 0.640573
H7    H     H_    0.440151 0.979859 0.322389 0.053129
O28   O     O_2   0.714566 0.009504 0.317840 -0.522831
C63   C     C_2   0.247702 0.044566 0.192826 0.629032
H8    H     H_    0.220670 0.026311 0.148447 0.087216
O29   O     O_2   0.147159 0.017987 0.245092 -0.577824
N4    N     N_R   0.373360 0.156179 0.058851 0.223146
O30   O     O_R   0.422149 0.096400 0.042202 -0.353625
O31   O     O_R   0.283263 0.215120 0.012554 -0.305571
C64   C     C_2   0.691764 0.254974 0.059607 0.559863
H9    H     H_    0.639029 0.260463 0.007761 0.056349
O32   O     O_2   0.860533 0.269249 0.066211 -0.525103
N5    N     N_R   0.956164 0.663160 0.376235 0.276435
O33   O     O_R   0.955021 0.587172 0.396459 -0.301043
O34   O     O_R   0.909605 0.695502 0.421407 -0.312111
N6    N     N_R   0.602383 0.469427 0.196151 0.224422
O35   O     O_R   0.692193 0.531854 0.156001 -0.357276
O36   O     O_R   0.415789 0.470041 0.198665 -0.386165
C65   C     C_2   0.815433 0.496620 0.304496 0.816767
H10   H     H_    0.743617 0.515284 0.342967 0.086502
O37   O     O_2   0.926009 0.540614 0.262400 -0.589315
N7    N     N_R   0.718698 0.224249 0.444260 0.210729
O38   O     O_R   0.869997 0.202596 0.484796 -0.356856
O39   O     O_R   0.551085 0.222022 0.472874 -0.369995
N8    N     N_R   0.434275 0.336462 0.628949 0.266783
O40   O     O_R   0.380337 0.407409 0.620566 -0.335268
O41   O     O_R   0.395754 0.308395 0.579952 -0.265937
N9    N     N_R   0.828981 0.385112 0.678823 0.241707
O42   O     O_R   0.888196 0.397154 0.615072 -0.266499
O43   O     O_R   0.859327 0.438012 0.706523 -0.358077
C66   C     C_2   0.263957 0.289197 0.788272 0.628499
H11   H     H_    0.177678 0.333066 0.748784 0.052021
O44   O     O_2   0.209009 0.261971 0.849324 -0.473633
N10   N     N_R   0.432738 0.109838 0.824963 0.245344
O45   O     O_R   0.368786 0.098093 0.888068 -0.306919
O46   O     O_R   0.413849 0.055147 0.798616 -0.401996
C67   C     C_2   0.829745 0.155919 0.878136 0.817897
H12   H     H_    0.882984 0.098445 0.882892 0.005714
O47   O     O_2   0.853960 0.179370 0.926713 -0.514498
C68   C     C_2   0.997221 0.207688 0.714440 0.565119
H13   H     H_    0.083502 0.251727 0.675797 0.078455
O48   O     O_2   0.051822 0.139618 0.737864 -0.568018
N11   N     N_R   0.485904 0.799636 0.279143 0.220893
O49   O     O_R   0.527464 0.873449 0.248531 -0.405968
O50   O     O_R   0.574394 0.758947 0.337570 -0.330993
C69   C     C_2   0.911551 0.887393 0.172112 0.709940
H14   H     H_    0.859683 0.893572 0.119822 0.050735
O51   O     O_2   0.876545 0.938470 0.195663 -0.504458
C70   C     C_2   0.760829 0.706629 0.217671 0.692702
H15   H     H_    0.677013 0.665334 0.259263 0.048191
O52   O     O_2   0.698934 0.731770 0.157117 -0.566069
C71   C     C_2   0.045219 0.727568 0.946550 0.627637
H16   H     H_    0.185292 0.704015 0.966666 -0.087290
O53   O     O_2   0.903397 0.709142 0.984092 -0.538816
C72   C     C_2   0.922218 0.887380 0.926435 0.650130
H17   H     H_    0.829259 0.937817 0.917851 0.006308
O54   O     O_2   0.997473 0.856429 0.984536 -0.571875

loop_
_geom_bond_atom_site_label_1
_geom_bond_atom_site_label_2
_geom_bond_distance
_ccdc_geom_bond_type
O14   C46   1.308401 A    
C38   C39   1.431388 A    
O12   C45   1.296455 A    
C42   C65   1.468611 S    
C20   H4    1.080558 S    
C28   C61   1.480825 S    
C19   H3    1.084851 S    
C27   C28   1.396194 A    
C57   C58   1.548430 S    
C21   C22   1.433910 A    
C6    C14   1.533771 S    
C2    C52   1.447709 S    
O18   V4    1.963418 S    
C43   N3    1.438230 S    
C50   C58   1.547427 S    
N5    O33   1.298417 A    
N10   O45   1.300054 A    
C64   O32   1.220820 D    
N4    O30   1.301054 A    
C63   O29   1.218957 D    
C61   H6    1.085830 S    
O19   V4    2.010776 S    
C72   H17   1.086214 S    
C69   O51   1.218490 D    
C49   N9    1.457394 S    
C12   C14   1.536644 S    
N6    O36   1.300221 A    
O5    C3    1.300888 A    
C24   C25   1.426916 A    
N7    O39   1.300271 A    
V2    O10   2.177606 S    
C39   C40   1.443677 A    
O16   V4    1.980902 S    
C5    C6    1.533726 S    
C20   C21   1.413617 A    
O13   V3    2.018849 S    
C18   C72   1.491904 S    
O8    V2    2.010782 S    
C69   H14   1.084462 S    
C35   C37   1.421827 A    
C66   H11   1.082521 S    
C10   C13   1.559592 S    
N2    O25   1.300225 A    
N8    O41   1.300152 A    
C11   C12   1.551970 S    
O17   V3    2.144761 S    
O1    V2    1.963848 S    
C71   O53   1.221358 D    
C7    C15   1.215669 T    
O7    V1    2.144724 S    
C1    O6    1.298844 A    
N7    O38   1.301315 A    
C52   C60   1.212548 T    
C54   C59   1.481744 S    
C23   C48   1.495117 S    
C55   C67   1.497701 S    
C42   C43   1.387973 A    
C61   O23   1.221468 D    
C45   C51   1.448209 S    
O1    C2    1.301974 A    
O9    C4    1.299032 A    
C33   N4    1.435894 S    
O11   V4    2.008077 S    
C68   H13   1.082922 S    
C53   C68   1.495912 S    
C14   N11   1.452165 S    
C17   C71   1.460577 S    
C65   O37   1.216573 D    
C5    N5    1.460515 S    
C33   C34   1.401881 A    
C56   C58   1.549674 S    
C9    C11   1.552218 S    
C13   H1    1.110286 S    
C31   C36   1.432927 A    
C5    C12   1.543408 S    
O19   C48   1.304473 A    
C34   C35   1.424760 A    
C6    N1    1.457484 S    
C22   C26   1.454632 A    
C55   C56   1.556792 S    
C24   C27   1.415751 A    
N11   O50   1.298781 A    
C25   C26   1.438135 A    
O4    C2    1.294843 A    
C56   C60   1.481808 S    
C49   C50   1.532817 S    
O18   C47   1.297222 A    
C32   C63   1.480529 S    
C8    C16   1.212742 T    
C13   C14   1.552560 S    
C11   C69   1.495876 S    
C41   N6    1.433400 S    
C5    C9    1.548629 S    
C43   C44   1.404075 A    
C58   C66   1.495721 S    
C3    C26   1.510792 S    
O2    C1    1.302326 A    
C29   C30   1.400491 A    
C23   C24   1.413429 A    
C30   N2    1.431831 S    
C49   C53   1.547422 S    
N1    O22   1.299802 A    
O14   V3    2.019915 S    
C31   C62   1.481723 S    
N2    O24   1.300531 A    
C19   C20   1.376363 A    
C27   H5    1.081046 S    
C39   C44   1.433210 A    
C9    C70   1.494657 S    
V4    O20   2.177725 S    
C62   O28   1.219803 D    
O3    C4    1.304939 A    
C67   O47   1.219850 D    
O15   C47   1.302531 A    
C49   C56   1.547531 S    
C31   C32   1.410156 A    
N3    O27   1.301191 A    
C50   N8    1.457394 S    
O12   V3    1.988488 S    
C53   C54   1.549455 S    
O6    V2    2.012862 S    
C53   C55   1.556136 S    
C10   C15   1.485757 S    
O9    V2    1.963514 S    
O17   V4    1.719886 S    
C70   O52   1.219974 D    
H2    C29   1.084383 S    
C28   C29   1.390296 A    
C40   C46   1.506381 S    
O2    V1    2.019910 S    
V3    O20   1.700048 S    
C65   H10   1.082929 S    
C21   C23   1.414131 A    
N9    O42   1.300112 A    
N10   O46   1.300320 A    
C37   C38   1.421447 A    
C34   C64   1.481905 S    
C64   H9    1.081259 S    
C1    C37   1.498059 S    
C6    C10   1.548571 S    
C4    C7    1.453048 S    
C17   C18   1.424990 A    
C12   C16   1.481264 S    
C55   C57   1.542556 S    
N11   O49   1.298670 A    
C36   C40   1.437075 A    
O5    V1    2.018775 S    
N5    O34   1.300239 A    
O8    C3    1.312650 A    
C25   C30   1.433150 A    
C63   H8    1.083199 S    
C70   H15   1.080422 S    
N3    O26   1.301145 A    
O11   C46   1.299210 A    
C44   N7    1.417282 S    
C18   C19   1.384380 A    
C68   O48   1.219340 D    
C41   C42   1.397424 A    
O4    V1    1.988537 S    
C51   C59   1.212543 T    
O3    V1    1.978221 S    
V1    O10   1.699930 S    
N6    O35   1.300396 A    
C50   C54   1.547950 S    
N1    O21   1.300313 A    
N8    O40   1.300334 A    
C45   O16   1.303183 A    
C72   O54   1.220953 D    
O13   C48   1.297514 A    
N4    O31   1.301061 A    
C8    C47   1.447016 S    
O15   V3    1.978020 S    
C11   C13   1.555963 S    
O7    V2    1.723534 S    
C62   H7    1.080752 S    
C67   H12   1.084509 S    
C57   N10   1.457950 S    
C54   C57   1.547733 S    
C66   O44   1.219147 D    
C32   C33   1.399928 A    
C38   C41   1.426351 A    
C17   C22   1.445504 A    
C71   H16   1.081054 S    
C9    C10   1.549399 S    
C35   C36   1.428868 A    
N9    O43   1.300016 A    
