data_mof_unit_7857.cif
_audit_creation_date              2012-12-11T14:03:58-0500
_audit_creation_method            fapswitch 2.2
_symmetry_space_group_name_H-M    P1
_symmetry_Int_Tables_number       1
_space_group_crystal_system       triclinic
_cell_length_a                    19.045249
_cell_length_b                    11.105949
_cell_length_c                    18.827631
_cell_angle_alpha                 90.338127
_cell_angle_beta                  89.648547
_cell_angle_gamma                 90.151962
_cell_volume                      3982.17909968

loop_
_atom_site_label
_atom_site_type_symbol
_atom_type_description
_atom_site_fract_x
_atom_site_fract_y
_atom_site_fract_z
_atom_type_partial_charge
C1    C     C_R   0.239055 0.469484 0.646281 0.542014
C2    C     C_R   0.760905 0.469835 0.353606 0.539391
C3    C     C_R   0.739055 0.969484 0.646281 0.542014
C4    C     C_R   0.260905 0.969835 0.353606 0.539391
C5    C     C_2   0.293676 0.863346 0.536187 -0.025791
C6    C     C_2   0.707465 0.852363 0.464966 -0.025388
C7    C     C_2   0.793676 0.363346 0.536187 -0.025791
C8    C     C_2   0.207465 0.352363 0.464966 -0.025388
C9    C     C_R   0.006511 0.667845 0.424652 -0.046609
C10   C     C_R   0.995124 0.660576 0.574621 -0.042608
C11   C     C_R   0.506512 0.167845 0.424652 -0.046609
C12   C     C_R   0.495125 0.160576 0.574621 -0.042608
C13   C     C_R   0.003958 0.890309 0.431756 -0.077023
C14   C     C_R   0.975142 0.877830 0.577066 -0.080995
C15   C     C_R   0.503958 0.390309 0.431755 -0.077023
C16   C     C_R   0.475142 0.377830 0.577066 -0.080995
C17   C     C_R   0.991019 0.994688 0.470906 -0.133143
C18   C     C_R   0.974854 0.987930 0.542989 -0.131260
C19   C     C_R   0.491019 0.494688 0.470906 -0.133142
C20   C     C_R   0.474854 0.487930 0.542989 -0.131260
C21   C     C_R   0.991032 0.771696 0.539303 0.008937
C22   C     C_R   0.000332 0.776519 0.464364 0.008622
C23   C     C_R   0.491032 0.271696 0.539303 0.008937
C24   C     C_R   0.500333 0.276519 0.464364 0.008622
C25   C     C_R   0.995437 0.554216 0.533391 0.008954
C26   C     C_R   0.016078 0.559821 0.461854 0.006202
C27   C     C_R   0.495437 0.054216 0.533391 0.008954
C28   C     C_R   0.516078 0.059821 0.461854 0.006202
C29   C     C_R   0.978209 0.441138 0.562160 -0.079978
C30   C     C_R   0.038087 0.453539 0.427292 -0.071957
C31   C     C_R   0.478209 0.941138 0.562160 -0.079978
C32   C     C_R   0.538087 0.953539 0.427292 -0.071957
C33   C     C_R   0.992885 0.336688 0.524373 -0.144155
C34   C     C_R   0.024169 0.342666 0.457473 -0.129203
C35   C     C_R   0.492885 0.836688 0.524373 -0.144156
C36   C     C_R   0.524169 0.842666 0.457472 -0.129203
C37   C     C_2   0.236551 0.891173 0.929995 -0.097977
C38   C     C_2   0.761465 0.896886 0.071494 -0.096193
C39   C     C_2   0.736551 0.391173 0.929995 -0.097977
C40   C     C_2   0.261465 0.396886 0.071494 -0.096194
C41   C     C_2   0.246671 0.896687 0.085671 -0.109801
C42   C     C_2   0.752648 0.898245 0.914574 -0.113999
C43   C     C_2   0.746671 0.396687 0.085671 -0.109801
C44   C     C_2   0.252648 0.398245 0.914574 -0.113999
C45   C     C_R   0.228348 0.874505 0.648741 0.548220
C46   C     C_R   0.772248 0.873073 0.352251 0.547911
C47   C     C_R   0.728348 0.374505 0.648741 0.548220
C48   C     C_R   0.272248 0.373072 0.352251 0.547911
C49   C     C_2   0.187364 0.917364 0.050107 -0.161765
C50   C     C_2   0.810851 0.920985 0.951454 -0.165136
C51   C     C_2   0.687365 0.417364 0.050107 -0.161765
C52   C     C_2   0.310851 0.420985 0.951454 -0.165136
C53   C     C_2   0.180954 0.894742 0.974218 -0.151886
C54   C     C_2   0.816461 0.891907 0.026325 -0.151941
C55   C     C_2   0.680954 0.394742 0.974218 -0.151886
C56   C     C_2   0.316460 0.391906 0.026325 -0.151941
C57   C     C_2   0.000045 0.665242 0.920967 -0.100884
C58   C     C_2   0.996814 0.659914 0.076415 -0.118862
C59   C     C_2   0.500045 0.165242 0.920967 -0.100884
C60   C     C_2   0.496814 0.159914 0.076415 -0.118862
C61   C     C_2   0.003631 0.561317 0.034128 -0.000333
C62   C     C_2   0.980115 0.569245 0.959248 0.027283
C63   C     C_2   0.503631 0.061317 0.034128 -0.000333
C64   C     C_2   0.480115 0.069245 0.959248 0.027283
C65   C     C_R   0.027506 0.654329 0.646264 0.523736
C66   C     C_R   0.972659 0.656142 0.353673 0.525161
C67   C     C_R   0.527506 0.154329 0.646264 0.523736
C68   C     C_R   0.472659 0.156142 0.353673 0.525161
C69   C     C_R   0.239306 0.464186 0.849672 0.556582
C70   C     C_R   0.760474 0.463526 0.150556 0.555120
C71   C     C_R   0.739306 0.964186 0.849672 0.556582
C72   C     C_R   0.260474 0.963526 0.150556 0.555121
C73   C     C_R   0.224530 0.867039 0.855539 0.551557
C74   C     C_R   0.774432 0.869248 0.145334 0.551317
C75   C     C_R   0.724530 0.367039 0.855538 0.551557
C76   C     C_R   0.274432 0.369248 0.145334 0.551317
C77   C     C_R   0.027780 0.652759 0.849645 0.546622
C78   C     C_R   0.970825 0.651731 0.149105 0.540227
C79   C     C_R   0.527780 0.152759 0.849645 0.546622
C80   C     C_R   0.470825 0.151731 0.149105 0.540227
C81   C     C_2   0.259376 0.928269 0.586054 -0.112281
C82   C     C_2   0.742731 0.921236 0.417575 -0.111379
C83   C     C_2   0.759376 0.428270 0.586054 -0.112281
C84   C     C_2   0.242730 0.421236 0.417575 -0.111379
C85   C     C_2   0.249923 0.917593 0.422339 -0.132647
C86   C     C_2   0.750638 0.915117 0.577904 -0.137620
C87   C     C_2   0.749923 0.417592 0.422339 -0.132647
C88   C     C_2   0.250638 0.415117 0.577904 -0.137620
C89   C     C_2   0.303135 0.920512 0.468136 -0.143140
C90   C     C_2   0.696112 0.905009 0.534194 -0.144357
C91   C     C_2   0.803135 0.420513 0.468136 -0.143140
C92   C     C_2   0.196112 0.405009 0.534194 -0.144358
Cr1   Cr    Cr6+3 0.113970 0.508630 0.747920 1.002609
Cr2   Cr    Cr6+3 0.886030 0.508630 0.252080 1.007444
Cr3   Cr    Cr6+3 0.613970 0.008630 0.747920 1.002609
Cr4   Cr    Cr6+3 0.386030 0.008630 0.252080 1.007444
Cr5   Cr    Cr6+3 0.269200 0.666740 0.749850 0.991220
Cr6   Cr    Cr6+3 0.730800 0.666740 0.250150 0.997243
Cr7   Cr    Cr6+3 0.769200 0.166740 0.749850 0.991220
Cr8   Cr    Cr6+3 0.230800 0.166740 0.250150 0.997243
Cr9   Cr    Cr6+3 0.112300 0.820070 0.749800 1.011146
Cr10  Cr    Cr6+3 0.887700 0.820070 0.250200 1.010063
Cr11  Cr    Cr6+3 0.612300 0.320070 0.749800 1.011146
Cr12  Cr    Cr6+3 0.387700 0.320070 0.250200 1.010063
H1    H     H_    0.354355 0.957477 0.454456 0.167272
H2    H     H_    0.643026 0.929142 0.550064 0.176898
H3    H     H_    0.854354 0.457480 0.454457 0.167271
H4    H     H_    0.143026 0.429143 0.550064 0.176898
H5    H     H_    0.127821 0.889921 0.953647 0.146776
H6    H     H_    0.869166 0.875144 0.045741 0.148678
H7    H     H_    0.627821 0.389921 0.953647 0.146777
H8    H     H_    0.369166 0.375144 0.045741 0.148678
H9    H     H_    0.289118 0.844071 0.062631 0.098130
H10   H     H_    0.711092 0.842517 0.936595 0.101197
H11   H     H_    0.789118 0.344071 0.062631 0.098130
H12   H     H_    0.211092 0.342517 0.936595 0.101197
H13   H     H_    0.289536 0.892509 0.949369 0.082152
H14   H     H_    0.708532 0.914293 0.053836 0.089376
H15   H     H_    0.789536 0.392509 0.949369 0.082152
H16   H     H_    0.208532 0.414294 0.053836 0.089376
H17   H     H_    0.987102 0.747481 0.053334 0.074286
H18   H     H_    0.024868 0.741095 0.947391 0.072343
H19   H     H_    0.487102 0.247481 0.053334 0.074286
H20   H     H_    0.524868 0.241095 0.947391 0.072343
H21   H     H_    0.198273 0.884192 0.437558 0.105615
H22   H     H_    0.803728 0.893548 0.560450 0.111402
H23   H     H_    0.698273 0.384190 0.437557 0.105615
H24   H     H_    0.303727 0.393548 0.560450 0.111402
H25   H     H_    0.250372 0.022423 0.577504 0.086554
H26   H     H_    0.752718 0.014136 0.429898 0.085791
H27   H     H_    0.750372 0.522424 0.577504 0.086554
H28   H     H_    0.252718 0.514136 0.429898 0.085791
H29   H     H_    0.991760 0.080370 0.444571 0.100089
H30   H     H_    0.961298 0.067051 0.573287 0.100864
H31   H     H_    0.491761 0.580370 0.444570 0.100089
H32   H     H_    0.461299 0.567051 0.573287 0.100864
H33   H     H_    0.018172 0.899919 0.376383 0.130670
H34   H     H_    0.960470 0.875916 0.632684 0.125100
H35   H     H_    0.518172 0.399919 0.376383 0.130670
H36   H     H_    0.460470 0.375916 0.632684 0.125100
H37   H     H_    0.062247 0.455963 0.375055 0.128589
H38   H     H_    0.953372 0.433110 0.613827 0.131880
H39   H     H_    0.562247 0.955963 0.375055 0.128589
H40   H     H_    0.453372 0.933110 0.613826 0.131880
H41   H     H_    0.981173 0.251406 0.547981 0.096131
H42   H     H_    0.036800 0.262038 0.428024 0.096358
H43   H     H_    0.481173 0.751406 0.547981 0.096131
H44   H     H_    0.536800 0.762038 0.428024 0.096358
H45   H     H_    0.143507 0.963599 0.075305 0.151504
H46   H     H_    0.854563 0.970069 0.928029 0.152388
H47   H     H_    0.643507 0.463599 0.075305 0.151504
H48   H     H_    0.354563 0.470069 0.928029 0.152388
O1    O     O_R   0.043230 0.549300 0.667990 -0.528797
O2    O     O_R   0.956770 0.549300 0.332010 -0.519967
O3    O     O_R   0.543230 0.049300 0.667990 -0.528797
O4    O     O_R   0.456770 0.049300 0.332010 -0.519967
O5    O     O_R   0.262920 0.788600 0.824420 -0.507207
O6    O     O_R   0.737080 0.788600 0.175580 -0.499020
O7    O     O_R   0.762920 0.288600 0.824420 -0.507207
O8    O     O_R   0.237080 0.288600 0.175580 -0.499020
O9    O     O_R   0.167530 0.905110 0.830340 -0.515991
O10   O     O_R   0.832470 0.905110 0.169660 -0.515705
O11   O     O_R   0.667530 0.405110 0.830340 -0.515991
O12   O     O_R   0.332470 0.405110 0.169660 -0.515704
O13   O     O_R   0.054010 0.748440 0.822860 -0.510968
O14   O     O_R   0.945990 0.748440 0.177140 -0.505299
O15   O     O_R   0.554010 0.248440 0.822860 -0.510968
O16   O     O_R   0.445990 0.248440 0.177140 -0.505299
O17   O     O_3   0.165160 0.665150 0.749190 -0.244312
O18   O     O_3   0.834840 0.665150 0.250810 -0.245502
O19   O     O_3   0.665160 0.165150 0.749190 -0.244312
O20   O     O_3   0.334840 0.165150 0.250810 -0.245502
O21   O     O_R   0.178620 0.457600 0.674100 -0.493924
O22   O     O_R   0.821380 0.457600 0.325900 -0.492023
O23   O     O_R   0.678620 0.957600 0.674100 -0.493924
O24   O     O_R   0.321380 0.957600 0.325900 -0.492024
O25   O     O_R   0.284680 0.542100 0.669460 -0.535552
O26   O     O_R   0.715320 0.542100 0.330540 -0.538525
O27   O     O_R   0.784680 0.042100 0.669460 -0.535552
O28   O     O_R   0.215320 0.042100 0.330540 -0.538525
O29   O     O_R   0.262860 0.790390 0.676650 -0.513009
O30   O     O_R   0.737140 0.790390 0.323350 -0.514683
O31   O     O_R   0.762860 0.290390 0.676650 -0.513010
O32   O     O_R   0.237140 0.290390 0.323350 -0.514683
O33   O     O_R   0.167460 0.907030 0.670940 -0.506813
O34   O     O_R   0.832540 0.907030 0.329060 -0.508908
O35   O     O_R   0.667460 0.407030 0.670940 -0.506813
O36   O     O_R   0.332540 0.407030 0.329060 -0.508908
O37   O     O_R   0.053950 0.750220 0.675100 -0.499215
O38   O     O_R   0.946050 0.750220 0.324900 -0.504760
O39   O     O_R   0.553950 0.250220 0.675100 -0.499215
O40   O     O_R   0.446050 0.250220 0.324900 -0.504760
O41   O     O_R   0.043300 0.547370 0.827390 -0.514512
O42   O     O_R   0.956700 0.547370 0.172610 -0.524121
O43   O     O_R   0.543300 0.047370 0.827390 -0.514511
O44   O     O_R   0.456700 0.047370 0.172610 -0.524121
O45   O     O_R   0.178690 0.455820 0.821860 -0.500364
O46   O     O_R   0.821310 0.455820 0.178140 -0.501127
O47   O     O_R   0.678690 0.955820 0.821860 -0.500363
O48   O     O_R   0.321310 0.955820 0.178140 -0.501127
O49   O     O_R   0.284750 0.540170 0.828860 -0.516841
O50   O     O_R   0.715250 0.540170 0.171140 -0.515115
O51   O     O_R   0.784750 0.040170 0.828860 -0.516841
O52   O     O_R   0.215250 0.040170 0.171140 -0.515115
C93   C     C_3   0.025973 0.439517 0.063384 -0.237015
C94   C     C_3   0.069192 0.365376 0.010501 -0.445689
H49   H     H_    0.100580 0.297373 0.039331 0.133176
H50   H     H_    0.105024 0.424347 0.979555 0.167015
H51   H     H_    0.034168 0.315685 0.973936 0.149149
H52   H     H_    0.059376 0.453850 0.110977 0.159149
H53   H     H_    0.979043 0.386339 0.079415 0.162468
C95   C     C_3   0.918299 0.491058 0.936715 -0.258481
C96   C     C_3   0.929903 0.409046 0.872187 -0.403766
H54   H     H_    0.982224 0.365984 0.872806 0.169743
H55   H     H_    0.890170 0.335925 0.872378 0.137807
H56   H     H_    0.923037 0.460407 0.822312 0.164492
H57   H     H_    0.902738 0.432930 0.981970 0.133736
H58   H     H_    0.872802 0.550689 0.926103 0.133810
C97   C     C_3   0.525972 0.939517 0.063384 -0.237016
C98   C     C_3   0.569193 0.865377 0.010501 -0.445689
H59   H     H_    0.600580 0.797373 0.039330 0.133176
H60   H     H_    0.605026 0.924349 0.979557 0.167013
H61   H     H_    0.534169 0.815689 0.973934 0.149151
H62   H     H_    0.559375 0.953850 0.110977 0.159150
H63   H     H_    0.479043 0.886339 0.079413 0.162467
C99   C     C_3   0.418299 0.991058 0.936715 -0.258481
C100  C     C_3   0.429902 0.909047 0.872187 -0.403766
H64   H     H_    0.482223 0.865984 0.872805 0.169743
H65   H     H_    0.390169 0.835926 0.872378 0.137808
H66   H     H_    0.423036 0.960409 0.822312 0.164492
H67   H     H_    0.402738 0.932930 0.981970 0.133736
H68   H     H_    0.372802 0.050690 0.926103 0.133810
C101  C     C_3   0.310281 0.729935 0.542281 -0.228445
C102  C     C_3   0.342620 0.675265 0.474853 -0.452082
H69   H     H_    0.306883 0.686193 0.429121 0.159514
H70   H     H_    0.392487 0.719957 0.460718 0.161632
H71   H     H_    0.352822 0.578330 0.483346 0.149662
H72   H     H_    0.348118 0.716527 0.586156 0.171579
H73   H     H_    0.260923 0.680168 0.553895 0.170330
C103  C     C_3   0.691449 0.718982 0.455058 -0.226323
C104  C     C_3   0.655199 0.658889 0.518673 -0.447280
H74   H     H_    0.684371 0.676409 0.568382 0.160766
H75   H     H_    0.601860 0.693286 0.527126 0.156302
H76   H     H_    0.650553 0.560598 0.508997 0.150789
H77   H     H_    0.656366 0.706542 0.408813 0.182298
H78   H     H_    0.741905 0.671815 0.445384 0.168613
C105  C     C_3   0.810281 0.229935 0.542281 -0.228445
C106  C     C_3   0.842620 0.175265 0.474852 -0.452081
H79   H     H_    0.806882 0.186193 0.429121 0.159514
H80   H     H_    0.892487 0.219957 0.460718 0.161633
H81   H     H_    0.852822 0.078331 0.483346 0.149662
H82   H     H_    0.848117 0.216527 0.586156 0.171579
H83   H     H_    0.760923 0.180168 0.553894 0.170330
C107  C     C_3   0.191450 0.218982 0.455058 -0.226323
C108  C     C_3   0.155199 0.158890 0.518673 -0.447280
H84   H     H_    0.184371 0.176409 0.568382 0.160766
H85   H     H_    0.101860 0.193287 0.527126 0.156302
H86   H     H_    0.150553 0.060598 0.508997 0.150788
H87   H     H_    0.156366 0.206542 0.408813 0.182298
H88   H     H_    0.241905 0.171815 0.445384 0.168613

loop_
_geom_bond_atom_site_label_1
_geom_bond_atom_site_label_2
_ccdc_geom_bond_type
Cr10  O18   S    
C67   O39   A    
C7    C83   D    
C108  H85   S    
C15   C19   A    
C69   O49   A    
C6    C82   D    
C87   C91   D    
C86   H22   S    
Cr8   O52   S    
C14   C18   A    
C85   H21   S    
C35   C36   A    
C5    C101  S    
C30   C34   A    
Cr1   O1    S    
C44   C69   S    
C45   C81   S    
C98   H60   S    
C45   O29   A    
C57   C62   D    
C97   H63   S    
C105  H82   S    
C106  H79   S    
C71   O51   A    
C12   C23   A    
Cr1   O17   S    
C59   C64   D    
C50   C54   S    
C30   H37   S    
C4    O24   A    
C60   C63   D    
C32   C36   A    
C14   C21   A    
C67   O3    A    
C48   O36   A    
Cr7   O7    S    
Cr3   O19   S    
C94   H50   S    
C9    C22   A    
C10   C65   S    
Cr7   O19   S    
C95   H57   S    
C68   O40   A    
C19   H31   S    
C99   H67   S    
Cr12  O40   S    
C73   O5    A    
C11   C24   A    
C79   O43   A    
C54   H6    S    
C87   H23   S    
C75   O11   A    
C104  H74   S    
C78   O42   A    
C63   C97   S    
C31   H40   S    
Cr3   O23   S    
C9    C66   S    
C103  C104  S    
C32   H39   S    
C65   O1    A    
C43   H11   S    
C97   H62   S    
C46   C82   S    
C1    O25   A    
C36   H44   S    
C39   C55   D    
C14   H34   S    
C29   C33   A    
C106  H80   S    
C40   C56   D    
Cr11  O19   S    
Cr6   O6    S    
C73   O9    A    
C23   C24   A    
Cr9   O17   S    
C8    C92   S    
C39   C75   S    
C82   H26   S    
C58   C61   D    
C101  C102  S    
Cr7   O31   S    
C2    O22   A    
C106  H81   S    
C52   H48   S    
C72   O52   A    
C55   H7    S    
C44   C52   D    
C1    C88   S    
C57   H18   S    
C108  H86   S    
C51   H47   S    
C70   O46   A    
C8    C84   D    
C21   C22   A    
Cr8   O20   S    
C3    C86   S    
C69   O45   A    
C16   H36   S    
C102  H70   S    
C4    O28   A    
Cr9   O33   S    
C1    O21   A    
C41   C49   D    
C98   H59   S    
Cr1   O21   S    
C92   H4    S    
C9    C26   A    
C17   C18   A    
C15   H35   S    
C96   H55   S    
C10   C21   A    
C25   C29   A    
C80   O44   A    
C12   C67   S    
Cr12  O36   S    
C78   O14   A    
C42   H10   S    
C74   O6    A    
C12   C27   A    
C27   C31   A    
C37   C73   S    
C88   C92   D    
C28   C32   A    
Cr11  O35   S    
C90   H2    S    
C47   O31   A    
Cr10  O10   S    
C86   C90   D    
C59   C79   S    
C97   C98   S    
C74   O10   A    
C85   C89   D    
C94   H49   S    
C35   H43   S    
C4    C85   S    
C25   C26   A    
C6    C90   S    
C6    C103  S    
C70   O50   A    
C103  H78   S    
C46   O34   A    
C3    O27   A    
Cr5   O25   S    
C104  H75   S    
C102  H71   S    
Cr5   O5    S    
Cr6   O30   S    
C60   H19   S    
C66   O2    A    
C101  H72   S    
Cr7   O27   S    
C107  C108  S    
C7    C105  S    
C57   C77   S    
C72   O48   A    
C48   C84   S    
C50   H46   S    
C81   H25   S    
C100  H64   S    
C38   C54   D    
C107  H88   S    
C64   C99   S    
C16   C20   A    
C7    C91   S    
C33   C34   A    
C37   H13   S    
C2    C87   S    
Cr10  O34   S    
Cr11  O15   S    
C20   H32   S    
Cr5   O29   S    
Cr8   O8    S    
Cr10  O14   S    
C33   H41   S    
C49   H45   S    
C42   C50   D    
C41   C72   S    
C105  H83   S    
C10   C25   A    
C3    O23   A    
C15   C24   A    
C100  H65   S    
C65   O37   A    
C99   H68   S    
C26   C30   A    
C16   C23   A    
C47   C83   S    
C17   H29   S    
C103  H77   S    
C31   C35   A    
C76   O12   A    
Cr6   O26   S    
C102  H69   S    
C47   O35   A    
C108  H84   S    
C39   H15   S    
C5    C81   D    
Cr12  O20   S    
C11   C28   A    
C11   C68   S    
C48   O32   A    
C38   C74   S    
C96   H56   S    
C75   O7    A    
C59   H20   S    
Cr4   O48   S    
C93   C94   S    
C60   C80   S    
C58   H17   S    
Cr3   O43   S    
Cr4   O24   S    
Cr7   O51   S    
C77   O41   A    
Cr2   O42   S    
Cr11  O11   S    
Cr6   O50   S    
Cr1   O41   S    
C41   H9    S    
C40   H16   S    
C68   O4    A    
Cr12  O12   S    
C13   H33   S    
Cr12  O16   S    
C71   O47   A    
Cr5   O49   S    
C43   C70   S    
Cr9   O37   S    
C13   C17   A    
C104  H76   S    
C79   O15   A    
C89   H1    S    
C46   O30   A    
C19   C20   A    
Cr9   O9    S    
C83   H27   S    
C101  H73   S    
Cr5   O17   S    
C37   C53   D    
C88   H24   S    
C56   H8    S    
Cr2   O18   S    
Cr2   O2    S    
C34   H42   S    
C94   H51   S    
C45   O33   A    
Cr4   O4    S    
C76   O8    A    
C95   H58   S    
C93   H52   S    
C43   C51   D    
C96   H54   S    
C29   H38   S    
C66   O38   A    
C8    C107  S    
C42   C71   S    
Cr10  O38   S    
C84   H28   S    
C13   C22   A    
C18   H30   S    
C51   C55   S    
Cr3   O3    S    
C93   H53   S    
C61   C62   S    
Cr8   O32   S    
C49   C53   S    
Cr9   O13   S    
C58   C78   S    
Cr1   O45   S    
C63   C64   S    
Cr6   O18   S    
C40   C76   S    
Cr4   O44   S    
C100  H66   S    
Cr11  O39   S    
C95   C96   S    
C44   H12   S    
Cr3   O47   S    
C99   C100  S    
Cr4   O20   S    
Cr2   O22   S    
C27   C28   A    
C62   C95   S    
C38   H14   S    
C53   H5    S    
C2    O26   A    
Cr2   O46   S    
C107  H87   S    
C77   O13   A    
C80   O16   A    
C98   H61   S    
C5    C89   S    
C52   C56   S    
C105  C106  S    
C61   C93   S    
C91   H3    S    
Cr8   O28   S    
