data_mof_unit_54423.cif
_audit_creation_date              2012-12-10T18:53:02-0500
_audit_creation_method            fapswitch 2.2
_symmetry_space_group_name_H-M    P1
_symmetry_Int_Tables_number       1
_space_group_crystal_system       triclinic
_cell_length_a                    9.844866
_cell_length_b                    10.641188
_cell_length_c                    16.700571
_cell_angle_alpha                 89.390966
_cell_angle_beta                  85.378098
_cell_angle_gamma                 90.484015
_cell_volume                      1743.70584744

loop_
_atom_site_label
_atom_site_type_symbol
_atom_type_description
_atom_site_fract_x
_atom_site_fract_y
_atom_site_fract_z
_atom_type_partial_charge
C1    C     C_R   0.500566 0.739783 0.500050 0.967659
C2    C     C_R   0.499380 0.260465 0.500945 0.961453
C3    C     C_R   0.573603 0.937377 0.437486 0.417083
C4    C     C_R   0.440198 0.063466 0.567940 0.469219
C5    C     C_R   0.563342 0.067564 0.433854 -0.056665
C6    C     C_R   0.433992 0.934114 0.566375 -0.046422
C7    C     C_R   0.499163 0.128357 0.500386 -0.269051
C8    C     C_R   0.501597 0.872339 0.501113 -0.286445
C9    C     C_R   0.931171 0.399755 0.471114 -0.102019
C10   C     C_R   0.068717 0.600101 0.528952 -0.085266
C11   C     C_R   0.074953 0.399637 0.471347 -0.034126
C12   C     C_R   0.925041 0.600037 0.528921 -0.042357
C13   C     C_R   0.481112 0.502247 0.653647 0.915219
C14   C     C_R   0.518786 0.490719 0.346439 0.955271
C15   C     C_R   0.470065 0.496184 0.741528 -0.265712
C16   C     C_R   0.530453 0.442993 0.263244 -0.267737
C17   C     C_R   0.580247 0.539166 0.782982 0.429699
C18   C     C_R   0.413891 0.391688 0.230801 0.415276
C19   C     C_R   0.585440 0.508677 0.864063 0.001204
C20   C     C_R   0.426904 0.327805 0.158161 0.003373
C21   C     C_R   0.474439 0.445585 0.905477 0.008751
C22   C     C_R   0.551188 0.333579 0.110526 0.003057
C23   C     C_R   0.357398 0.415155 0.866421 0.058627
C24   C     C_R   0.669317 0.377898 0.143309 0.065140
C25   C     C_R   0.355460 0.439217 0.784064 0.035200
C26   C     C_R   0.659479 0.431242 0.219930 0.053295
C27   C     C_2   0.473696 0.424266 0.991509 -0.218486
C28   C     C_2   0.547585 0.334221 0.023122 -0.213182
H1    H     H_    0.615612 0.275578 0.985507 0.155790
H2    H     H_    0.411366 0.486784 0.029954 0.147288
H3    H     H_    0.879502 0.319892 0.447439 0.145672
H4    H     H_    0.120213 0.680252 0.552195 0.123164
H5    H     H_    0.131738 0.319749 0.447812 0.154922
H6    H     H_    0.868433 0.680115 0.551946 0.132280
N1    N     N_R   0.142790 0.500030 0.500020 -0.080183
N2    N     N_R   0.857210 0.499970 0.499980 -0.079635
O1    O     O_R   0.385380 0.683250 0.500010 -0.645183
O2    O     O_R   0.614620 0.316750 0.499990 -0.632602
O3    O     O_R   0.614710 0.683220 0.500000 -0.619471
O4    O     O_R   0.385290 0.316780 0.500000 -0.605078
O5    O     O_R   0.371780 0.500040 0.615800 -0.593809
O6    O     O_R   0.628220 0.499960 0.384200 -0.593654
O7    O     O_R   0.601110 0.500010 0.615800 -0.574221
O8    O     O_R   0.398890 0.499990 0.384200 -0.571933
Zn1   Zn    Zn3+2 0.346870 0.500020 0.500000 0.976194
Zn2   Zn    Zn3+2 0.653130 0.499980 0.500000 0.967473
O9    O     O_3   0.685824 0.607315 0.742826 -0.574032
C29   C     C_3   0.670729 0.735908 0.762107 0.127168
H7    H     H_    0.714461 0.755071 0.820103 0.163262
H8    H     H_    0.562153 0.766162 0.766723 0.101527
C30   C     C_3   0.747503 0.815842 0.697060 -0.859107
H9    H     H_    0.702185 0.802792 0.638943 0.247870
H10   H     H_    0.740613 0.916560 0.713428 0.206903
H11   H     H_    0.856503 0.788764 0.690530 0.256870
O10   O     O_3   0.285307 0.406602 0.269151 -0.575733
C31   C     C_3   0.219971 0.505464 0.230312 0.128975
H12   H     H_    0.170268 0.468355 0.177868 0.148218
H13   H     H_    0.291217 0.583600 0.209378 0.112544
C32   C     C_3   0.111007 0.561463 0.288169 -0.826766
H14   H     H_    0.158447 0.608513 0.338120 0.268494
H15   H     H_    0.053113 0.631634 0.255487 0.200264
H16   H     H_    0.040282 0.486812 0.313075 0.258128
N3    N     N_3   0.780451 0.478128 0.252063 -0.421459
H17   H     H_    0.824674 0.546682 0.212650 0.194506
H18   H     H_    0.848449 0.403591 0.254903 0.204556
N4    N     N_3   0.238111 0.403789 0.743436 -0.389203
H19   H     H_    0.153501 0.450853 0.769967 0.204031
H20   H     H_    0.221066 0.307252 0.751275 0.221458
N5    N     N_3   0.240966 0.356185 0.908977 -0.477424
H21   H     H_    0.204457 0.415345 0.955275 0.179083
H22   H     H_    0.271914 0.271827 0.934174 0.191341
N6    N     N_3   0.799738 0.374522 0.098446 -0.477945
H23   H     H_    0.798225 0.435373 0.049208 0.182490
H24   H     H_    0.816452 0.283161 0.077688 0.184753
N7    N     N_3   0.310705 0.261879 0.132144 -0.431646
H25   H     H_    0.340444 0.170738 0.116432 0.191038
H26   H     H_    0.277180 0.306442 0.081556 0.174219
N8    N     N_3   0.705170 0.541790 0.902835 -0.442723
H27   H     H_    0.752258 0.458805 0.918955 0.188702
H28   H     H_    0.676759 0.592958 0.954508 0.179668
O11   O     O_3   0.649802 0.872358 0.378527 -0.610968
C33   C     C_3   0.788408 0.880176 0.394871 0.127332
H29   H     H_    0.803127 0.857706 0.458991 0.132308
H30   H     H_    0.830381 0.975874 0.380505 0.142221
C34   C     C_3   0.869948 0.786601 0.343271 -0.831318
H31   H     H_    0.859184 0.806366 0.278670 0.249223
H32   H     H_    0.979120 0.794367 0.354946 0.202077
H33   H     H_    0.833297 0.689570 0.358258 0.288483
O12   O     O_3   0.390624 0.126258 0.636213 -0.595683
C35   C     C_3   0.497616 0.144013 0.687196 0.131795
H34   H     H_    0.595829 0.097767 0.666860 0.106812
H35   H     H_    0.519637 0.245955 0.690468 0.149290
C36   C     C_3   0.453456 0.095069 0.771354 -0.833649
H36   H     H_    0.439409 0.991519 0.770527 0.252300
H37   H     H_    0.532827 0.118117 0.812645 0.201522
H38   H     H_    0.356273 0.138716 0.794219 0.260257
N9    N     N_3   0.617100 0.139153 0.364371 -0.444683
H39   H     H_    0.535554 0.186346 0.341614 0.181277
H40   H     H_    0.654387 0.080382 0.318161 0.220396
N10   N     N_3   0.365135 0.867456 0.633170 -0.409447
H41   H     H_    0.281903 0.819093 0.613077 0.199446
H42   H     H_    0.431869 0.802123 0.655129 0.161912

loop_
_geom_bond_atom_site_label_1
_geom_bond_atom_site_label_2
_ccdc_geom_bond_type
N4    H20   S    
O10   C31   S    
N3    H18   S    
C36   H36   S    
C1    C8    S    
C23   N5    S    
C2    C7    S    
C26   N3    S    
C13   O5    A    
N9    H39   S    
C34   H31   S    
C28   H1    S    
C19   C21   A    
C24   C26   A    
N8    H28   S    
C15   C25   A    
C31   H12   S    
O6    Zn2   S    
N5    H22   S    
C29   C30   S    
C3    O11   S    
C9    N2    A    
N2    Zn2   S    
C10   N1    A    
C12   N2    A    
C18   C20   A    
C1    O1    A    
C14   O6    A    
C29   H8    S    
N4    H19   S    
C21   C27   S    
C32   H14   S    
C36   H37   S    
C22   C28   S    
C27   H2    S    
C4    C7    A    
N9    H40   S    
O11   C33   S    
C34   H32   S    
C16   C26   A    
O4    Zn1   S    
C32   H15   S    
C30   H9    S    
C11   H5    S    
C4    C6    A    
C3    C8    A    
C5    C7    A    
C1    O3    A    
N8    H27   S    
C6    C8    A    
C20   N7    S    
C30   H10   S    
C6    N10   S    
C19   N8    S    
N7    H25   S    
C2    O4    A    
C9    C11   A    
C2    O2    A    
C35   H35   S    
O9    C29   S    
N10   H42   S    
N7    H26   S    
C10   C12   A    
C18   O10   S    
O3    Zn2   S    
N6    H24   S    
C29   H7    S    
C20   C22   A    
C36   H38   S    
C33   H30   S    
C13   C15   S    
C14   C16   S    
O1    Zn1   S    
N1    Zn1   S    
C13   O7    A    
O8    Zn1   S    
C24   N6    S    
C35   C36   S    
C14   O8    A    
C4    O12   S    
C34   H33   S    
C15   C17   A    
C32   H16   S    
C25   N4    S    
C17   O9    S    
C5    N9    S    
N6    H23   S    
C3    C5    A    
C33   C34   S    
C31   C32   S    
C30   H11   S    
C21   C23   A    
C35   H34   S    
C11   N1    A    
N10   H41   S    
C17   C19   A    
C31   H13   S    
C22   C24   A    
C23   C25   A    
N5    H21   S    
O7    Zn2   S    
O2    Zn2   S    
C9    H3    S    
N3    H17   S    
C10   H4    S    
C16   C18   A    
C33   H29   S    
C27   C28   D    
O5    Zn1   S    
O12   C35   S    
C12   H6    S    
