data_mof_unit_6702.cif
_audit_creation_date              2012-12-11T17:10:41-0500
_audit_creation_method            fapswitch 2.2
_symmetry_space_group_name_H-M    P1
_symmetry_Int_Tables_number       1
_space_group_crystal_system       triclinic
_cell_length_a                    14.807531
_cell_length_b                    14.853555
_cell_length_c                    14.859216
_cell_angle_alpha                 109.376097
_cell_angle_beta                  109.861305
_cell_angle_gamma                 109.123845
_cell_volume                      2517.40867151

loop_
_atom_site_label
_atom_site_type_symbol
_atom_type_description
_atom_site_fract_x
_atom_site_fract_y
_atom_site_fract_z
_atom_type_partial_charge
C1    C     C_R   0.184763 0.277537 0.251818 -0.117093
C2    C     C_R   0.394066 0.487682 0.192403 0.328690
C3    C     C_R   0.565017 0.815367 0.591707 -0.122508
C4    C     C_R   0.527162 0.433733 0.748913 -0.130607
C5    C     C_R   0.723014 0.476709 0.408463 -0.120679
C6    C     C_R   0.551159 0.825254 0.498755 0.068684
C7    C     C_R   0.827016 0.555335 0.501059 0.052771
C8    C     C_R   0.422347 0.425008 0.126474 0.024500
C9    C     C_R   0.802775 0.802235 0.868165 0.061333
C10   C     C_R   0.104469 0.602511 0.186944 -0.121204
C11   C     C_R   0.104532 0.626237 0.286237 -0.154307
C12   C     C_R   0.449532 0.447772 0.774437 0.053814
C13   C     C_R   0.021864 0.549597 0.290256 0.117620
C14   C     C_R   0.938342 0.449778 0.193010 -0.181675
C15   C     C_R   0.938831 0.426422 0.093984 -0.116912
C16   C     C_R   0.505206 0.200905 0.408311 -0.157740
C17   C     C_R   0.021900 0.502599 0.091002 -0.081349
C18   C     C_R   0.928644 0.568240 0.399456 -0.235195
C19   C     C_R   0.930725 0.605455 0.500357 0.054186
C20   C     C_R   0.034409 0.675522 0.598744 0.031608
C21   C     C_R   0.126462 0.671677 0.595802 -0.235194
C22   C     C_R   0.117475 0.609481 0.495216 0.054994
C23   C     C_R   0.565724 0.196919 0.499076 0.079798
C24   C     C_R   0.023316 0.574671 0.396081 0.030433
C25   C     C_R   0.998701 0.823001 0.693182 -0.138879
C26   C     C_R   0.018285 0.906666 0.788553 -0.105659
C27   C     C_R   0.089742 0.927825 0.892316 -0.089036
C28   C     C_R   0.291231 0.598323 0.589366 -0.134808
C29   C     C_R   0.139805 0.863724 0.900997 -0.121244
C30   C     C_R   0.120372 0.779723 0.805800 -0.177062
C31   C     C_R   0.050169 0.759051 0.700738 0.111835
C32   C     C_R   0.457903 0.354107 0.882573 0.132659
C33   C     C_R   0.404759 0.399561 0.830718 0.053343
C34   C     C_R   0.197929 0.570562 0.496640 0.067801
C35   C     C_R   0.331181 0.424404 0.858166 -0.205749
C36   C     C_R   0.323564 0.418821 0.946989 -0.199764
C37   C     C_R   0.389463 0.388156 0.009842 0.059252
C38   C     C_R   0.449965 0.348176 0.971266 0.136795
C39   C     C_3   0.426689 0.231949 0.925350 -0.494052
C40   C     C_R   0.595236 0.289952 0.591198 -0.139051
C41   C     C_3   0.435418 0.238464 0.829382 -0.484633
C42   C     C_R   0.551236 0.926349 0.395091 0.164916
C43   C     C_R   0.596296 0.926260 0.494678 0.032965
C44   C     C_R   0.669218 0.028449 0.592693 -0.204965
C45   C     C_R   0.477693 0.721448 0.407753 -0.163144
C46   C     C_R   0.671790 0.123754 0.593334 -0.205114
C47   C     C_R   0.602269 0.116327 0.495665 0.032543
C48   C     C_R   0.554653 0.020412 0.395693 0.166289
C49   C     C_3   0.442003 0.957440 0.295376 -0.530979
C50   C     C_3   0.437655 0.854625 0.294924 -0.527878
C51   C     C_R   0.973037 0.075212 0.119572 0.130138
C52   C     C_R   0.199070 0.503568 0.406917 -0.155348
C53   C     C_R   0.070073 0.072825 0.169843 0.047317
C54   C     C_R   0.067974 0.971530 0.136229 -0.209168
C55   C     C_R   0.974424 0.877218 0.042959 -0.186908
C56   C     C_R   0.815551 0.566323 0.592743 -0.134465
C57   C     C_R   0.882207 0.883645 0.983776 0.043722
C58   C     C_R   0.879657 0.981191 0.027000 0.130781
C59   C     C_3   0.806358 0.998422 0.071330 -0.498971
C60   C     C_3   0.907889 0.100434 0.171968 -0.477862
C61   C     C_R   0.433524 0.525238 0.748578 -0.124844
C62   C     C_R   0.277393 0.185166 0.251786 -0.129539
C63   C     C_R   0.174063 0.174647 0.226731 0.042389
C64   C     C_3   0.292722 0.499215 0.154850 -1.109359
C65   C     C_R   0.491174 0.401498 0.193415 -0.226570
C66   C     C_R   0.709211 0.800556 0.803793 -0.155048
C67   C     C_R   0.801245 0.709019 0.804674 -0.112600
H1    H     H_    0.120132 0.298537 0.241296 0.103390
H2    H     H_    0.169319 0.703790 0.360096 0.116795
H3    H     H_    0.559311 0.380006 0.758926 0.102207
H4    H     H_    0.874153 0.389410 0.194294 0.108265
H5    H     H_    0.874962 0.349064 0.019582 0.103121
H6    H     H_    0.853000 0.531215 0.322779 0.122904
H7    H     H_    0.204300 0.716239 0.672091 0.118856
H8    H     H_    0.944816 0.809311 0.613456 0.115157
H9    H     H_    0.978939 0.955903 0.782029 0.110251
H10   H     H_    0.106284 0.993995 0.965949 0.118513
H11   H     H_    0.194301 0.879647 0.981602 0.106501
H12   H     H_    0.878676 0.616639 0.678518 0.116538
H13   H     H_    0.160024 0.731023 0.814218 0.106277
H14   H     H_    0.286191 0.456721 0.817331 0.124912
H15   H     H_    0.486401 0.153914 0.324870 0.101421
H16   H     H_    0.271333 0.445994 0.968085 0.151232
H17   H     H_    0.494289 0.223953 0.978010 0.181796
H18   H     H_    0.342153 0.172931 0.901843 0.204078
H19   H     H_    0.508119 0.234413 0.826541 0.183488
H20   H     H_    0.356025 0.183206 0.749505 0.202292
H21   H     H_    0.712581 0.033428 0.670800 0.124754
H22   H     H_    0.717125 0.198724 0.671930 0.122969
H23   H     H_    0.516215 0.341845 0.165687 0.118502
H24   H     H_    0.379653 0.973896 0.312122 0.199528
H25   H     H_    0.444665 0.962256 0.223154 0.188373
H26   H     H_    0.372893 0.813506 0.311806 0.199819
H27   H     H_    0.324895 0.659893 0.673462 0.084463
H28   H     H_    0.436985 0.799956 0.222035 0.191558
H29   H     H_    0.141309 0.966518 0.174524 0.124539
H30   H     H_    0.978631 0.802576 0.012699 0.127453
H31   H     H_    0.747169 0.016391 0.021205 0.181170
H32   H     H_    0.768417 0.932998 0.088867 0.200753
H33   H     H_    0.907544 0.177488 0.180175 0.183253
H34   H     H_    0.676548 0.852392 0.831892 0.097488
H35   H     H_    0.929698 0.094890 0.248604 0.200826
H36   H     H_    0.656311 0.321787 0.675496 0.083798
H37   H     H_    0.146761 0.473508 0.321056 0.121166
H38   H     H_    0.379212 0.556611 0.758359 0.094273
H39   H     H_    0.299511 0.121563 0.241474 0.092663
H40   H     H_    0.454419 0.697925 0.323270 0.135402
H41   H     H_    0.305995 0.563627 0.130889 0.241848
H42   H     H_    0.219466 0.419024 0.086066 0.258488
H43   H     H_    0.274235 0.524148 0.222570 0.266919
H44   H     H_    0.853551 0.676585 0.833060 0.087044
H45   H     H_    0.617363 0.879733 0.677010 0.091444
H46   H     H_    0.700157 0.446132 0.322869 0.095572
H47   H     H_    0.022307 0.484212 0.014343 0.100065
H48   H     H_    0.168654 0.661384 0.184407 0.112934
N1    N     N_R   0.291070 0.347930 0.293870 -0.036357
N2    N     N_R   0.497240 0.291100 0.443210 -0.036429
N3    N     N_R   0.347890 0.554050 0.556810 -0.038107
N4    N     N_R   0.554050 0.347900 0.556830 -0.037834
N5    N     N_R   0.291070 0.497250 0.443190 -0.039431
N6    N     N_R   0.497240 0.554030 0.706140 -0.040128
N7    N     N_R   0.347890 0.291110 0.293870 -0.037600
N8    N     N_R   0.445950 0.652100 0.443170 -0.038998
N9    N     N_R   0.708930 0.502750 0.556810 -0.042539
N10   N     N_R   0.502760 0.445970 0.293860 -0.051314
N11   N     N_R   0.652110 0.708890 0.706130 -0.038815
N12   N     N_R   0.708930 0.652070 0.706130 -0.041463
N13   N     N_R   0.445950 0.502780 0.293850 -0.054791
N14   N     N_R   0.502760 0.708900 0.556790 -0.039185
N15   N     N_R   0.652110 0.445950 0.443190 -0.038813
N16   N     N_R   0.554050 0.497220 0.706150 -0.041154
Ni1   Ni    Ni4+2 0.369690 0.500010 0.369700 0.211517
Ni2   Ni    Ni4+2 0.630310 0.499990 0.630300 0.208381
Ni3   Ni    Ni4+2 0.500000 0.369720 0.369720 0.206467
Ni4   Ni    Ni4+2 0.500000 0.630280 0.630280 0.207525

loop_
_geom_bond_atom_site_label_1
_geom_bond_atom_site_label_2
_ccdc_geom_bond_type
N10   Ni3   S    
C25   C31   A    
N11   N12   A    
C6    C45   A    
N8    Ni1   S    
C27   C29   A    
C53   C63   S    
C59   H32   S    
C14   H4    S    
C35   C36   A    
C3    C6    A    
C4    H3    S    
C35   H14   S    
C39   C41   S    
C46   H22   S    
C53   C54   A    
C45   N8    A    
C41   H19   S    
C26   C27   A    
N4    Ni2   S    
C56   H12   S    
N1    N7    A    
N9    Ni2   S    
C18   C24   A    
C56   N9    A    
C28   H27   S    
C36   C37   A    
C37   C38   A    
C49   H24   S    
C39   H17   S    
N2    N4    A    
C30   C31   A    
C60   H35   S    
C50   H28   S    
C10   C17   A    
C23   C40   A    
N13   Ni1   S    
C1    H1    S    
C61   N6    A    
C18   C19   A    
C46   C47   A    
C27   H10   S    
C9    C66   A    
N7    Ni3   S    
C13   C14   A    
N14   Ni4   S    
C29   H11   S    
C19   C20   A    
C44   C46   A    
N10   N13   A    
C26   H9    S    
C32   C41   S    
C1    N1    A    
C32   C38   A    
C4    C12   A    
C61   H38   S    
C54   H29   S    
C30   H13   S    
C28   C34   A    
C59   C60   S    
C3    N14   A    
C21   C22   A    
N8    N14   A    
C66   H34   S    
N15   Ni3   S    
C7    C56   A    
N6    N16   A    
C22   C34   S    
N2    Ni3   S    
C1    C63   A    
C2    C64   S    
C17   H47   S    
C64   H41   S    
C4    N16   A    
C65   H23   S    
C41   H20   S    
C23   C47   S    
C64   H42   S    
C5    C7    A    
N16   Ni2   S    
C58   C59   S    
C21   H7    S    
C66   N11   A    
C13   C24   S    
C25   H8    S    
C65   N10   A    
C43   C44   A    
C9    C67   A    
C29   C30   A    
C15   H5    S    
C67   N12   A    
C64   H43   S    
C47   C48   A    
N1    Ni1   S    
C3    H45   S    
C55   H30   S    
C62   C63   A    
C16   H15   S    
N9    N15   A    
C51   C58   A    
C42   C48   A    
N6    Ni4   S    
C42   C50   S    
C52   N5    A    
C67   H44   S    
C48   C49   S    
N11   Ni4   S    
C16   C23   A    
C7    C19   S    
C6    C43   S    
C55   C57   A    
C22   C24   A    
C8    C37   S    
C39   H18   S    
C49   H25   S    
C62   N7    A    
C15   C17   A    
C54   C55   A    
C52   H37   S    
C5    H46   S    
N5    Ni1   S    
C2    C8    A    
N12   Ni2   S    
C60   H33   S    
C11   H2    S    
C50   H26   S    
C62   H39   S    
C18   H6    S    
C34   C52   A    
C32   C33   A    
C25   C26   A    
C28   N3    A    
C16   N2    A    
C40   H36   S    
C12   C61   A    
C11   C13   A    
C57   C58   A    
C38   C39   S    
C33   C35   A    
C9    C57   S    
N3    N5    A    
C10   C11   A    
C10   H48   S    
C5    N15   A    
C8    C65   A    
C40   N4    A    
C20   C21   A    
C49   C50   S    
C42   C43   A    
C59   H31   S    
C14   C15   A    
C51   C60   S    
C36   H16   S    
C51   C53   A    
C12   C33   S    
C44   H21   S    
N3    Ni4   S    
C45   H40   S    
C20   C31   S    
C2    N13   A    
