data_mof_unit_48256.cif
_audit_creation_date              2012-12-11T17:57:03-0500
_audit_creation_method            fapswitch 2.2
_symmetry_space_group_name_H-M    P1
_symmetry_Int_Tables_number       1
_space_group_crystal_system       triclinic
_cell_length_a                    8.182252
_cell_length_b                    12.707008
_cell_length_c                    17.312387
_cell_angle_alpha                 98.643309
_cell_angle_beta                  96.793651
_cell_angle_gamma                 98.999088
_cell_volume                      1739.02353262

loop_
_atom_site_label
_atom_site_type_symbol
_atom_type_description
_atom_site_fract_x
_atom_site_fract_y
_atom_site_fract_z
_atom_type_partial_charge
Ba1   Ba    Ba6+2 0.843240 0.548600 0.461650 1.713606
Ba2   Ba    Ba6+2 0.346590 0.451490 0.538360 1.689876
C1    C     C_3   0.646388 0.896582 0.194935 -0.315407
C2    C     C_3   0.344464 0.594670 0.224943 -0.045247
C3    C     C_2   0.291287 0.554642 0.138477 -0.026424
C4    C     C_3   0.148324 0.829619 0.254148 0.277125
C5    C     C_2   0.142436 0.489297 0.111767 0.026925
C6    C     C_2   0.045679 0.441765 0.171059 -0.147193
C7    C     C_1   0.105410 0.463283 0.247978 0.065967
C8    C     C_R   0.887623 0.455105 0.860547 -0.134020
C9    C     C_R   0.820852 0.443475 0.781171 0.008236
C10   C     C_R   0.079984 0.539453 0.752025 0.048835
C11   C     C_R   0.147651 0.552795 0.832294 -0.105439
C12   C     C_3   0.623910 0.816676 0.251724 0.334340
C13   C     C_R   0.053499 0.507981 0.886946 0.004531
C14   C     C_2   0.071864 0.465881 0.025620 -0.075095
C15   C     C_2   0.127221 0.525529 0.971815 -0.041324
C16   C     C_3   0.075679 0.836389 0.170342 0.181789
C17   C     C_R   0.918744 0.481360 0.726896 -0.281560
C18   C     C_R   0.771513 0.184567 0.539678 -0.256010
C19   C     C_R   0.426079 0.807153 0.466184 -0.285492
C20   C     C_R   0.391125 0.985441 0.444734 -0.100420
C21   C     C_R   0.327638 0.876137 0.436570 -0.040484
C22   C     C_R   0.583122 0.848267 0.511123 0.071144
C23   C     C_3   0.366051 0.212768 0.293462 0.620597
C24   C     C_R   0.648118 0.961140 0.522452 -0.060794
C25   C     C_R   0.550592 0.029928 0.487610 -0.054161
C26   C     C_R   0.613912 0.141795 0.497083 0.036305
C27   C     C_R   0.871919 0.117540 0.570495 -0.009237
C28   C     C_3   0.265031 0.785103 0.631193 0.291707
C29   C     C_R   0.808503 0.007374 0.565185 -0.104965
C30   C     C_3   0.319390 0.906958 0.651289 -0.341749
C31   C     C_3   0.930084 0.216350 0.371285 0.287326
C32   C     C_3   0.886083 0.093784 0.354050 -0.404390
C33   C     C_3   0.779135 0.706652 0.698656 0.299856
C34   C     C_3   0.331024 0.144046 0.210428 -0.222938
C35   C     C_3   0.818207 0.743611 0.787647 -0.351626
C36   C     C_3   0.173041 0.164243 0.161654 -0.265687
C37   C     C_3   0.155494 0.109665 0.075159 -0.206922
C38   C     C_3   0.991225 0.122464 0.028792 -0.376093
C39   C     C_3   0.117141 0.239875 0.758159 0.371223
C40   C     C_3   0.149976 0.216086 0.841567 -0.323699
C41   C     C_3   0.604603 0.179764 0.730992 0.437350
C42   C     C_3   0.681389 0.114707 0.788348 0.204029
C43   C     C_2   0.244155 0.533884 0.277446 -0.130380
Cl1   Cl    Cl    0.439228 0.348808 0.285972 -0.713277
Cl2   Cl    Cl    0.528407 0.053527 0.841022 -0.681733
Cl3   Cl    Cl    0.219143 0.807694 0.103768 -0.794549
H1    H     H_    0.692612 0.854324 0.311176 0.058925
H2    H     H_    0.893175 0.686262 0.676146 0.001981
H3    H     H_    0.678819 0.634073 0.686112 0.063992
H4    H     H_    0.576354 0.963141 0.210020 0.094233
H5    H     H_    0.922467 0.814009 0.801903 0.140953
H6    H     H_    0.854989 0.677439 0.816976 0.062367
H7    H     H_    0.705997 0.767352 0.810929 0.154132
H8    H     H_    0.488591 0.800010 0.256219 -0.060586
H9    H     H_    0.597829 0.855362 0.133444 0.178049
H10   H     H_    0.248830 0.205125 0.319846 -0.005456
H11   H     H_    0.441204 0.161624 0.179417 0.151965
H12   H     H_    0.448150 0.926276 0.684125 0.142996
H13   H     H_    0.314098 0.057160 0.215828 0.095949
H14   H     H_    0.780380 0.931475 0.198612 0.093413
H15   H     H_    0.049303 0.918842 0.167853 0.046467
H16   H     H_    0.195054 0.318775 0.755622 0.082960
H17   H     H_    0.983099 0.245544 0.745221 -0.094810
H18   H     H_    0.285537 0.218315 0.858984 0.196482
H19   H     H_    0.107840 0.277474 0.883700 0.047224
H20   H     H_    0.080724 0.134752 0.844616 0.121360
H21   H     H_    0.703198 0.210760 0.697048 -0.199190
H22   H     H_    0.504285 0.125643 0.687766 0.062575
H23   H     H_    0.318250 0.942371 0.596720 0.071369
H24   H     H_    0.781294 0.169047 0.831730 0.038720
H25   H     H_    0.736924 0.050549 0.755385 0.014176
H26   H     H_    0.172957 0.746498 0.254622 0.007209
H27   H     H_    0.230692 0.592456 0.989656 0.126561
H28   H     H_    0.925533 0.389186 0.150564 0.089304
H29   H     H_    0.807791 0.426105 0.901186 0.081151
H30   H     H_    0.967574 0.399317 0.007176 0.068291
H31   H     H_    0.371223 0.587462 0.099167 0.083872
H32   H     H_    0.272771 0.598364 0.852136 0.102181
H33   H     H_    0.277256 0.560757 0.340660 0.067973
H34   H     H_    0.232894 0.943328 0.687768 0.177607
H35   H     H_    0.865461 0.471656 0.665489 0.069160
H36   H     H_    0.310302 0.034695 0.419544 0.088990
H37   H     H_    0.266117 0.889653 0.271871 -0.017803
H38   H     H_    0.888594 0.959139 0.592168 0.109238
H39   H     H_    0.821214 0.269628 0.543709 0.049977
H40   H     H_    0.374596 0.721970 0.459489 0.062506
H41   H     H_    0.957805 0.776890 0.151388 0.122262
H42   H     H_    0.363840 0.749064 0.604376 -0.002604
H43   H     H_    0.148373 0.766697 0.588490 0.067763
H44   H     H_    0.883375 0.085767 0.055132 0.155584
H45   H     H_    0.830176 0.249837 0.398799 0.024088
H46   H     H_    0.987032 0.209399 0.028891 0.126008
H47   H     H_    0.980424 0.080889 0.966783 0.150683
H48   H     H_    0.261212 0.146598 0.047492 0.155927
H49   H     H_    0.159104 0.022170 0.071641 0.192926
H50   H     H_    0.061832 0.132039 0.187731 0.137600
H51   H     H_    0.178169 0.252338 0.163519 0.147381
H52   H     H_    0.047515 0.239368 0.413260 0.072762
H53   H     H_    0.757193 0.068847 0.322003 0.123685
H54   H     H_    0.892869 0.060935 0.409805 0.096278
H55   H     H_    0.975172 0.059999 0.317896 0.128925
O1    O     O_2   0.825360 0.427200 0.308020 -0.389150
O2    O     O_2   0.209537 0.120559 0.558192 -0.486372
O3    O     O_3   0.158855 0.156893 0.704862 -0.584191
O4    O     O_3   0.099050 0.435020 0.406000 -0.502168
O5    O     O_3   0.588300 0.633530 0.539940 -0.485792
O6    O     O_2   0.332090 0.232110 0.462130 -0.486095
O7    O     O_3   0.492154 0.175720 0.338250 -0.663579
O8    O     O_2   0.486298 0.460276 0.781291 -0.491964
O9    O     O_3   0.534009 0.260625 0.773304 -0.577549
O10   O     O_3   0.623690 0.628090 0.355970 -0.455447
O11   O     O_2   0.647082 0.514072 0.216472 -0.417046
O12   O     O_3   0.727817 0.791263 0.664496 -0.635698
O13   O     O_3   0.948254 0.254664 0.300490 -0.636369
O14   O     O_3   0.687180 0.723487 0.223499 -0.585622
O15   O     O_2   0.857620 0.767930 0.537920 -0.476714
O16   O     O_3   0.055170 0.686660 0.395490 -0.479500
O17   O     O_2   0.996776 0.880496 0.452658 -0.478039
O18   O     O_3   0.033263 0.852950 0.305222 -0.611462
O19   O     O_2   0.364350 0.572830 0.692030 -0.458384
O20   O     O_3   0.090660 0.565070 0.594010 -0.513778
O21   O     O_3   0.566030 0.372000 0.644040 -0.477121
O22   O     O_3   0.239095 0.745408 0.700592 -0.611368
O23   O     O_3   0.601410 0.366560 0.460070 -0.417803
O24   O     O_3   0.134540 0.313430 0.604520 -0.488526
P1    P     P_3+3 0.996360 0.395990 0.320310 1.028661
P2    P     P_3+3 0.688190 0.753610 0.561600 0.973269
P3    P     P_3+3 0.105869 0.825521 0.397919 0.948158
P4    P     P_3+3 0.193350 0.604100 0.679700 0.987877
P5    P     P_3+3 0.092765 0.175408 0.608737 0.958827
P6    P     P_3+3 0.575224 0.611984 0.253972 1.050506
P7    P     P_3+3 0.511197 0.229145 0.439399 0.987406
P8    P     P_3+3 0.601313 0.385758 0.746469 0.974849

loop_
_geom_bond_atom_site_label_1
_geom_bond_atom_site_label_2
_ccdc_geom_bond_type
C12   H8    S    
Ba2   O6    S    
C7    C43   D    
C10   P4    S    
C39   C40   S    
Ba1   P1    S    
C28   O22   S    
O18   P3    S    
C36   H50   S    
C34   H11   S    
O14   P6    S    
C5    C6    S    
Ba2   O20   S    
O3    P5    S    
C9    C17   A    
C24   C25   A    
C32   H54   S    
C4    H37   S    
O17   P3    D    
C33   C35   S    
C22   C24   A    
O4    P1    S    
Ba1   P2    S    
C8    C13   A    
C36   C37   S    
C16   H15   S    
C37   H49   S    
C27   P5    S    
C18   H39   S    
Ba2   O4    S    
C6    H28   S    
O16   P3    S    
C35   H7    S    
Ba1   Ba2   S    
Ba1   O16   S    
Ba2   O5    S    
O24   P5    S    
C22   P2    S    
C6    C7    D    
C33   O12   S    
C3    H31   S    
C42   Cl2   S    
C28   H42   S    
C2    C43   S    
C35   H5    S    
Ba2   O24   S    
C11   H32   S    
O13   P1    S    
C24   C29   A    
C41   H21   S    
C29   H38   S    
O10   P6    S    
C40   H20   S    
Ba1   O10   S    
C17   H35   S    
C8    H29   S    
C4    H26   S    
C30   H23   S    
C18   C27   A    
Ba2   O19   S    
C4    C16   S    
C32   H53   S    
Ba2   P4    S    
C39   O3    S    
C7    P1    S    
Ba1   O23   S    
C37   C38   S    
C3    C5    D    
O2    P5    D    
C28   H43   S    
C39   H17   S    
C18   C26   A    
C21   P3    S    
C31   H45   S    
C20   H36   S    
C41   C42   S    
Ba1   O20   S    
C9    P8    S    
O22   P4    S    
O1    P1    D    
C12   O14   S    
C33   H2    S    
C31   C32   S    
C38   H44   S    
Ba1   O1    S    
O5    P2    S    
C1    C12   S    
C23   O7    S    
Ba1   O4    S    
C35   H6    S    
C1    H9    S    
C5    C14   S    
C41   H22   S    
C20   C25   A    
C19   C21   A    
C33   H3    S    
C40   H19   S    
C26   P7    S    
O7    P7    S    
C23   H10   S    
C30   H12   S    
O9    P8    S    
C34   H13   S    
Ba2   O23   S    
O19   P4    D    
C40   H18   S    
O12   P2    S    
C1    H14   S    
C13   C15   S    
C31   O13   S    
O21   P8    S    
O20   P4    S    
O6    P7    D    
C16   H41   S    
C43   H33   S    
C38   H46   S    
C36   H51   S    
C16   Cl3   S    
C1    H4    S    
Ba2   O21   S    
C30   H34   S    
C32   H55   S    
C4    O18   S    
C31   H52   S    
C11   C13   A    
C27   C29   A    
O15   P2    D    
C23   C34   S    
C28   C30   S    
O8    P8    D    
C14   C15   D    
C10   C17   A    
C34   C36   S    
O11   P6    D    
C42   H24   S    
C14   H30   S    
Ba1   O15   S    
C42   H25   S    
C37   H48   S    
C19   H40   S    
C8    C9    A    
Ba1   O5    S    
C12   H1    S    
C2    C3    S    
C10   C11   A    
O23   P7    S    
C41   O9    S    
C19   C22   A    
C25   C26   A    
C15   H27   S    
C20   C21   A    
C38   H47   S    
C39   H16   S    
C23   Cl1   S    
C2    P6    S    
