data_mof_unit_10307.cif
_audit_creation_date              2012-12-10T19:45:49-0500
_audit_creation_method            fapswitch 2.2
_symmetry_space_group_name_H-M    P1
_symmetry_Int_Tables_number       1
_space_group_crystal_system       triclinic
_cell_length_a                    10.883519
_cell_length_b                    14.724283
_cell_length_c                    14.831343
_cell_angle_alpha                 64.341454
_cell_angle_beta                  103.959373
_cell_angle_gamma                 103.101963
_cell_volume                      2058.71549973

loop_
_atom_site_label
_atom_site_type_symbol
_atom_type_description
_atom_site_fract_x
_atom_site_fract_y
_atom_site_fract_z
_atom_type_partial_charge
C1    C     C_R   0.478152 0.120165 0.312207 0.800662
C2    C     C_R   0.521189 0.879849 0.687841 0.754449
C3    C     C_R   0.869498 0.994807 0.502648 -0.252685
C4    C     C_R   0.127230 0.994659 0.504945 -0.270066
C5    C     C_R   0.902907 0.963109 0.435847 -0.112521
C6    C     C_R   0.092327 0.031172 0.567812 -0.158795
C7    C     C_R   0.458843 0.188225 0.204008 -0.075224
C8    C     C_R   0.519286 0.811595 0.795178 -0.091313
C9    C     C_R   0.415702 0.215357 0.026883 -0.199924
C10   C     C_R   0.491278 0.780921 0.963660 -0.165939
C11   C     C_R   0.435142 0.149991 0.128917 -0.196631
C12   C     C_R   0.515440 0.848496 0.866972 -0.176363
C13   C     C_R   0.461167 0.292423 0.175648 -0.189410
C14   C     C_R   0.505809 0.706756 0.823154 -0.195850
C15   C     C_R   0.433475 0.358709 0.073289 0.086451
C16   C     C_R   0.468934 0.637497 0.916369 0.083375
C17   C     C_R   0.416437 0.319506 0.998639 0.088889
C18   C     C_R   0.466307 0.675816 0.988463 0.076780
C19   C     C_R   0.429933 0.464016 0.043081 -0.112741
C20   C     C_R   0.437353 0.531186 0.940642 -0.113991
C21   C     C_R   0.406076 0.488975 0.866345 0.492023
C22   C     C_R   0.412442 0.504392 0.109839 0.488362
C23   C     C_R   0.262099 0.999297 0.500878 0.851751
C24   C     C_R   0.736830 0.999476 0.499791 0.850892
C25   C     C_R   0.398854 0.384389 0.896524 -0.308676
C26   C     C_R   0.434019 0.609196 0.082963 -0.307768
C27   C     C_R   0.718591 0.287364 0.664507 -0.409484
C28   C     C_R   0.285943 0.715413 0.332012 -0.413023
C29   C     C_R   0.678221 0.201051 0.641598 0.735469
C30   C     C_R   0.321411 0.799784 0.358528 0.700725
C31   C     C_R   0.522240 0.287553 0.506178 -0.090489
C32   C     C_R   0.482804 0.715099 0.490226 -0.063919
C33   C     C_R   0.553952 0.374529 0.530550 -0.016201
C34   C     C_R   0.455918 0.630801 0.462419 0.025903
C35   C     C_R   0.655790 0.372820 0.610707 0.094714
C36   C     C_R   0.353544 0.632290 0.382561 0.130120
C37   C     C_R   0.488376 0.462050 0.479541 0.091488
C38   C     C_R   0.525701 0.545574 0.510560 0.083045
C39   C     C_R   0.630739 0.540626 0.588940 -0.242923
C40   C     C_R   0.384099 0.467368 0.400780 -0.106728
C41   C     C_R   0.694070 0.455880 0.637836 -0.187998
C42   C     C_R   0.318924 0.550990 0.352908 -0.122673
C43   C     C_R   0.347130 0.115088 0.752992 -0.196668
C44   C     C_R   0.701675 0.032398 0.173970 -0.295862
C45   C     C_R   0.265477 0.050646 0.710113 0.222728
C46   C     C_R   0.788507 0.041350 0.257555 0.192173
C47   C     C_R   0.183301 0.093142 0.617762 0.103785
C48   C     C_R   0.810168 0.953934 0.347193 0.157531
C49   C     C_R   0.179859 0.198143 0.572884 -0.178829
C50   C     C_R   0.743234 0.858747 0.351994 -0.239928
C51   C     C_R   0.254699 0.261899 0.618366 0.530197
C52   C     C_R   0.659536 0.849633 0.266632 0.548150
C53   C     C_R   0.342903 0.220022 0.707519 -0.299428
C54   C     C_R   0.637184 0.937349 0.178868 -0.230214
C55   C     C_R   0.963831 0.020334 0.574081 0.441917
C56   C     C_R   0.030334 0.951965 0.445647 0.453970
Cu1   Cu    Cu3+1 0.466270 0.918260 0.475690 0.984791
Cu2   Cu    Cu3+1 0.533730 0.081740 0.524310 0.996733
H1    H     H_    0.408646 0.267513 0.741903 0.141786
H2    H     H_    0.569954 0.931737 0.113900 0.139406
H3    H     H_    0.400494 0.184529 0.969997 0.131905
H4    H     H_    0.487574 0.810947 0.017851 0.143974
H5    H     H_    0.773301 0.454924 0.698615 0.135405
H6    H     H_    0.239234 0.551369 0.292632 0.133734
H7    H     H_    0.557446 0.719682 0.551213 0.141459
H8    H     H_    0.448007 0.283124 0.444923 0.157640
H9    H     H_    0.797919 0.287590 0.724760 0.145943
H10   H     H_    0.206613 0.713961 0.272206 0.133397
H11   H     H_    0.666587 0.601124 0.614803 0.129366
H12   H     H_    0.347202 0.405884 0.376948 0.166805
H13   H     H_    0.412880 0.083672 0.822634 0.142634
H14   H     H_    0.683924 0.099419 0.105103 0.159946
H15   H     H_    0.115254 0.230686 0.502646 0.152414
H16   H     H_    0.753754 0.792383 0.422452 0.121480
H17   H     H_    0.379543 0.353548 0.839670 0.141389
H18   H     H_    0.422795 0.638372 0.135831 0.185542
H19   H     H_    0.524347 0.680745 0.770684 0.202036
H20   H     H_    0.489084 0.321411 0.234195 0.201525
H21   H     H_    0.525914 0.929345 0.847325 0.164761
H22   H     H_    0.434025 0.069936 0.148919 0.167063
N1    N     N_R   0.584450 0.204570 0.560790 -0.223075
N2    N     N_R   0.415550 0.795430 0.439210 -0.225958
O1    O     O_R   0.455540 0.022090 0.338120 -0.534377
O2    O     O_R   0.544460 0.977910 0.661880 -0.540394
O3    O     O_R   0.512510 0.160150 0.379180 -0.604522
O4    O     O_R   0.487490 0.839850 0.620820 -0.597682
O5    O     O_R   0.291160 0.930970 0.479480 -0.516888
O6    O     O_R   0.708840 0.069030 0.520520 -0.505528
O7    O     O_R   0.348130 0.069020 0.520540 -0.596634
O8    O     O_R   0.651870 0.930980 0.479460 -0.612184
O9    O     O_3   0.374723 0.546942 0.763916 -0.606385
C57   C     C_3   0.249611 0.570339 0.744566 -0.377823
H23   H     H_    0.242440 0.617317 0.784483 0.178929
H24   H     H_    0.178753 0.499984 0.765628 0.156236
H25   H     H_    0.224328 0.615707 0.662125 0.180789
O10   O     O_3   0.363264 0.443452 0.197987 -0.615179
C58   C     C_3   0.229572 0.420810 0.172708 -0.374759
H26   H     H_    0.204405 0.377625 0.123510 0.179616
H27   H     H_    0.183477 0.491282 0.135594 0.163399
H28   H     H_    0.189627 0.371940 0.243369 0.186725
O11   O     O_3   0.259305 0.885594 0.310143 -0.514713
C59   C     C_3   0.215325 0.909099 0.205929 -0.312223
H29   H     H_    0.197636 0.989528 0.168469 0.199379
H30   H     H_    0.122522 0.861797 0.194705 0.153577
H31   H     H_    0.287208 0.901478 0.168282 0.135244
O12   O     O_3   0.736646 0.114021 0.695411 -0.512414
C60   C     C_3   0.750653 0.085155 0.801176 -0.349365
H32   H     H_    0.756176 0.002446 0.840068 0.176833
H33   H     H_    0.667982 0.098431 0.823847 0.127578
H34   H     H_    0.841509 0.124836 0.828477 0.165632
N3    N     N_3   0.265552 0.943066 0.762277 -0.606329
H35   H     H_    0.175191 0.909644 0.781844 0.210638
H36   H     H_    0.281560 0.915121 0.712952 0.207569
N4    N     N_3   0.853814 0.139275 0.251929 -0.604053
H37   H     H_    0.904862 0.170468 0.191413 0.218464
H38   H     H_    0.784954 0.185946 0.235497 0.211412
O13   O     O_3   0.242179 0.364536 0.568153 -0.603787
C61   C     C_3   0.257631 0.412037 0.635175 -0.279059
H39   H     H_    0.360688 0.430724 0.661780 0.202874
H40   H     H_    0.204151 0.365599 0.699551 0.153497
H41   H     H_    0.218170 0.485036 0.592709 0.195419
O14   O     O_3   0.590887 0.757283 0.269302 -0.596034
C62   C     C_3   0.675624 0.688497 0.289703 -0.352873
H42   H     H_    0.723722 0.661538 0.370000 0.165657
H43   H     H_    0.747557 0.722117 0.237532 0.157820
H44   H     H_    0.619495 0.620636 0.277533 0.205073
O15   O     O_3   0.931989 0.039715 0.648303 -0.524175
C63   C     C_3   0.902300 0.945910 0.729185 -0.242339
H45   H     H_    0.953406 0.883851 0.738775 0.090608
H46   H     H_    0.797862 0.920270 0.718756 0.167227
H47   H     H_    0.930171 0.957412 0.800881 0.175353
O16   O     O_3   0.060148 0.910456 0.387212 -0.523769
C64   C     C_3   0.043983 0.803041 0.438754 -0.235713
H48   H     H_    0.026504 0.769164 0.382141 0.172621
H49   H     H_    0.962284 0.771279 0.481527 0.094193
H50   H     H_    0.132050 0.777396 0.492581 0.171452

loop_
_geom_bond_atom_site_label_1
_geom_bond_atom_site_label_2
_ccdc_geom_bond_type
C31   H8    S    
C63   H47   S    
O11   C59   S    
C27   C29   A    
C5    C56   A    
C36   C42   A    
C19   C20   A    
C18   C26   A    
C6    C55   A    
C49   H15   S    
C63   H45   S    
N4    H37   S    
C53   H1    S    
C62   H42   S    
C47   C49   A    
C54   H2    S    
C7    C11   A    
C40   H12   S    
C9    H3    S    
C28   H10   S    
C37   C40   A    
C50   H16   S    
C38   C39   A    
C62   H43   S    
O12   C60   S    
C12   H21   S    
Cu1   O4    S    
C59   H31   S    
C14   H19   S    
C61   H39   S    
C51   O13   S    
C52   O14   S    
C43   C53   A    
N3    H35   S    
C44   C46   A    
O16   C64   S    
C49   C51   A    
C64   H50   S    
C26   H18   S    
C60   H32   S    
C23   O7    A    
C44   H14   S    
C8    C12   A    
C48   C50   A    
C23   O5    A    
C4    C56   A    
C60   H33   S    
C3    C24   S    
C10   H4    S    
C3    C55   A    
C58   H27   S    
C52   C54   A    
C58   H26   S    
C45   C47   A    
C1    O3    A    
C5    C48   S    
C46   C48   A    
Cu1   O8    S    
C46   N4    S    
C19   C22   A    
C43   H13   S    
C39   C41   A    
Cu1   O1    S    
C6    C47   S    
Cu2   N1    S    
O9    C57   S    
C4    C23   S    
C62   H44   S    
C27   C35   A    
C57   H25   S    
C33   C37   A    
Cu1   O5    S    
C63   H46   S    
C25   H17   S    
C61   H41   S    
C32   C34   A    
C30   N2    A    
C15   C19   A    
C29   N1    A    
C37   C38   A    
Cu2   O2    S    
C24   O6    A    
C50   C52   A    
C16   C20   A    
O10   C58   S    
C57   H24   S    
C2    O2    A    
C39   H11   S    
N3    H36   S    
C59   H30   S    
C9    C11   A    
C56   O16   S    
C10   C12   A    
C4    C6    A    
C55   O15   S    
C13   C15   A    
C64   H48   S    
C60   H34   S    
C14   C16   A    
C29   O12   S    
C41   H5    S    
O15   C63   S    
Cu2   O3    S    
C42   H6    S    
C58   H28   S    
C21   O9    S    
C9    C17   A    
C15   C17   A    
C21   C25   A    
C13   H20   S    
C31   C33   A    
C8    C14   A    
C34   C38   A    
C22   O10   S    
C2    C8    S    
C3    C5    A    
C24   O8    A    
N4    H38   S    
C45   N3    S    
C1    O1    A    
C32   N2    A    
C31   N1    A    
C17   C25   A    
C28   C30   A    
C43   C45   A    
O13   C61   S    
Cu1   Cu2   S    
C10   C18   A    
C30   O11   S    
C40   C42   A    
C57   H23   S    
C33   C35   A    
C2    O4    A    
C34   C36   A    
C59   H29   S    
C35   C41   A    
Cu2   O7    S    
C61   H40   S    
C27   H9    S    
C11   H22   S    
C44   C54   A    
C7    C13   A    
C20   C21   A    
C28   C36   A    
C16   C18   A    
C22   C26   A    
C64   H49   S    
Cu1   N2    S    
C1    C7    S    
C51   C53   A    
O14   C62   S    
Cu2   O6    S    
C32   H7    S    
