data_mof_unit_23727.cif
_audit_creation_date              2012-12-11T14:33:48-0500
_audit_creation_method            fapswitch 2.2
_symmetry_space_group_name_H-M    P1
_symmetry_Int_Tables_number       1
_space_group_crystal_system       triclinic
_cell_length_a                    13.848577
_cell_length_b                    13.975073
_cell_length_c                    27.31544
_cell_angle_alpha                 89.975058
_cell_angle_beta                  90.087324
_cell_angle_gamma                 119.626082
_cell_volume                      4595.38167803

loop_
_atom_site_label
_atom_site_type_symbol
_atom_type_description
_atom_site_fract_x
_atom_site_fract_y
_atom_site_fract_z
_atom_type_partial_charge
C1    C     C_R   0.233894 0.787234 0.568750 0.539720
C2    C     C_R   0.212573 0.446476 0.568783 0.542672
C3    C     C_R   0.552815 0.765293 0.569023 0.539410
C4    C     C_3   0.659087 0.734269 0.790321 -0.212433
C5    C     C_3   0.243748 0.954093 0.783115 -0.212099
C6    C     C_3   0.055076 0.311288 0.785680 -0.212006
C7    C     C_3   0.639025 0.721582 0.734299 -0.213116
C8    C     C_3   0.260087 0.939014 0.728216 -0.212840
C9    C     C_3   0.072533 0.345749 0.731040 -0.212807
C10   C     C_1   0.706750 0.862422 0.860207 -0.078374
C11   C     C_1   0.113319 0.881201 0.852491 -0.077772
C12   C     C_1   0.114316 0.230679 0.852168 -0.078146
C13   C     C_1   0.628831 0.814519 0.659034 -0.075882
C14   C     C_1   0.176884 0.819450 0.656252 -0.076171
C15   C     C_1   0.178568 0.358121 0.656314 -0.076293
C16   C     C_1   0.601182 0.796195 0.616738 -0.017534
C17   C     C_1   0.199025 0.806420 0.615123 -0.017838
C18   C     C_1   0.192962 0.393050 0.615180 -0.018001
C19   C     C_R   0.064826 0.150298 0.095968 0.579372
C20   C     C_R   0.777467 0.884045 0.088366 0.547468
C21   C     C_R   0.116491 0.893635 0.088140 0.560511
C22   C     C_R   0.069306 0.160345 0.943229 0.540360
C23   C     C_R   0.779552 0.887072 0.950807 0.542151
C24   C     C_R   0.090640 0.929752 0.943372 0.537227
C25   C     C_R   0.618588 0.895726 0.361539 -0.133054
C26   C     C_R   0.097067 0.732562 0.362896 -0.134662
C27   C     C_R   0.264298 0.357508 0.363822 -0.135465
C28   C     C_R   0.644863 0.911303 0.311898 0.014214
C29   C     C_R   0.080468 0.744065 0.313228 0.014307
C30   C     C_R   0.241311 0.306575 0.317735 0.013952
C31   C     C_R   0.681107 0.929150 0.210382 0.017126
C32   C     C_R   0.060551 0.760010 0.211562 0.016971
C33   C     C_R   0.200688 0.225709 0.221011 0.016977
C34   C     C_R   0.232473 0.788347 0.431829 0.547595
C35   C     C_R   0.211685 0.444482 0.431381 0.549644
C36   C     C_R   0.555610 0.767218 0.431911 0.548578
C37   C     C_R   0.653619 0.000908 0.234523 -0.137999
C38   C     C_R   0.977354 0.670917 0.237619 -0.127764
C39   C     C_R   0.303052 0.256562 0.243611 -0.123969
C40   C     C_R   0.635314 0.991896 0.285026 -0.130933
C41   C     C_R   0.987885 0.662282 0.288118 -0.128861
C42   C     C_R   0.323356 0.297019 0.291592 -0.128796
C43   C     C_R   0.704080 0.939569 0.160117 -0.150332
C44   C     C_R   0.050681 0.771121 0.161177 -0.135433
C45   C     C_R   0.182885 0.194976 0.171530 -0.128774
C46   C     C_R   0.728783 0.864758 0.137081 -0.003137
C47   C     C_R   0.135374 0.861322 0.136253 -0.005051
C48   C     C_R   0.082775 0.172446 0.148638 -0.008870
C49   C     C_R   0.658804 0.744847 0.364120 -0.131464
C50   C     C_R   0.265889 0.910940 0.361996 -0.128512
C51   C     C_R   0.076143 0.327900 0.368045 -0.130414
C52   C     C_R   0.682881 0.757634 0.314565 0.013454
C53   C     C_R   0.254150 0.920598 0.312280 0.013851
C54   C     C_R   0.052645 0.278879 0.321985 0.011737
C55   C     C_R   0.673434 0.839476 0.288025 0.063956
C56   C     C_R   0.162219 0.836022 0.287473 0.063331
C57   C     C_R   0.136122 0.270218 0.296173 0.062621
C58   C     C_R   0.707921 0.684262 0.290537 -0.126874
C59   C     C_R   0.337447 0.009783 0.286537 -0.127128
C60   C     C_R   0.949176 0.245044 0.300074 -0.129217
C61   C     C_R   0.719792 0.689338 0.240050 -0.127164
C62   C     C_R   0.331658 0.013500 0.235931 -0.129465
C63   C     C_R   0.930232 0.207845 0.251877 -0.122542
C64   C     C_R   0.709937 0.769830 0.213513 0.010963
C65   C     C_R   0.240594 0.930127 0.210977 0.014294
C66   C     C_R   0.013359 0.201533 0.225405 0.016569
C67   C     C_3   0.564770 0.853415 0.737395 -0.212983
C68   C     C_3   0.141927 0.733907 0.738695 -0.214637
C69   C     C_3   0.271942 0.390585 0.737024 -0.215142
C70   C     C_R   0.688624 0.846585 0.237325 0.065261
C71   C     C_R   0.154223 0.842032 0.236670 0.063825
C72   C     C_R   0.116121 0.230647 0.247785 0.062032
C73   C     C_R   0.724469 0.776424 0.163512 -0.123014
C74   C     C_R   0.232723 0.936105 0.160797 -0.132627
C75   C     C_R   0.997190 0.171744 0.176195 -0.129402
C76   C     C_R   0.618721 0.807948 0.386744 -0.003364
C77   C     C_R   0.193363 0.813171 0.386453 -0.003719
C78   C     C_R   0.183223 0.372440 0.388155 -0.004907
C79   C     C_3   0.768643 0.924451 0.723117 -0.216212
C80   C     C_3   0.054029 0.847182 0.714045 -0.213855
C81   C     C_3   0.123829 0.200197 0.712670 -0.213650
C82   C     C_3   0.788274 0.937205 0.779238 -0.214366
C83   C     C_3   0.036483 0.862831 0.768866 -0.216046
C84   C     C_3   0.106443 0.166171 0.767288 -0.218389
C85   C     C_1   0.734158 0.873015 0.902572 -0.028784
C86   C     C_1   0.102545 0.901690 0.894249 -0.023881
C87   C     C_1   0.095888 0.199616 0.893980 -0.027772
C88   C     C_3   0.650464 0.828717 0.711982 0.072385
C89   C     C_3   0.158093 0.834330 0.707871 0.072030
C90   C     C_3   0.162170 0.324127 0.707835 0.072282
C91   C     C_3   0.584719 0.865924 0.793564 -0.215534
C92   C     C_3   0.123923 0.750034 0.793560 -0.212645
C93   C     C_3   0.254377 0.356077 0.791739 -0.212434
C94   C     C_3   0.684468 0.850255 0.807295 0.073474
C95   C     C_3   0.128714 0.862158 0.800917 0.072299
C96   C     C_3   0.132446 0.265537 0.800650 0.071852
Cr1   Cr    Cr6+3 0.164410 0.584450 0.499910 1.016987
Cr2   Cr    Cr6+3 0.415550 0.579960 0.499910 1.017466
Cr3   Cr    Cr6+3 0.420040 0.835590 0.499910 1.014457
Cr4   Cr    Cr6+3 0.155170 0.075460 0.019960 1.015201
Cr5   Cr    Cr6+3 0.924540 0.079710 0.019960 1.005456
Cr6   Cr    Cr6+3 0.920290 0.844830 0.019960 1.007465
H1    H     H_    0.601020 0.948855 0.805313 0.112075
H2    H     H_    0.042022 0.681882 0.805821 0.114334
H3    H     H_    0.311792 0.325186 0.802207 0.112571
H4    H     H_    0.508694 0.803916 0.812935 0.111174
H5    H     H_    0.188972 0.746383 0.816156 0.114385
H6    H     H_    0.275164 0.429142 0.815006 0.115415
H7    H     H_    0.729757 0.720911 0.799810 0.110884
H8    H     H_    0.252182 0.036434 0.789070 0.104434
H9    H     H_    0.966737 0.247668 0.791728 0.108603
H10   H     H_    0.706356 0.006946 0.139492 0.104467
H11   H     H_    0.975607 0.713359 0.142004 0.113990
H12   H     H_    0.248137 0.192870 0.150498 0.121937
H13   H     H_    0.588945 0.945762 0.379231 0.127324
H14   H     H_    0.039675 0.657870 0.382042 0.122949
H15   H     H_    0.346798 0.390745 0.379356 0.124464
H16   H     H_    0.646307 0.063852 0.214385 0.098165
H17   H     H_    0.905197 0.607220 0.218848 0.098360
H18   H     H_    0.368689 0.252949 0.223634 0.100519
H19   H     H_    0.612487 0.047007 0.302951 0.099542
H20   H     H_    0.924307 0.591342 0.307422 0.100564
H21   H     H_    0.404295 0.323843 0.307713 0.101749
H22   H     H_    0.741659 0.716914 0.145847 0.129338
H23   H     H_    0.298782 0.005329 0.141457 0.123260
H24   H     H_    0.919022 0.151640 0.158723 0.117866
H25   H     H_    0.736839 0.630538 0.221741 0.098349
H26   H     H_    0.397762 0.081976 0.216354 0.094368
H27   H     H_    0.852208 0.188104 0.234680 0.110512
H28   H     H_    0.714803 0.620901 0.310557 0.101013
H29   H     H_    0.408736 0.074678 0.305355 0.096958
H30   H     H_    0.884557 0.251716 0.319487 0.102926
H31   H     H_    0.571386 0.930383 0.722244 0.112604
H32   H     H_    0.069085 0.657336 0.724794 0.112113
H33   H     H_    0.337849 0.376306 0.721293 0.112561
H34   H     H_    0.660991 0.678544 0.383841 0.127716
H35   H     H_    0.338824 0.975065 0.380274 0.130886
H36   H     H_    0.012453 0.337324 0.386865 0.129847
H37   H     H_    0.831934 0.908398 0.705748 0.108360
H38   H     H_    0.063874 0.919395 0.692737 0.109540
H39   H     H_    0.044773 0.150446 0.692235 0.110010
H40   H     H_    0.779178 0.002619 0.707508 0.111181
H41   H     H_    0.979353 0.773045 0.699587 0.112251
H42   H     H_    0.186975 0.182347 0.696489 0.110998
H43   H     H_    0.808545 0.021633 0.790565 0.109054
H44   H     H_    0.953421 0.796059 0.780761 0.108780
H45   H     H_    0.161457 0.132571 0.777277 0.107710
H46   H     H_    0.860679 0.927031 0.788737 0.101270
H47   H     H_    0.036954 0.941602 0.773695 0.099438
H48   H     H_    0.019192 0.100548 0.772923 0.101599
H49   H     H_    0.554549 0.651192 0.726799 0.110862
H50   H     H_    0.336651 0.932764 0.723548 0.110862
H51   H     H_    0.098175 0.434636 0.728024 0.110185
H52   H     H_    0.700000 0.702073 0.717005 0.111878
H53   H     H_    0.272249 0.012730 0.707448 0.112194
H54   H     H_    0.992532 0.298665 0.710950 0.113488
H55   H     H_    0.584332 0.669966 0.809638 0.113154
H56   H     H_    0.310724 0.951833 0.804806 0.115265
H57   H     H_    0.072467 0.383601 0.808841 0.116778
O1    O     O_R   0.137150 0.468200 0.553200 -0.511718
O2    O     O_R   0.531800 0.668950 0.553200 -0.511752
O3    O     O_R   0.331050 0.862850 0.553200 -0.510212
O4    O     O_R   0.179100 0.982980 0.967000 -0.504851
O5    O     O_R   0.017020 0.196120 0.967000 -0.483810
O6    O     O_R   0.803880 0.820900 0.967000 -0.511607
O7    O     O_R   0.173970 0.688730 0.549930 -0.500789
O8    O     O_R   0.311270 0.485240 0.549930 -0.500073
O9    O     O_R   0.514760 0.826030 0.549930 -0.498841
O10   O     O_R   0.140110 0.470540 0.446010 -0.521702
O11   O     O_R   0.529460 0.669570 0.446010 -0.521579
O12   O     O_R   0.330430 0.859890 0.446010 -0.524060
O13   O     O_R   0.176710 0.690910 0.450560 -0.502089
O14   O     O_R   0.309090 0.485800 0.450560 -0.501236
O15   O     O_R   0.514200 0.823290 0.450560 -0.503992
O16   O     O_3   0.333333 0.666667 0.499990 -0.262717
O17   O     O_R   0.176750 0.985260 0.074180 -0.529916
O18   O     O_R   0.014740 0.191490 0.074180 -0.494594
O19   O     O_R   0.808510 0.823250 0.074180 -0.517347
O20   O     O_R   0.146100 0.172630 0.068980 -0.479216
O21   O     O_R   0.827370 0.973470 0.068980 -0.517686
O22   O     O_R   0.026530 0.853900 0.068980 -0.488802
O23   O     O_3   0.000000 1.000000 0.020040 -0.286007
O24   O     O_R   0.148270 0.170520 0.969620 -0.490562
O25   O     O_R   0.829480 0.977750 0.969620 -0.519820
O26   O     O_R   0.022250 0.851730 0.969620 -0.482055
H58   H     H_    0.478832 0.785685 0.729920 0.108169
H59   H     H_    0.216093 0.723198 0.735043 0.107280
H60   H     H_    0.301409 0.480321 0.734106 0.107561

loop_
_geom_bond_atom_site_label_1
_geom_bond_atom_site_label_2
_ccdc_geom_bond_type
C15   C18   T    
C79   H37   S    
C4    H7    S    
C10   C85   T    
C36   O15   A    
Cr1   O16   S    
C2    C18   S    
C33   C45   A    
C6    H9    S    
C14   C17   T    
C27   C78   A    
C81   C84   S    
C6    C9    S    
C6    H57   S    
C53   C59   A    
C50   H35   S    
C20   O21   A    
C54   C60   A    
C55   C70   A    
C25   C28   A    
C21   O22   A    
C40   H19   S    
C7    H52   S    
C59   H29   S    
C67   C88   S    
C33   C39   A    
Cr1   O13   S    
C31   C43   A    
C60   C63   A    
C82   C94   S    
C67   H31   S    
C37   C40   A    
C69   C93   S    
C25   H13   S    
C93   H6    S    
C53   C56   A    
C79   H40   S    
Cr3   O12   S    
C5    H8    S    
C10   C94   S    
C11   C86   T    
Cr1   O7    S    
C83   H44   S    
C30   C57   A    
Cr2   O11   S    
Cr1   O10   S    
C84   C96   S    
C80   C89   S    
Cr4   O24   S    
C8    H53   S    
C36   C76   S    
C33   C72   A    
C93   H3    S    
C23   O6    A    
C45   H12   S    
C31   C70   A    
C66   C72   A    
C37   H16   S    
C7    C88   S    
C9    H54   S    
Cr4   O17   S    
Cr6   O23   S    
C64   C73   A    
C32   C38   A    
C39   C42   A    
Cr4   O23   S    
C19   O18   A    
Cr2   O8    S    
C12   C87   T    
C44   C47   A    
C29   C41   A    
C56   C71   A    
C58   C61   A    
C81   H39   S    
C63   C66   A    
C9    H51   S    
C69   H33   S    
C27   C30   A    
C48   C75   A    
C60   H30   S    
C80   C83   S    
C79   C88   S    
C5    C95   S    
C28   C55   A    
C42   H21   S    
C32   C71   A    
C81   H42   S    
C26   C77   A    
C50   C53   A    
Cr1   O1    S    
C83   H47   S    
C68   H59   S    
C38   C41   A    
Cr2   O14   S    
C3    O2    A    
C19   C48   S    
C20   O19   A    
C4    C7    S    
C65   C71   A    
C92   C95   S    
C65   C74   A    
C31   C37   A    
C24   O26   A    
C35   O14   A    
C41   H20   S    
C61   C64   A    
Cr5   O23   S    
C64   C70   A    
C14   C89   S    
C22   O24   A    
C80   H41   S    
C5    C8    S    
Cr3   O3    S    
C22   O5    A    
C92   H5    S    
C4    H55   S    
C73   H22   S    
C83   C95   S    
C47   C74   A    
C67   C91   S    
C68   C89   S    
C32   C44   A    
C49   C76   A    
C61   H25   S    
C22   C87   S    
C69   H60   S    
Cr5   O25   S    
C52   C58   A    
C26   C29   A    
C7    H49   S    
C81   C90   S    
C49   H34   S    
C1    O3    A    
C93   C96   S    
C6    C96   S    
C35   O10   A    
C4    C94   S    
C24   O4    A    
C43   H10   S    
C38   H17   S    
C69   C90   S    
C50   C77   A    
C19   O20   A    
Cr2   O2    S    
C34   O13   A    
Cr3   O9    S    
C45   C48   A    
C11   C95   S    
C34   O12   A    
C59   C62   A    
C62   C65   A    
C8    H50   S    
Cr6   O22   S    
C1    C17   S    
Cr5   O5    S    
C30   C42   A    
C49   C52   A    
C91   H1    S    
C9    C90   S    
C44   H11   S    
C79   C82   S    
C82   H46   S    
C52   C55   A    
C29   C56   A    
C84   H45   S    
Cr6   O26   S    
C35   C78   S    
C36   O11   A    
C51   C54   A    
C75   H24   S    
C91   H4    S    
C51   C78   A    
C23   O25   A    
C34   C77   S    
Cr5   O21   S    
C80   H38   S    
C91   C94   S    
C62   H26   S    
Cr2   O16   S    
Cr3   O15   S    
C43   C46   A    
C1    O7    A    
C58   H28   S    
Cr6   O19   S    
C66   C75   A    
C13   C88   S    
C68   H32   S    
Cr6   O6    S    
C68   C92   S    
Cr4   O4    S    
C63   H27   S    
C57   C72   A    
C21   O17   A    
C26   H14   S    
C67   H58   S    
Cr5   O18   S    
C92   H2    S    
C74   H23   S    
C51   H36   S    
Cr3   O16   S    
C82   H43   S    
C25   C76   A    
C2    O1    A    
C5    H56   S    
C23   C85   S    
C13   C16   T    
C28   C40   A    
C12   C96   S    
C8    C89   S    
C27   H15   S    
C21   C47   S    
Cr4   O20   S    
C24   C86   S    
C2    O8    A    
C46   C73   A    
C20   C46   S    
C3    C16   S    
C39   H18   S    
C3    O9    A    
C15   C90   S    
C54   C57   A    
C84   H48   S    
