data_mof_unit_37639.cif
_audit_creation_date              2012-12-11T15:26:08-0500
_audit_creation_method            fapswitch 2.2
_symmetry_space_group_name_H-M    P1
_symmetry_Int_Tables_number       1
_space_group_crystal_system       triclinic
_cell_length_a                    24.6097
_cell_length_b                    17.091465
_cell_length_c                    15.623121
_cell_angle_alpha                 90.000085
_cell_angle_beta                  50.323961
_cell_angle_gamma                 90.000241
_cell_volume                      5057.73484487

loop_
_atom_site_label
_atom_site_type_symbol
_atom_type_description
_atom_site_fract_x
_atom_site_fract_y
_atom_site_fract_z
_atom_type_partial_charge
C1    C     C_R   0.339158 0.125976 0.785442 -0.084790
C2    C     C_R   0.664541 0.882366 0.206990 -0.090313
C3    C     C_R   0.660849 0.125962 0.214543 -0.084827
C4    C     C_R   0.335458 0.882367 0.793012 -0.090327
C5    C     C_R   0.839153 0.625966 0.785454 -0.084790
C6    C     C_R   0.164537 0.382352 0.207003 -0.090241
C7    C     C_R   0.160847 0.625967 0.214548 -0.084844
C8    C     C_R   0.835457 0.382370 0.793015 -0.090335
C9    C     C_2   0.666998 0.229108 0.094449 -0.228349
C10   C     C_2   0.308131 0.822891 0.964490 -0.199852
C11   C     C_2   0.333020 0.229137 0.905513 -0.228412
C12   C     C_2   0.691867 0.822887 0.035514 -0.199848
C13   C     C_2   0.166993 0.729117 0.094459 -0.228353
C14   C     C_2   0.808129 0.322899 0.964499 -0.199892
C15   C     C_2   0.833010 0.729117 0.905539 -0.228412
C16   C     C_2   0.191859 0.322853 0.035547 -0.199725
C17   C     C_2   0.684377 0.293113 0.124926 -0.139197
C18   C     C_2   0.239796 0.847557 0.038867 -0.151231
C19   C     C_2   0.315606 0.293123 0.875061 -0.139425
C20   C     C_2   0.760203 0.847553 0.961136 -0.151153
C21   C     C_2   0.184380 0.793119 0.124930 -0.139246
C22   C     C_2   0.739790 0.347556 0.038867 -0.151197
C23   C     C_2   0.815617 0.793115 0.875072 -0.139260
C24   C     C_2   0.260183 0.347550 0.961139 -0.151204
C25   C     C_R   0.591624 0.141810 0.592294 -0.092452
C26   C     C_R   0.386154 0.896153 0.407700 -0.105185
C27   C     C_R   0.408377 0.141810 0.407706 -0.092396
C28   C     C_R   0.613846 0.896153 0.592300 -0.105186
C29   C     C_R   0.091622 0.641811 0.592294 -0.092425
C30   C     C_R   0.886154 0.396153 0.407700 -0.105232
C31   C     C_R   0.908378 0.641811 0.407706 -0.092417
C32   C     C_R   0.113845 0.396154 0.592301 -0.105173
C33   C     C_R   0.666298 0.141581 0.407408 -0.110133
C34   C     C_R   0.311312 0.896591 0.592545 -0.116363
C35   C     C_R   0.333697 0.141577 0.592592 -0.110104
C36   C     C_R   0.688688 0.896591 0.407455 -0.116362
C37   C     C_R   0.166299 0.641581 0.407409 -0.110120
C38   C     C_R   0.811311 0.396591 0.592545 -0.116371
C39   C     C_R   0.833701 0.641580 0.592591 -0.110117
C40   C     C_R   0.188688 0.396593 0.407456 -0.116344
C41   C     C_R   0.570798 0.126254 0.213776 -0.022064
C42   C     C_R   0.425036 0.883413 0.796168 -0.037786
C43   C     C_R   0.429208 0.126266 0.786208 -0.022082
C44   C     C_R   0.574963 0.883412 0.203833 -0.037800
C45   C     C_R   0.070797 0.626257 0.213780 -0.022011
C46   C     C_R   0.925035 0.383419 0.796172 -0.037744
C47   C     C_R   0.929204 0.626257 0.786219 -0.022076
C48   C     C_R   0.074958 0.383394 0.203847 -0.037953
C49   C     C_R   0.365216 0.161268 0.831598 0.134712
C50   C     C_R   0.644102 0.858049 0.147001 0.120720
C51   C     C_R   0.634797 0.161245 0.168372 0.134687
C52   C     C_R   0.355898 0.858051 0.853001 0.120708
C53   C     C_R   0.865208 0.661252 0.831618 0.134743
C54   C     C_R   0.144093 0.358021 0.147027 0.120708
C55   C     C_R   0.134793 0.661252 0.168381 0.134632
C56   C     C_R   0.855895 0.358058 0.853008 0.120722
C57   C     C_R   0.642962 0.185378 0.499711 0.046185
C58   C     C_R   0.317074 0.881206 0.500164 0.048612
C59   C     C_R   0.357034 0.185374 0.500290 0.046161
C60   C     C_R   0.682926 0.881205 0.499836 0.048612
C61   C     C_R   0.142961 0.685379 0.499711 0.046178
C62   C     C_R   0.817073 0.381206 0.500164 0.048620
C63   C     C_R   0.857038 0.685378 0.500289 0.046171
C64   C     C_R   0.182926 0.381208 0.499837 0.048616
C65   C     C_R   0.268371 0.290569 0.601226 -0.091008
C66   C     C_R   0.806620 0.841243 0.399543 -0.146054
C67   C     C_R   0.731620 0.290579 0.398779 -0.091078
C68   C     C_R   0.193379 0.841244 0.600457 -0.146048
C69   C     C_R   0.768378 0.790576 0.601222 -0.091065
C70   C     C_R   0.306620 0.341247 0.399547 -0.146039
C71   C     C_R   0.231620 0.790578 0.398778 -0.091062
C72   C     C_R   0.693379 0.341243 0.600457 -0.146057
C73   C     C_R   0.724327 0.840335 0.601063 -0.128754
C74   C     C_R   0.350929 0.291874 0.399820 -0.122039
C75   C     C_R   0.275671 0.840337 0.398937 -0.128751
C76   C     C_R   0.649068 0.291873 0.600185 -0.122062
C77   C     C_R   0.224323 0.340332 0.601067 -0.128704
C78   C     C_R   0.850931 0.791873 0.399816 -0.122048
C79   C     C_R   0.775671 0.340338 0.398937 -0.128786
C80   C     C_R   0.149068 0.791874 0.600184 -0.122054
C81   C     C_R   0.739688 0.858301 0.500119 0.110251
C82   C     C_R   0.327559 0.259151 0.500506 0.101747
C83   C     C_R   0.260311 0.858302 0.499881 0.110251
C84   C     C_R   0.672435 0.259156 0.499497 0.101830
C85   C     C_R   0.239687 0.358303 0.500123 0.110219
C86   C     C_R   0.827565 0.759155 0.500503 0.101803
C87   C     C_R   0.760311 0.358302 0.499881 0.110266
C88   C     C_R   0.172434 0.759157 0.499497 0.101807
H1    H     H_    0.286283 0.131288 0.814287 0.110297
H2    H     H_    0.716853 0.880908 0.181508 0.132759
H3    H     H_    0.713725 0.131262 0.185695 0.110437
H4    H     H_    0.283146 0.880907 0.818495 0.132735
H5    H     H_    0.786277 0.631269 0.814301 0.110392
H6    H     H_    0.216849 0.380892 0.181519 0.132726
H7    H     H_    0.213723 0.631270 0.185699 0.110414
H8    H     H_    0.783145 0.380911 0.818497 0.132743
H9    H     H_    0.566593 0.154716 0.677401 0.088071
H10   H     H_    0.407936 0.899895 0.322046 0.092189
H11   H     H_    0.433413 0.154720 0.322597 0.088078
H12   H     H_    0.592064 0.899895 0.677954 0.092188
H13   H     H_    0.066588 0.654719 0.677403 0.088073
H14   H     H_    0.907935 0.399896 0.322046 0.092182
H15   H     H_    0.933412 0.654719 0.322597 0.088075
H16   H     H_    0.092063 0.399897 0.677955 0.092193
H17   H     H_    0.710035 0.154475 0.322246 0.101144
H18   H     H_    0.263609 0.900490 0.678156 0.097787
H19   H     H_    0.289954 0.154465 0.677754 0.101115
H20   H     H_    0.736391 0.900490 0.321844 0.097783
H21   H     H_    0.210038 0.654474 0.322246 0.101137
H22   H     H_    0.763609 0.400490 0.678156 0.097791
H23   H     H_    0.789962 0.654473 0.677754 0.101139
H24   H     H_    0.236392 0.400491 0.321844 0.097769
H25   H     H_    0.541301 0.133665 0.185009 0.081447
H26   H     H_    0.454262 0.881956 0.826228 0.097351
H27   H     H_    0.458705 0.133679 0.814976 0.081471
H28   H     H_    0.545738 0.881954 0.173772 0.097353
H29   H     H_    0.041300 0.633669 0.185012 0.081445
H30   H     H_    0.954260 0.381963 0.826233 0.097369
H31   H     H_    0.958701 0.633669 0.814987 0.081469
H32   H     H_    0.045732 0.381928 0.173787 0.097299
H33   H     H_    0.251609 0.271054 0.680592 0.164369
H34   H     H_    0.822255 0.858758 0.320126 0.122373
H35   H     H_    0.748376 0.271071 0.319414 0.164381
H36   H     H_    0.177745 0.858759 0.679874 0.122379
H37   H     H_    0.751620 0.771067 0.680587 0.164375
H38   H     H_    0.322256 0.358767 0.320130 0.122366
H39   H     H_    0.248377 0.771069 0.319414 0.164376
H40   H     H_    0.677745 0.358758 0.679874 0.122382
H41   H     H_    0.675226 0.857110 0.680436 0.124274
H42   H     H_    0.399486 0.273650 0.320631 0.124114
H43   H     H_    0.324772 0.857113 0.319564 0.124275
H44   H     H_    0.600513 0.273648 0.679374 0.124105
H45   H     H_    0.175221 0.357105 0.680440 0.124292
H46   H     H_    0.899487 0.773648 0.320626 0.124111
H47   H     H_    0.824771 0.357115 0.319565 0.124263
H48   H     H_    0.100512 0.773649 0.679374 0.124109
N1    N     N_R   0.388930 0.078160 0.705470 -0.041300
N2    N     N_R   0.611070 0.921840 0.294530 -0.052315
N3    N     N_R   0.611070 0.078160 0.294530 -0.041308
N4    N     N_R   0.388930 0.921840 0.705470 -0.052312
N5    N     N_R   0.888930 0.578160 0.705470 -0.041308
N6    N     N_R   0.111070 0.421840 0.294530 -0.052310
N7    N     N_R   0.111070 0.578160 0.294530 -0.041303
N8    N     N_R   0.888930 0.421840 0.705470 -0.052315
N9    N     N_R   0.580500 0.077840 0.556650 -0.047270
N10   N     N_R   0.419500 0.922160 0.443350 -0.044612
N11   N     N_R   0.419500 0.077840 0.443350 -0.047276
N12   N     N_R   0.580500 0.922160 0.556650 -0.044611
N13   N     N_R   0.080500 0.577840 0.556650 -0.047275
N14   N     N_R   0.919500 0.422160 0.443350 -0.044606
N15   N     N_R   0.919500 0.577840 0.443350 -0.047273
N16   N     N_R   0.080500 0.422160 0.556650 -0.044614
N17   N     N_R   0.626210 0.077590 0.443410 -0.043953
N18   N     N_R   0.373790 0.922410 0.556590 -0.043232
N19   N     N_R   0.373790 0.077590 0.556590 -0.043951
N20   N     N_R   0.626210 0.922410 0.443410 -0.043232
N21   N     N_R   0.126210 0.577590 0.443410 -0.043955
N22   N     N_R   0.873790 0.422410 0.556590 -0.043230
N23   N     N_R   0.873790 0.577590 0.556590 -0.043954
N24   N     N_R   0.126210 0.422410 0.443410 -0.043236
N25   N     N_R   0.554800 0.077270 0.294580 -0.049173
N26   N     N_R   0.445200 0.922730 0.705420 -0.056668
N27   N     N_R   0.445200 0.077270 0.705420 -0.049181
N28   N     N_R   0.554800 0.922730 0.294580 -0.056668
N29   N     N_R   0.054800 0.577270 0.294580 -0.049167
N30   N     N_R   0.945200 0.422730 0.705420 -0.056679
N31   N     N_R   0.945200 0.577270 0.705420 -0.049182
N32   N     N_R   0.054800 0.422730 0.294580 -0.056633
Ni1   Ni    Ni4+2 0.382710 0.000000 0.629850 0.235109
Ni2   Ni    Ni4+2 0.617290 1.000000 0.370150 0.235099
Ni3   Ni    Ni4+2 0.882710 0.500000 0.629850 0.235103
Ni4   Ni    Ni4+2 0.117290 0.500000 0.370150 0.235104
Ni5   Ni    Ni4+2 0.513020 0.000000 0.629850 0.233310
Ni6   Ni    Ni4+2 0.486980 1.000000 0.370150 0.233306
Ni7   Ni    Ni4+2 0.013020 0.500000 0.629850 0.233304
Ni8   Ni    Ni4+2 0.986980 0.500000 0.370150 0.233324
C89   C     C_2   0.217227 0.928068 0.036996 1.104137
O1    O     O_2   0.155544 0.940679 0.080404 -0.603314
O2    O     O_R   0.265578 0.989896 0.989858 -0.786679
H49   H     H_    0.243164 0.041698 0.996279 0.335603
C90   C     C_2   0.651714 0.310296 0.242887 1.094589
O3    O     O_2   0.680643 0.356164 0.262588 -0.623510
O4    O     O_R   0.586932 0.277094 0.331115 -0.804514
H50   H     H_    0.570967 0.293464 0.406473 0.331273
C91   C     C_2   0.782774 0.928064 0.963003 1.104112
O5    O     O_2   0.844460 0.940674 0.919581 -0.603358
O6    O     O_R   0.734423 0.989892 0.010153 -0.786682
H51   H     H_    0.756840 0.041693 0.003727 0.335570
C92   C     C_2   0.348235 0.310297 0.757115 1.094478
O7    O     O_2   0.319284 0.356158 0.737444 -0.623540
O8    O     O_R   0.413011 0.277096 0.668861 -0.804488
H52   H     H_    0.428952 0.293459 0.593517 0.331260
C93   C     C_2   0.717213 0.428061 0.036994 1.104078
O9    O     O_2   0.655529 0.440663 0.080403 -0.603361
O10   O     O_R   0.765558 0.489895 0.989854 -0.786683
H53   H     H_    0.743139 0.541693 0.996274 0.335549
C94   C     C_2   0.151723 0.810300 0.242888 1.094582
O11   O     O_2   0.180652 0.856172 0.262583 -0.623511
O12   O     O_R   0.086946 0.777092 0.331122 -0.804515
H54   H     H_    0.070984 0.793460 0.406477 0.331264
C95   C     C_2   0.282732 0.428077 0.962989 1.104207
O13   O     O_2   0.344420 0.440721 0.919527 -0.603322
O14   O     O_R   0.234358 0.489883 0.010170 -0.786697
H55   H     H_    0.256762 0.541698 0.003731 0.335602
C96   C     C_2   0.848268 0.810295 0.757116 1.094563
O15   O     O_2   0.819337 0.856170 0.737426 -0.623514
O16   O     O_R   0.913043 0.777085 0.668877 -0.804520
H56   H     H_    0.929000 0.793454 0.593525 0.331260
C97   C     C_2   0.334817 0.754641 0.987076 1.031999
O17   O     O_2   0.381689 0.713565 0.910264 -0.618683
O18   O     O_R   0.308524 0.739332 0.095394 -0.830183
H57   H     H_    0.332087 0.692570 0.099591 0.314655
C98   C     C_2   0.683933 0.222405 0.984858 1.040880
O19   O     O_2   0.696884 0.158302 0.940777 -0.614502
O20   O     O_R   0.681625 0.288521 0.934731 -0.809448
H58   H     H_    0.692884 0.276074 0.861431 0.315087
C99   C     C_2   0.665180 0.754637 0.012930 1.031950
O21   O     O_2   0.618303 0.713563 0.089746 -0.618705
O22   O     O_R   0.691475 0.739325 0.904611 -0.830182
H59   H     H_    0.667909 0.692564 0.900416 0.314654
C100  C     C_2   0.316138 0.222462 0.015068 1.041024
O23   O     O_2   0.303250 0.158365 0.059130 -0.614493
O24   O     O_R   0.318427 0.288603 0.065179 -0.809473
H60   H     H_    0.307212 0.276176 0.138450 0.315081
C101  C     C_2   0.834826 0.254670 0.987101 1.032038
O25   O     O_2   0.881747 0.213633 0.910289 -0.618733
O26   O     O_R   0.808493 0.239341 0.095435 -0.830215
H61   H     H_    0.832078 0.192605 0.099638 0.314641
C102  C     C_2   0.183919 0.722420 0.984874 1.040892
O27   O     O_2   0.196867 0.658319 0.940789 -0.614520
O28   O     O_R   0.181608 0.788541 0.934756 -0.809437
H62   H     H_    0.192860 0.776098 0.861461 0.315088
C103  C     C_2   0.165204 0.254540 0.013017 1.031839
O29   O     O_2   0.118487 0.213341 0.089829 -0.618605
O30   O     O_R   0.191362 0.239291 0.904758 -0.830063
H63   H     H_    0.167848 0.192457 0.900594 0.314675
C104  C     C_2   0.816107 0.722428 0.015107 1.040981
O31   O     O_2   0.803219 0.658326 0.059154 -0.614525
O32   O     O_R   0.818384 0.788558 0.065244 -0.809484
H64   H     H_    0.807163 0.776120 0.138517 0.315093

loop_
_geom_bond_atom_site_label_1
_geom_bond_atom_site_label_2
_ccdc_geom_bond_type
C68   C80   A    
N14   Ni8   S    
O14   H55   S    
N16   N24   A    
N4    Ni1   S    
N25   Ni6   S    
C41   N25   A    
N2    Ni2   S    
C18   C21   S    
C95   O13   D    
C12   C99   S    
C14   C56   S    
O32   H64   S    
C8    H8    S    
C59   C82   S    
C7    C55   A    
C72   C76   A    
C10   C52   S    
C68   H36   S    
C91   O6    S    
C7    N7    A    
C28   H12   S    
C65   C82   A    
N11   Ni6   S    
C40   H24   S    
N26   Ni5   S    
C90   O3    D    
N29   Ni8   S    
C48   C54   A    
N8    Ni3   S    
C27   H11   S    
N30   Ni7   S    
C100  O23   D    
C25   C57   A    
C4    C52   A    
C15   C53   S    
C44   H28   S    
C3    H3    S    
C35   N19   A    
N7    Ni4   S    
C101  O26   S    
N21   Ni4   S    
C103  O30   S    
C33   N17   A    
N22   Ni3   S    
C30   N14   A    
C36   H20   S    
C47   H31   S    
N4    N26   A    
N5    Ni3   S    
C47   N31   A    
C46   H30   S    
N3    Ni2   S    
C35   C59   A    
C1    C49   A    
C37   N21   A    
C26   N10   A    
N7    N29   A    
C44   C50   A    
C2    C50   A    
C7    H7    S    
C43   H27   S    
C20   C91   S    
N16   Ni7   S    
C5    N5    A    
C42   H26   S    
O24   H60   S    
C18   C89   S    
N12   N20   A    
N2    N28   A    
C89   O2    S    
C9    C51   S    
N17   Ni2   S    
C70   C74   A    
C1    H1    S    
O30   H63   S    
C66   H34   S    
C22   C93   S    
N28   Ni6   S    
C65   H33   S    
C6    N6    A    
C46   N30   A    
C103  O29   D    
C37   H21   S    
C47   C53   A    
N9    N17   A    
C78   C86   A    
C13   C55   S    
C15   C23   D    
C69   H37   S    
C67   C84   A    
C16   C24   D    
C104  O31   D    
C23   C96   S    
C8    C56   A    
C95   O14   S    
C71   H39   S    
C94   O11   D    
C77   H45   S    
C79   H47   S    
C6    C54   A    
C73   C81   A    
C75   H43   S    
C101  O25   D    
C73   H41   S    
C34   N18   A    
C66   C78   A    
C29   C61   A    
C76   C84   A    
N5    N31   A    
C65   C77   A    
C13   C21   D    
O16   H56   S    
C2    N2    A    
C77   C85   A    
C31   C63   A    
N3    N25   A    
C67   C79   A    
C32   C64   A    
C14   C101  S    
C48   H32   S    
C34   H18   S    
C90   O4    S    
C41   H25   S    
O22   H59   S    
N1    N27   A    
C3    C51   A    
C43   C49   A    
C93   O10   S    
C99   O21   D    
C96   O15   D    
C29   N13   A    
C71   C88   A    
N18   Ni1   S    
N8    N30   A    
N13   Ni7   S    
C31   H15   S    
O4    H50   S    
O18   H57   S    
C102  O27   D    
C11   C49   S    
C61   C88   S    
C4    N4    A    
N6    N32   A    
C31   N15   A    
C60   C81   S    
N19   Ni1   S    
C10   C97   S    
C5    H5    S    
O26   H61   S    
C32   N16   A    
C20   C23   S    
C98   O19   D    
C11   C19   D    
C12   C20   D    
C32   H16   S    
C97   O17   D    
N24   Ni4   S    
C57   C84   S    
C29   H13   S    
C8    N8    A    
C94   O12   S    
C69   C73   A    
C26   C58   A    
C38   N22   A    
C79   C87   A    
C28   C60   A    
N23   Ni3   S    
C30   H14   S    
C26   H10   S    
C25   H9    S    
C72   H40   S    
C89   O1    D    
C30   C62   A    
C63   C86   S    
N10   N18   A    
C38   H22   S    
N27   Ni5   S    
C74   H42   S    
C64   C85   S    
C75   C83   A    
C72   C87   A    
C1    N1    A    
C37   C61   A    
C36   N20   A    
N6    Ni4   S    
C74   C82   A    
C9    C17   D    
O8    H52   S    
N32   Ni8   S    
C42   C52   A    
C33   C57   A    
N15   Ni8   S    
N14   N22   A    
C39   N23   A    
C68   C83   A    
N1    Ni1   S    
C40   N24   A    
N12   Ni5   S    
N9    Ni5   S    
C11   C100  S    
C2    H2    S    
C19   C92   S    
C67   H35   S    
C12   C50   S    
C24   C95   S    
C42   N26   A    
N11   N19   A    
C99   O22   S    
C39   C63   A    
C62   C87   S    
C15   C104  S    
C17   C22   S    
C40   C64   A    
C33   H17   S    
C100  O24   S    
C9    C98   S    
C14   C22   D    
C104  O32   S    
C19   C24   S    
C5    C53   A    
C98   O20   S    
O6    H51   S    
C102  O28   S    
C27   N11   A    
C27   C59   A    
C58   C83   S    
C66   C81   A    
C71   C75   A    
C39   H23   S    
C76   H44   S    
C70   H38   S    
C91   O5    D    
N13   N21   A    
C16   C103  S    
C10   C18   D    
C28   N12   A    
N10   Ni6   S    
N20   Ni2   S    
C97   O18   S    
C21   C94   S    
C70   C85   A    
N31   Ni7   S    
O20   H58   S    
C92   O7    D    
C16   C54   S    
C45   H29   S    
C80   H48   S    
C35   H19   S    
C13   C102  S    
O10   H53   S    
C78   H46   S    
C17   C90   S    
O12   H54   S    
C3    N3    A    
C45   C55   A    
C80   C88   A    
C93   O9    D    
C6    H6    S    
C46   C56   A    
O28   H62   S    
C34   C58   A    
O2    H49   S    
C36   C60   A    
C25   N9    A    
C44   N28   A    
C38   C62   A    
C96   O16   S    
C45   N29   A    
C48   N32   A    
C41   C51   A    
C69   C86   A    
N15   N23   A    
C92   O8    S    
C4    H4    S    
C43   N27   A    
