data_mof_unit_10520.cif
_audit_creation_date              2012-12-11T15:33:41-0500
_audit_creation_method            fapswitch 2.2
_symmetry_space_group_name_H-M    P1
_symmetry_Int_Tables_number       1
_space_group_crystal_system       triclinic
_cell_length_a                    26.947276
_cell_length_b                    7.19028
_cell_length_c                    22.738146
_cell_angle_alpha                 89.999934
_cell_angle_beta                  101.397636
_cell_angle_gamma                 90.000035
_cell_volume                      4318.82462423

loop_
_atom_site_label
_atom_site_type_symbol
_atom_type_description
_atom_site_fract_x
_atom_site_fract_y
_atom_site_fract_z
_atom_type_partial_charge
O1    O     O_R   0.207310 0.594030 0.676830 -0.530619
O2    O     O_R   0.792690 0.405970 0.323170 -0.540544
O3    O     O_R   0.292690 0.094030 0.823170 -0.530621
O4    O     O_R   0.707310 0.905970 0.176830 -0.540544
O5    O     O_R   0.197320 0.262370 0.795700 -0.505658
O6    O     O_R   0.802680 0.737630 0.204300 -0.515323
O7    O     O_R   0.302680 0.762370 0.704300 -0.505674
O8    O     O_R   0.697320 0.237630 0.295700 -0.515320
C1    C     C_R   0.184981 0.431921 0.812293 0.740220
C2    C     C_R   0.815854 0.567842 0.188683 0.774660
C3    C     C_R   0.315018 0.931921 0.687707 0.740225
C4    C     C_R   0.684145 0.067842 0.311317 0.774656
O9    O     O_R   0.201410 0.264250 0.675590 -0.536982
O10   O     O_R   0.798590 0.735750 0.324410 -0.529860
O11   O     O_R   0.298590 0.764250 0.824410 -0.536982
O12   O     O_R   0.701410 0.235750 0.175590 -0.529859
O13   O     O_R   0.296810 0.094940 0.702210 -0.539224
O14   O     O_R   0.703190 0.905060 0.297790 -0.515257
O15   O     O_R   0.203190 0.594940 0.797790 -0.539219
O16   O     O_R   0.796810 0.405060 0.202210 -0.515259
C5    C     C_R   0.190204 0.432535 0.652499 0.683463
C6    C     C_R   0.810716 0.567133 0.346555 0.683527
C7    C     C_R   0.309796 0.932535 0.847501 0.683465
C8    C     C_R   0.689284 0.067134 0.153445 0.683526
O17   O     O_3   0.281300 0.427390 0.758870 -0.369920
O18   O     O_3   0.718700 0.572610 0.241130 -0.370701
O19   O     O_3   0.218700 0.927390 0.741130 -0.369910
O20   O     O_3   0.781300 0.072610 0.258870 -0.370704
V1    V     V_3+5 0.244190 0.152150 0.748350 1.490360
V2    V     V_3+5 0.755810 0.847850 0.251650 1.521231
V3    V     V_3+5 0.255810 0.652150 0.751650 1.490346
V4    V     V_3+5 0.744190 0.347850 0.248350 1.521234
C9    C     C_R   0.654362 0.056130 0.094039 -0.179676
C10   C     C_R   0.342720 0.933973 0.908649 -0.179264
C11   C     C_R   0.845638 0.556129 0.405961 -0.179676
C12   C     C_R   0.157279 0.433972 0.591351 -0.179260
C13   C     C_R   0.640891 0.004697 0.986634 -0.143840
C14   C     C_R   0.362723 0.800700 0.008814 -0.165180
C15   C     C_R   0.859109 0.504693 0.513366 -0.143840
C16   C     C_R   0.137277 0.300701 0.491186 -0.165182
C17   C     C_R   0.673758 0.013428 0.042171 0.339635
C18   C     C_R   0.328986 0.823041 0.954328 0.328143
C19   C     C_R   0.826241 0.513427 0.457829 0.339635
C20   C     C_R   0.171014 0.323043 0.545672 0.328144
C21   C     C_R   0.601087 0.076605 0.088817 0.128708
C22   C     C_R   0.390837 0.022747 0.920241 0.125037
C23   C     C_R   0.898912 0.576603 0.411183 0.128703
C24   C     C_R   0.109162 0.522744 0.579760 0.125037
C25   C     C_R   0.567809 0.024035 0.033892 0.062099
C26   C     C_R   0.428555 0.962693 0.970354 0.055417
C27   C     C_R   0.932191 0.524031 0.466108 0.062101
C28   C     C_R   0.071444 0.462690 0.529646 0.055417
C29   C     C_R   0.587975 0.018774 0.980917 -0.063068
C30   C     C_R   0.412119 0.874901 0.018876 -0.058535
C31   C     C_R   0.912025 0.518768 0.519083 -0.063069
C32   C     C_R   0.087880 0.374900 0.481124 -0.058535
C33   C     C_R   0.515586 0.976531 0.029759 -0.065557
C34   C     C_R   0.481795 0.984915 0.973378 -0.070068
C35   C     C_R   0.984414 0.476527 0.470241 -0.065557
C36   C     C_R   0.018204 0.484910 0.526622 -0.070067
C37   C     C_R   0.502542 0.982498 0.920748 0.320804
C38   C     C_R   0.498518 0.889565 0.078072 0.317950
C39   C     C_R   0.997457 0.482489 0.579252 0.320804
C40   C     C_R   0.001481 0.389563 0.421928 0.317950
C41   C     C_R   0.554929 0.015949 0.923865 0.056239
C42   C     C_R   0.446143 0.854013 0.074874 0.059304
C43   C     C_R   0.945070 0.515940 0.576135 0.056240
C44   C     C_R   0.053856 0.354012 0.425126 0.059305
H1    H     H_    0.657818 0.972662 0.948589 0.147006
H2    H     H_    0.350236 0.711862 0.041272 0.142054
H3    H     H_    0.842181 0.472657 0.551410 0.147006
H4    H     H_    0.149764 0.211864 0.458728 0.142053
C45   C     C_R   0.645386 0.924136 0.392756 0.316292
C46   C     C_R   0.393463 0.066817 0.657265 0.300808
C47   C     C_R   0.854611 0.424144 0.107240 0.316285
C48   C     C_R   0.106545 0.566863 0.842744 0.300816
C49   C     C_R   0.607155 0.917041 0.426736 -0.263070
C50   C     C_R   0.426077 0.076933 0.616725 -0.165230
C51   C     C_R   0.892840 0.417052 0.073259 -0.263068
C52   C     C_R   0.073931 0.576980 0.883283 -0.165254
H5    H     H_    0.609095 0.812044 0.461332 0.147430
H6    H     H_    0.456583 0.177777 0.624923 0.167239
H7    H     H_    0.890899 0.312060 0.038661 0.147427
H8    H     H_    0.043434 0.677860 0.875095 0.167233
C53   C     C_R   0.566462 0.041756 0.417020 -0.073493
C54   C     C_R   0.420989 0.959156 0.566871 -0.114722
C55   C     C_R   0.933534 0.541762 0.082976 -0.073488
C56   C     C_R   0.079007 0.459157 0.933125 -0.114713
C57   C     C_R   0.563738 0.180606 0.371862 0.066911
C58   C     C_R   0.381328 0.825086 0.556851 0.061562
C59   C     C_R   0.936261 0.680605 0.128136 0.066911
C60   C     C_R   0.118655 0.325040 0.943134 0.061561
C61   C     C_R   0.602417 0.187476 0.336606 0.267861
C62   C     C_R   0.346514 0.817834 0.597142 0.329685
C63   C     C_R   0.897583 0.687474 0.163393 0.267867
C64   C     C_R   0.153472 0.317788 0.902845 0.329701
C65   C     C_R   0.643311 0.059581 0.347513 -0.133000
C66   C     C_R   0.352646 0.938614 0.647355 -0.192701
C67   C     C_R   0.856688 0.559583 0.152486 -0.132998
C68   C     C_R   0.147352 0.438614 0.852644 -0.192713
N1    N     N_R   0.543021 0.007316 0.516350 -0.278104
N2    N     N_R   0.443857 0.994319 0.466807 -0.295285
N3    N     N_R   0.956976 0.507363 0.983645 -0.278103
N4    N     N_R   0.056138 0.494281 0.033190 -0.295283
N5    N     N_R   0.509042 0.987220 0.551348 -0.283906
N6    N     N_R   0.477825 0.014941 0.431820 -0.299703
N7    N     N_R   0.990955 0.487268 0.948647 -0.283905
N8    N     N_R   0.022171 0.514904 0.068178 -0.299700
C69   C     C_R   0.458729 0.979039 0.527294 0.536364
C70   C     C_R   0.528125 0.022806 0.455849 0.536894
C71   C     C_R   0.041267 0.479044 0.972702 0.536358
C72   C     C_R   0.971871 0.522811 0.044147 0.536887
C73   C     C_3   0.573631 0.065411 0.866407 -0.366630
C74   C     C_3   0.545222 0.232736 0.834219 -0.699417
H9    H     H_    0.504917 0.199744 0.816074 0.254554
H10   H     H_    0.547369 0.352512 0.865504 0.221807
H11   H     H_    0.562823 0.274166 0.795960 0.222204
H12   H     H_    0.613876 0.106884 0.874999 0.189851
H13   H     H_    0.570272 0.943981 0.835741 0.175932
C75   C     C_3   0.427137 0.810213 0.132604 -0.356903
C76   C     C_3   0.442377 0.961016 0.180382 -0.750398
H14   H     H_    0.483867 0.964321 0.197291 0.241879
H15   H     H_    0.429682 0.099731 0.161719 0.225679
H16   H     H_    0.424114 0.932644 0.219180 0.220126
H17   H     H_    0.385464 0.804119 0.125764 0.186443
H18   H     H_    0.441077 0.672218 0.150600 0.164870
C77   C     C_3   0.926368 0.565398 0.633594 -0.366625
C78   C     C_3   0.954778 0.732721 0.665782 -0.699429
H19   H     H_    0.995082 0.699728 0.683927 0.254539
H20   H     H_    0.952631 0.852499 0.634498 0.221810
H21   H     H_    0.937176 0.774150 0.704041 0.222205
H22   H     H_    0.886124 0.606873 0.625001 0.189851
H23   H     H_    0.929727 0.443967 0.664258 0.175930
C79   C     C_3   0.072863 0.310212 0.367396 -0.356905
C80   C     C_3   0.057623 0.461015 0.319619 -0.750399
H24   H     H_    0.016133 0.464320 0.302709 0.241880
H25   H     H_    0.070318 0.599730 0.338281 0.225680
H26   H     H_    0.075886 0.432644 0.280820 0.220126
H27   H     H_    0.114536 0.304119 0.374237 0.186442
H28   H     H_    0.058923 0.172217 0.349400 0.164871
C81   C     C_3   0.398446 0.200571 0.886648 -0.312003
C82   C     C_3   0.369780 0.363111 0.907787 -0.682847
H29   H     H_    0.328681 0.333694 0.901641 0.250104
H30   H     H_    0.384834 0.391374 0.956062 0.213384
H31   H     H_    0.374964 0.489909 0.881766 0.221909
H32   H     H_    0.438578 0.244461 0.894498 0.199105
H33   H     H_    0.386119 0.180476 0.837705 0.183390
C83   C     C_3   0.581334 0.185041 0.137115 -0.319219
C84   C     C_3   0.588835 0.393972 0.130088 -0.707066
H34   H     H_    0.628362 0.428468 0.127291 0.246427
H35   H     H_    0.563473 0.444779 0.088621 0.222038
H36   H     H_    0.579358 0.467963 0.169244 0.226843
H37   H     H_    0.540312 0.166477 0.134925 0.201275
H38   H     H_    0.600530 0.138429 0.182477 0.192579
C85   C     C_3   0.101553 0.700563 0.613355 -0.312008
C86   C     C_3   0.130217 0.863109 0.592217 -0.682841
H39   H     H_    0.171317 0.833694 0.598361 0.250109
H40   H     H_    0.115163 0.891377 0.543942 0.213382
H41   H     H_    0.125033 0.989902 0.618240 0.221908
H42   H     H_    0.061420 0.744451 0.605504 0.199105
H43   H     H_    0.113879 0.680463 0.662297 0.183380
C87   C     C_3   0.918666 0.685039 0.362885 -0.319214
C88   C     C_3   0.911165 0.893970 0.369912 -0.707064
H44   H     H_    0.871638 0.928466 0.372709 0.246426
H45   H     H_    0.936527 0.944778 0.411379 0.222037
H46   H     H_    0.920643 0.967961 0.330756 0.226846
H47   H     H_    0.959688 0.666475 0.365076 0.201275
H48   H     H_    0.899471 0.638426 0.317523 0.192585
O21   O     O_3   0.282368 0.737100 0.948583 -0.640672
H49   H     H_    0.257792 0.796922 0.915983 0.297064
O22   O     O_3   0.724640 0.985837 0.042518 -0.637258
H50   H     H_    0.744917 0.999498 0.083496 0.301829
O23   O     O_3   0.217632 0.237104 0.551417 -0.640669
H51   H     H_    0.242208 0.296927 0.584017 0.297063
O24   O     O_3   0.775360 0.485837 0.457482 -0.637258
H52   H     H_    0.755083 0.499500 0.416504 0.301831
O25   O     O_3   0.471361 0.929462 0.867449 -0.663078
H53   H     H_    0.491808 0.873933 0.840353 0.297299
O26   O     O_3   0.534690 0.824988 0.125607 -0.663651
H54   H     H_    0.520419 0.724115 0.146617 0.289447
O27   O     O_3   0.028638 0.429449 0.632551 -0.663081
H55   H     H_    0.008191 0.373918 0.659646 0.297294
O28   O     O_3   0.965310 0.324987 0.374393 -0.663651
H56   H     H_    0.979581 0.224114 0.353383 0.289447
O29   O     O_3   0.685830 0.802355 0.404144 -0.632153
H57   H     H_    0.681626 0.716787 0.437012 0.306955
O30   O     O_3   0.403746 0.182930 0.706481 -0.633410
H58   H     H_    0.388455 0.130127 0.738831 0.278215
O31   O     O_3   0.814165 0.302369 0.095852 -0.632155
H59   H     H_    0.818367 0.216806 0.062981 0.306956
O32   O     O_3   0.096273 0.683021 0.793539 -0.633398
H60   H     H_    0.111551 0.630205 0.761181 0.278221
C89   C     C_3   0.522237 0.327563 0.364555 -0.337580
C90   C     C_3   0.478239 0.280022 0.313127 -0.733509
H61   H     H_    0.490767 0.272431 0.269587 0.210069
H62   H     H_    0.461264 0.144190 0.321226 0.253319
H63   H     H_    0.448603 0.388925 0.309773 0.221610
H64   H     H_    0.507251 0.344154 0.406313 0.196194
H65   H     H_    0.537670 0.467283 0.357596 0.175595
C91   C     C_3   0.378542 0.683406 0.506499 -0.345971
C92   C     C_3   0.340241 0.740910 0.450432 -0.700936
H66   H     H_    0.301520 0.752961 0.459792 0.218741
H67   H     H_    0.350711 0.876936 0.433376 0.252129
H68   H     H_    0.339683 0.634983 0.414778 0.217301
H69   H     H_    0.415998 0.663802 0.494094 0.197201
H70   H     H_    0.369275 0.543095 0.521668 0.178395
C93   C     C_3   0.977765 0.827551 0.135445 -0.337586
C94   C     C_3   0.021759 0.780002 0.186875 -0.733514
H71   H     H_    0.009229 0.772413 0.230414 0.210081
H72   H     H_    0.038733 0.644167 0.178777 0.253316
H73   H     H_    0.051397 0.888900 0.190233 0.221609
H74   H     H_    0.992754 0.844135 0.093689 0.196194
H75   H     H_    0.962334 0.967277 0.142402 0.175587
C95   C     C_3   0.121427 0.183315 0.993471 -0.345975
C96   C     C_3   0.159732 0.240730 0.049545 -0.700936
H76   H     H_    0.198454 0.252750 0.040188 0.218744
H77   H     H_    0.149272 0.376751 0.066616 0.252127
H78   H     H_    0.160279 0.134770 0.085187 0.217307
H79   H     H_    0.083968 0.163742 0.005872 0.197198
H80   H     H_    0.130680 0.043006 0.978287 0.178395
O33   O     O_3   0.602117 0.316265 0.291231 -0.648576
H81   H     H_    0.569731 0.383576 0.281753 0.294464
O34   O     O_3   0.305851 0.696120 0.589510 -0.642092
H82   H     H_    0.301246 0.631616 0.550643 0.298742
O35   O     O_3   0.897885 0.816254 0.208771 -0.648582
H83   H     H_    0.930267 0.883596 0.218240 0.294468
O36   O     O_3   0.194125 0.196032 0.910468 -0.642081
H84   H     H_    0.198719 0.131477 0.949326 0.298741

loop_
_geom_bond_atom_site_label_1
_geom_bond_atom_site_label_2
_ccdc_geom_bond_type
O17   V3    S    
C80   H26   S    
C90   H62   S    
O22   H50   S    
C14   H2    S    
O1    C5    A    
C91   H69   S    
C39   O27   S    
C55   C59   A    
O19   V1    S    
C21   C83   S    
C9    C21   A    
O21   H49   S    
O3    C7    A    
C88   H44   S    
C10   C18   A    
C60   C64   A    
C52   H8    S    
C11   C23   A    
C78   H19   S    
C51   C55   A    
C74   H9    S    
C33   C34   A    
C25   C33   A    
C80   H24   S    
C46   C66   A    
C5    C12   S    
O23   H51   S    
C85   H43   S    
O7    C3    A    
C6    C11   S    
C17   O22   S    
C35   C40   A    
C26   C30   A    
C56   C71   S    
C3    C66   S    
C40   C44   A    
O9    V1    S    
C86   H39   S    
C88   H45   S    
C14   C18   A    
C13   H1    S    
C95   H79   S    
C96   H77   S    
C79   H28   S    
O4    C8    A    
C75   H18   S    
C90   H63   S    
C58   C91   S    
C62   C66   A    
C89   H64   S    
O27   H55   S    
N4    N8    A    
O1    V3    S    
O13   V1    S    
C31   C43   A    
O2    V4    S    
C92   H66   S    
O3    V1    S    
O36   H84   S    
C45   C49   A    
C77   H22   S    
C76   H16   S    
C28   C36   A    
N6    C70   A    
C73   H13   S    
C23   C87   S    
C19   O24   S    
C86   H40   S    
C1    O15   A    
C15   C31   A    
C56   C60   A    
C2    O16   A    
C94   H71   S    
C16   C32   A    
O2    C6    A    
C60   C95   S    
C10   C22   A    
C49   H5    S    
C11   C19   A    
C16   C20   A    
C27   C31   A    
C13   C29   A    
C73   H12   S    
C50   C54   A    
C34   C37   A    
O11   C7    A    
C90   H61   S    
O15   V3    S    
C35   C36   A    
O12   C8    A    
C42   C75   S    
C57   C61   A    
C92   H67   S    
C82   H31   S    
C2    C67   S    
C83   H38   S    
O10   V2    S    
C58   C62   A    
C22   C81   S    
O5    V1    S    
N1    N5    A    
C39   C43   A    
O7    V3    S    
C38   C42   A    
C81   H33   S    
C93   C94   S    
C26   C34   A    
C64   O36   S    
C77   H23   S    
C48   C68   A    
C33   C38   A    
C88   H46   S    
C83   C84   S    
O34   H82   S    
C53   C70   S    
C54   C58   A    
C96   H78   S    
C38   O26   S    
C53   C57   A    
C95   C96   S    
C91   C92   S    
C23   C27   A    
C55   C72   S    
N1    C70   A    
C32   C44   A    
C59   C63   A    
C87   C88   S    
O32   H60   S    
N3    C72   A    
O8    V4    S    
C45   C65   A    
O28   H56   S    
C63   O35   S    
O5    C1    A    
O33   H81   S    
C18   O21   S    
C43   C77   S    
C50   H6    S    
C74   H10   S    
O24   H52   S    
C14   C30   A    
C21   C25   A    
C37   O25   S    
O8    C4    A    
C7    C10   S    
C57   C89   S    
C54   C69   S    
C47   C67   A    
O35   H83   S    
C4    C65   S    
O9    C5    A    
C40   O28   S    
C20   O23   S    
C76   H14   S    
C81   H32   S    
C37   C41   A    
C87   H48   S    
O6    V2    S    
C24   C85   S    
C89   C90   S    
C1    C68   S    
C36   C39   A    
C93   H74   S    
C92   H68   S    
C82   H30   S    
C84   H36   S    
C27   C35   A    
C83   H37   S    
C77   C78   S    
C78   H21   S    
C61   C65   A    
C79   H27   S    
C29   C41   A    
C75   C76   S    
N3    N7    A    
C73   C74   S    
O16   V4    S    
C80   H25   S    
N5    C69   A    
C3    O13   A    
C91   H70   S    
C16   H4    S    
C47   O31   S    
C85   H42   S    
C75   H17   S    
N7    C71   A    
C41   C73   S    
C86   H41   S    
C48   C52   A    
C78   H20   S    
O6    C2    A    
N4    C71   A    
C45   O29   S    
O11   V3    S    
C79   C80   S    
C30   C42   A    
O26   H54   S    
O12   V4    S    
C22   C26   A    
C8    C9    S    
C9    C17   A    
O10   C6    A    
C44   C79   S    
O30   H58   S    
C52   C56   A    
C48   O32   S    
C89   H65   S    
C84   H34   S    
C51   H7    S    
O29   H57   S    
C62   O34   S    
C94   H73   S    
C25   C29   A    
C93   H75   S    
C64   C68   A    
O20   V2    S    
C59   C93   S    
C12   C24   A    
C63   C67   A    
C96   H76   S    
C13   C17   A    
O31   H59   S    
C76   H15   S    
C74   H11   S    
C12   C20   A    
C46   O30   S    
O14   V2    S    
C49   C53   A    
C87   H47   S    
C84   H35   S    
N8    C72   A    
C24   C28   A    
C15   C19   A    
C94   H72   S    
O25   H53   S    
C46   C50   A    
N2    N6    A    
C4    O14   A    
C85   C86   S    
C15   H3    S    
C82   H29   S    
N2    C69   A    
C95   H80   S    
C61   O33   S    
C81   C82   S    
C47   C51   A    
O18   V4    S    
O4    V2    S    
C28   C32   A    
