data_mof_unit_6335.cif
_audit_creation_date              2012-12-10T17:22:13-0500
_audit_creation_method            fapswitch 2.2
_symmetry_space_group_name_H-M    P1
_symmetry_Int_Tables_number       1
_space_group_crystal_system       triclinic
_cell_length_a                    15.87546
_cell_length_b                    10.81969
_cell_length_c                    9.600924
_cell_angle_alpha                 90.746322
_cell_angle_beta                  90.068288
_cell_angle_gamma                 92.796975
_cell_volume                      1647.02017549

loop_
_atom_site_label
_atom_site_type_symbol
_atom_type_description
_atom_site_fract_x
_atom_site_fract_y
_atom_site_fract_z
_atom_type_partial_charge
C1    C     C_R   0.504801 0.262526 0.499647 0.786436
C2    C     C_3   0.947258 0.411568 0.609118 -0.538017
C3    C     C_3   0.917363 0.504516 0.500171 0.139249
C4    C     C_3   0.956283 0.634550 0.540668 -0.426333
C5    C     C_3   0.054342 0.636565 0.535139 0.325314
C6    C     C_1   0.825084 0.504496 0.500428 0.002887
C7    C     C_1   0.175329 0.500558 0.500019 -0.004196
C8    C     C_1   0.250797 0.499299 0.499879 -0.175200
C9    C     C_R   0.561520 0.118640 0.743453 -0.214990
C10   C     C_R   0.558727 0.060017 0.871543 -0.367610
C11   C     C_R   0.510552 0.948990 0.886936 0.463666
C12   C     C_R   0.340360 0.499094 0.499973 0.813477
C13   C     C_R   0.472776 0.891219 0.769617 0.412890
C14   C     C_R   0.490253 0.939700 0.634554 -0.109442
C15   C     C_R   0.520315 0.063653 0.626091 0.063036
C16   C     C_R   0.507518 0.127607 0.500512 -0.074246
C17   C     C_R   0.484191 0.061022 0.379292 -0.217808
C18   C     C_R   0.475011 0.933234 0.381979 -0.198963
C19   C     C_R   0.481260 0.870722 0.507784 -0.113218
C20   C     C_R   0.613252 0.663834 0.146205 -0.102781
C21   C     C_R   0.668968 0.743024 0.074990 -0.182739
C22   C     C_R   0.668719 0.743092 0.931466 -0.201790
C23   C     C_R   0.492059 0.736796 0.501802 0.768460
C24   C     C_R   0.612764 0.663944 0.858239 -0.109789
C25   C     C_R   0.555407 0.580684 0.926361 0.250358
C26   C     C_R   0.555504 0.580620 0.075928 0.225972
C27   C     C_R   0.447497 0.422859 0.072643 -0.055838
C28   C     C_R   0.447530 0.422871 0.924774 -0.031091
C29   C     C_R   0.659705 0.501082 0.500058 0.791349
C30   C     C_3   0.045249 0.409090 0.607971 0.188321
C31   C     C_3   0.048287 0.464058 0.354371 -0.476538
C32   C     C_3   0.950216 0.463954 0.354230 0.268169
C33   C     C_1   0.749463 0.503141 0.500323 -0.171267
C34   C     C_3   0.083244 0.503422 0.500318 0.122449
Cu1   Cu    Cu3+1 0.499990 0.499990 0.640660 0.955706
Cu2   Cu    Cu3+1 0.500010 0.500010 0.359340 0.945543
H1    H     H_    0.919683 0.317155 0.584713 0.157825
H2    H     H_    0.923793 0.436967 0.714380 0.212485
H3    H     H_    0.931704 0.706365 0.471681 0.197263
H4    H     H_    0.473992 0.107379 0.281801 0.164097
H5    H     H_    0.597854 0.205530 0.736823 0.186902
H6    H     H_    0.590321 0.104587 0.960178 0.159429
H7    H     H_    0.462221 0.882809 0.285768 0.202183
H8    H     H_    0.404487 0.359549 0.126792 0.138684
H9    H     H_    0.062085 0.314573 0.574197 0.154401
H10   H     H_    0.618455 0.672329 0.256101 0.190542
H11   H     H_    0.712301 0.805482 0.131931 0.145803
H12   H     H_    0.711709 0.805767 0.876140 0.144777
H13   H     H_    0.617032 0.672752 0.748544 0.186375
H14   H     H_    0.404553 0.359530 0.868573 0.146665
H15   H     H_    0.075418 0.526560 0.273068 0.235397
H16   H     H_    0.068290 0.369576 0.326947 0.139072
H17   H     H_    0.925667 0.367378 0.332973 0.136423
H18   H     H_    0.077691 0.665429 0.640929 0.071786
H19   H     H_    0.936019 0.659466 0.648007 0.133212
N1    N     N_R   0.500800 0.501210 0.147910 -0.202548
N2    N     N_R   0.500820 0.501290 0.852040 -0.195578
O1    O     O_R   0.499990 0.319640 0.618810 -0.586478
O2    O     O_R   0.500000 0.319660 0.381240 -0.584477
O3    O     O_R   0.379430 0.499990 0.618840 -0.555087
O4    O     O_R   0.379440 0.500020 0.381260 -0.570112
O5    O     O_R   0.500000 0.680340 0.618760 -0.572480
O6    O     O_R   0.500010 0.680360 0.381190 -0.594231
O7    O     O_R   0.620560 0.499980 0.618740 -0.605396
O8    O     O_R   0.620570 0.500010 0.381160 -0.586799
O9    O     O_3   0.079819 0.428901 0.742139 -0.711205
H20   H     H_    0.056212 0.504334 0.783031 0.329068
O10   O     O_3   0.498412 0.895723 0.015394 -0.706754
H21   H     H_    0.532974 0.944124 0.084903 0.302541
O11   O     O_3   0.412936 0.796721 0.792436 -0.669573
H22   H     H_    0.375421 0.789057 0.709758 0.307838
O12   O     O_3   0.919816 0.537246 0.246697 -0.716495
H23   H     H_    0.948153 0.620761 0.254434 0.352521
O13   O     O_3   0.082823 0.720886 0.430634 -0.614369
C35   C     C_3   0.152916 0.797549 0.475154 0.065906
H24   H     H_    0.191002 0.821666 0.381499 0.175854
H25   H     H_    0.195715 0.750504 0.547225 0.125623
C36   C     C_3   0.123344 0.917154 0.541923 -0.368412
H26   H     H_    0.082923 0.964686 0.466916 0.226423
H27   H     H_    0.085323 0.895013 0.636243 0.212527
C37   C     C_3   0.198145 0.004110 0.583146 -0.893240
H28   H     H_    0.238673 0.959210 0.660111 0.260585
H29   H     H_    0.174824 0.090014 0.630816 0.263840
H30   H     H_    0.236385 0.029412 0.490010 0.255765

loop_
_geom_bond_atom_site_label_1
_geom_bond_atom_site_label_2
_ccdc_geom_bond_type
C22   H12   S    
C36   H26   S    
C10   H6    S    
C30   H9    S    
Cu1   Cu2   S    
C36   C37   S    
C31   H16   S    
C3    C6    S    
C37   H30   S    
C37   H28   S    
C7    C8    T    
C32   O12   S    
C28   N2    A    
Cu1   O1    S    
C1    O2    A    
C36   H27   S    
C13   O11   S    
C15   C16   A    
C29   C33   S    
C18   C19   A    
C5    O13   S    
C28   H14   S    
C27   H8    S    
C23   O5    A    
C16   C17   A    
Cu1   O7    S    
Cu2   O6    S    
C9    C10   A    
Cu2   O2    S    
C23   O6    A    
O9    H20   S    
C29   O7    A    
C21   C22   A    
C25   N2    A    
C37   H29   S    
O13   C35   S    
C30   C34   S    
C5    H18   S    
C24   C25   A    
Cu2   O8    S    
O10   H21   S    
C25   C26   A    
Cu1   O3    S    
C17   H4    S    
C19   C23   S    
C35   H24   S    
Cu2   N1    S    
C2    H2    S    
C31   C32   S    
C4    H3    S    
C8    C12   S    
C5    C34   S    
C17   C18   A    
C31   C34   S    
C1    C16   S    
C35   H25   S    
C30   O9    S    
C29   O8    A    
C4    H19   S    
C7    C34   S    
C22   C24   A    
C3    C4    S    
C32   H17   S    
O11   H22   S    
C11   O10   S    
C24   H13   S    
C27   N1    A    
C14   C19   A    
C31   H15   S    
O12   H23   S    
C26   N1    A    
C9    H5    S    
C6    C33   T    
C2    C30   S    
Cu1   N2    S    
C2    C3    S    
C9    C15   A    
C1    O1    A    
C12   O4    A    
C11   C13   A    
C2    H1    S    
C20   C26   A    
Cu1   O5    S    
C3    C32   S    
C35   C36   S    
C10   C11   A    
C12   O3    A    
C4    C5    S    
C20   C21   A    
C18   H7    S    
C27   C28   A    
C14   C15   A    
C13   C14   A    
C20   H10   S    
Cu2   O4    S    
C21   H11   S    
