data_mof_unit_40358.cif
_audit_creation_date              2012-12-10T17:16:43-0500
_audit_creation_method            fapswitch 2.2
_symmetry_space_group_name_H-M    P1
_symmetry_Int_Tables_number       1
_space_group_crystal_system       triclinic
_cell_length_a                    10.188827
_cell_length_b                    10.749325
_cell_length_c                    10.709766
_cell_angle_alpha                 91.806227
_cell_angle_beta                  94.252675
_cell_angle_gamma                 80.86149
_cell_volume                      1154.65702616

loop_
_atom_site_label
_atom_site_type_symbol
_atom_type_description
_atom_site_fract_x
_atom_site_fract_y
_atom_site_fract_z
_atom_type_partial_charge
C1    C     C_R   0.446828 0.513953 0.266505 0.920540
C2    C     C_R   0.499239 0.740247 0.504498 0.876097
C3    C     C_R   0.579946 0.109133 0.285557 -0.187923
C4    C     C_R   0.363816 0.909938 0.693952 -0.263554
C5    C     C_R   0.615840 0.034608 0.180534 0.278004
C6    C     C_R   0.315802 0.989888 0.792662 0.271886
C7    C     C_R   0.603065 0.907614 0.178968 -0.236684
C8    C     C_R   0.350657 0.110162 0.804102 -0.151129
C9    C     C_R   0.561658 0.854503 0.283288 -0.180462
C10   C     C_R   0.421244 0.153210 0.712993 -0.224906
C11   C     C_R   0.533535 0.926879 0.393462 0.069539
C12   C     C_R   0.554450 0.489708 0.732561 0.906006
C13   C     C_R   0.455144 0.078514 0.605093 0.076848
C14   C     C_R   0.539889 0.055838 0.393696 0.021468
C15   C     C_R   0.437531 0.952268 0.600319 0.048322
C16   C     C_R   0.490836 0.874714 0.500090 -0.181549
C17   C     C_R   0.502898 0.128863 0.500789 -0.166519
C18   C     C_3   0.790492 0.129864 0.100213 -0.791080
C19   C     C_3   0.251663 0.967850 0.006709 -0.813872
C20   C     C_3   0.918740 0.546640 0.741012 -0.771598
C21   C     C_3   0.123081 0.385630 0.292974 -0.709576
C22   C     C_2   0.425391 0.538364 0.132911 -0.106286
C23   C     C_2   0.581520 0.486993 0.866081 -0.095051
C24   C     C_2   0.526956 0.570798 0.069861 0.085687
C25   C     C_2   0.514878 0.578675 0.934932 0.071721
C26   C     C_2   0.075552 0.480340 0.498352 0.178352
C27   C     C_2   0.927378 0.504524 0.518009 0.174695
C28   C     C_R   0.500521 0.260935 0.498894 0.860458
H1    H     H_    0.317738 0.173889 0.879704 0.143969
H2    H     H_    0.822830 0.164336 0.012685 0.240053
H3    H     H_    0.866985 0.050404 0.134288 0.240348
H4    H     H_    0.783606 0.208198 0.170768 0.245628
H5    H     H_    0.187572 0.870564 0.846839 0.209564
H6    H     H_    0.176259 0.929251 0.057327 0.238628
H7    H     H_    0.245742 0.068894 0.033805 0.247363
H8    H     H_    0.351685 0.916445 0.036338 0.242771
H9    H     H_    0.490392 0.766800 0.916002 0.178661
H10   H     H_    0.347622 0.704261 0.902586 0.183119
H11   H     H_    0.714773 0.496866 0.133597 0.221127
H12   H     H_    0.624647 0.850239 0.096213 0.130645
H13   H     H_    0.703581 0.640029 0.074776 0.164610
H14   H     H_    0.624832 0.299374 0.891767 0.187398
H15   H     H_    0.758923 0.373125 0.889177 0.181062
H16   H     H_    0.314301 0.459863 0.994844 0.198550
H17   H     H_    0.249034 0.608951 0.040455 0.184127
H18   H     H_    0.889429 0.681171 0.601738 0.203314
H19   H     H_    0.856172 0.605406 0.808086 0.234567
H20   H     H_    0.024617 0.555248 0.765968 0.206113
H21   H     H_    0.905681 0.446799 0.750347 0.248150
H22   H     H_    0.099421 0.289378 0.453899 0.205170
H23   H     H_    0.582269 0.208827 0.279596 0.160602
H24   H     H_    0.044587 0.336147 0.246107 0.185273
H25   H     H_    0.219812 0.341419 0.258111 0.253409
H26   H     H_    0.102685 0.486321 0.265999 0.247785
H27   H     H_    0.336501 0.817431 0.689901 0.182718
H28   H     H_    0.547969 0.757316 0.275458 0.174835
H29   H     H_    0.444278 0.247647 0.726125 0.147756
H30   H     H_    0.877908 0.387020 0.379394 0.141733
H31   H     H_    0.117308 0.631606 0.598402 0.131827
H32   H     H_    0.657729 0.034918 0.993968 0.221673
N1    N     N_2   0.157300 0.551390 0.551120 -0.201239
N2    N     N_2   0.128375 0.371862 0.427584 -0.252023
N3    N     N_2   0.842700 0.448610 0.448880 -0.204069
N4    N     N_2   0.662599 0.088085 0.075636 -0.314147
N5    N     N_2   0.223841 0.952491 0.872943 -0.313174
N6    N     N_3   0.445926 0.691541 0.878359 -0.470445
N7    N     N_3   0.655348 0.585600 0.130209 -0.437711
N8    N     N_3   0.664208 0.379984 0.922449 -0.479360
N9    N     N_3   0.298863 0.521833 0.071475 -0.491248
N10   N     N_2   0.878186 0.588973 0.614899 -0.238774
O1    O     O_R   0.568940 0.489660 0.307530 -0.618718
O2    O     O_R   0.431060 0.510340 0.692470 -0.612025
O3    O     O_R   0.348880 0.522640 0.340350 -0.585040
O4    O     O_R   0.651120 0.477360 0.659650 -0.585234
O5    O     O_R   0.610030 0.300280 0.483580 -0.626580
O6    O     O_R   0.389970 0.699720 0.516420 -0.628524
O7    O     O_R   0.389970 0.333270 0.516400 -0.584619
O8    O     O_R   0.610030 0.666730 0.483600 -0.592609
Zn1   Zn    Zn3+2 0.646940 0.477980 0.478080 0.947409
Zn2   Zn    Zn3+2 0.353060 0.522020 0.521920 0.946142

loop_
_geom_bond_atom_site_label_1
_geom_bond_atom_site_label_2
_ccdc_geom_bond_type
C12   O4    A    
O1    Zn1   S    
H5    N5    S    
H13   N7    S    
N3    Zn1   S    
C12   C23   S    
C26   C27   S    
C1    O1    A    
C8    H1    S    
C26   N1    D    
C19   H8    S    
C21   H26   S    
C11   C14   A    
N1    Zn2   S    
C15   C16   A    
C24   N7    S    
C6    N5    S    
H10   N6    S    
H15   N8    S    
C7    H12   S    
C18   H2    S    
C2    C16   S    
C22   N9    S    
C12   O2    A    
C1    C22   S    
H14   N8    S    
C14   C17   A    
C20   N10   S    
H31   N1    S    
H17   N9    S    
C10   H29   S    
C24   C25   S    
C4    C6    A    
C5    C7    A    
C3    H23   S    
O8    Zn1   S    
C6    C8    A    
C10   C13   A    
C5    N4    S    
C23   N8    S    
C20   H21   S    
C2    O8    A    
C11   C16   A    
H9    N6    S    
H16   N9    S    
C9    H28   S    
C28   O7    A    
C9    C11   A    
C21   N2    S    
C20   H20   S    
C27   N10   S    
C27   N3    D    
O4    Zn1   S    
C13   C15   A    
C4    H27   S    
H22   N2    S    
C22   C24   D    
C18   H4    S    
C2    O6    A    
O7    Zn2   S    
H30   N3    S    
C7    C9    A    
C17   C28   S    
H11   N7    S    
C25   N6    S    
O6    Zn2   S    
C3    C5    A    
C19   H6    S    
C3    C14   A    
C13   C17   A    
H32   N4    S    
C1    O3    A    
C4    C15   A    
C26   N2    S    
O2    Zn2   S    
C19   H7    S    
C21   H25   S    
C18   N4    S    
O3    Zn2   S    
C19   N5    S    
C23   C25   D    
H18   N10   S    
C20   H19   S    
C8    C10   A    
C18   H3    S    
C28   O5    A    
O5    Zn1   S    
C21   H24   S    
