data_mof_unit_8804.cif
_audit_creation_date              2012-10-26T18:50:48-0400
_audit_creation_method            fapswitch 2.2
_symmetry_space_group_name_H-M    P1
_symmetry_Int_Tables_number       1
_space_group_crystal_system       triclinic
_cell_length_a                    12.320648
_cell_length_b                    13.32123
_cell_length_c                    17.345311
_cell_angle_alpha                 105.315578
_cell_angle_beta                  74.85887
_cell_angle_gamma                 117.033585
_cell_volume                      2412.48719366

loop_
_atom_site_label
_atom_site_type_symbol
_atom_type_description
_atom_site_fract_x
_atom_site_fract_y
_atom_site_fract_z
_atom_type_partial_charge
C1    C     C_R   0.144419 0.713587 0.509793 0.529813
C2    C     C_R   0.027717 0.509223 0.263970 0.014937
C3    C     C_R   0.707364 0.012793 0.568823 -0.130846
C4    C     C_R   0.987714 0.503539 0.652047 0.538185
C5    C     C_R   0.771923 0.169413 0.498597 0.003184
C6    C     C_R   0.190760 0.890430 0.463154 -0.129431
C7    C     C_R   0.274852 0.994865 0.440490 -0.140210
C8    C     C_R   0.395799 0.042421 0.455023 -0.116979
C9    C     C_R   0.433496 0.988632 0.496890 0.035964
C10   C     C_R   0.343356 0.887856 0.526677 0.029534
C11   C     C_R   0.557108 0.030834 0.510452 0.032931
C12   C     C_R   0.890496 0.528702 0.796564 -0.127242
C13   C     C_R   0.585673 0.975448 0.557014 0.051466
C14   C     C_R   0.491812 0.886534 0.594412 -0.130415
C15   C     C_R   0.371872 0.844087 0.580219 -0.121688
C16   C     C_R   0.855528 0.287141 0.490598 0.546382
C17   C     C_R   0.653087 0.127678 0.481006 -0.127148
C18   C     C_R   0.800417 0.109357 0.539449 -0.135185
C19   C     C_R   0.225251 0.834265 0.503865 0.004954
C20   C     C_R   0.628976 0.651778 0.643924 -0.034972
C21   C     C_R   0.252663 0.357090 0.386736 0.049316
C22   C     C_R   0.351971 0.326162 0.362114 -0.166532
C23   C     C_R   0.966824 0.561005 0.163826 -0.110817
C24   C     C_R   0.450043 0.378499 0.405527 -0.137779
C25   C     C_R   0.449398 0.462348 0.474902 0.001857
C26   C     C_R   0.344868 0.489918 0.497968 0.185491
C27   C     C_R   0.547719 0.519754 0.522357 -0.019222
C28   C     C_R   0.014185 0.499256 0.348198 0.544437
C29   C     C_R   0.534482 0.595923 0.595407 0.029269
C30   C     C_R   0.429097 0.617883 0.617090 -0.189004
C31   C     C_R   0.340651 0.570546 0.567479 -0.107632
C32   C     C_R   0.659229 0.505162 0.500452 0.035656
C33   C     C_R   0.737098 0.634630 0.617001 0.040944
C34   C     C_R   0.952294 0.547723 0.243003 -0.134855
C35   C     C_R   0.982478 0.505770 0.737551 0.013813
C36   C     C_R   0.069852 0.484368 0.760729 -0.138703
C37   C     C_R   0.065857 0.486431 0.841712 -0.109543
C38   C     C_R   0.975118 0.511284 0.900908 0.043170
C39   C     C_R   0.886622 0.530839 0.877802 -0.116622
C40   C     C_R   0.617458 0.726254 0.723183 0.005185
C41   C     C_R   0.702944 0.840956 0.735765 -0.112237
C42   C     C_R   0.692325 0.911119 0.810537 -0.109306
C43   C     C_R   0.597244 0.866995 0.873456 -0.098795
C44   C     C_R   0.512963 0.752457 0.861844 -0.113889
C45   C     C_R   0.119412 0.485979 0.204745 -0.128375
C46   C     C_R   0.523279 0.682021 0.787172 -0.103591
C47   C     C_R   0.133653 0.499022 0.125220 -0.116777
C48   C     C_R   0.055866 0.534336 0.104136 0.042216
C49   C     C_2   0.967778 0.513455 0.986917 -0.134806
C50   C     C_2   0.067158 0.539893 0.019102 -0.136423
Cu1   Cu    Cu3+1 0.900140 0.524980 0.518800 0.925988
Cu2   Cu    Cu3+1 0.099860 0.475020 0.481200 0.924880
H1    H     H_    0.141066 0.465276 0.716368 0.129690
H2    H     H_    0.300127 0.779085 0.613313 0.100183
H3    H     H_    0.810295 0.675557 0.653180 0.128440
H4    H     H_    0.882628 0.568669 0.287816 0.127780
H5    H     H_    0.415351 0.675753 0.671605 0.115669
H6    H     H_    0.676258 0.448201 0.446629 0.117439
H7    H     H_    0.177170 0.316110 0.352579 0.126187
H8    H     H_    0.523881 0.350551 0.384224 0.091921
H9    H     H_    0.352889 0.261352 0.309233 0.097270
H10   H     H_    0.270161 0.600339 0.585447 0.176889
H11   H     H_    0.179758 0.457499 0.219694 0.124945
H12   H     H_    0.203474 0.479133 0.079776 0.099741
H13   H     H_    0.157853 0.560541 0.981930 0.110286
H14   H     H_    0.815203 0.548803 0.922771 0.101979
H15   H     H_    0.908790 0.592759 0.149697 0.103765
H16   H     H_    0.821700 0.544997 0.780114 0.128699
H17   H     H_    0.877311 0.492310 0.024553 0.115364
H18   H     H_    0.132421 0.466307 0.857217 0.099597
H19   H     H_    0.777298 0.876007 0.687608 0.095177
H20   H     H_    0.757915 0.999675 0.819731 0.109455
H21   H     H_    0.589168 0.921433 0.931296 0.107261
H22   H     H_    0.439725 0.718192 0.910726 0.101406
H23   H     H_    0.892065 0.141955 0.554091 0.128081
H24   H     H_    0.457771 0.593248 0.779034 0.105769
H25   H     H_    0.511746 0.851457 0.635772 0.117420
H26   H     H_    0.729481 0.970064 0.603674 0.106521
H27   H     H_    0.637614 0.176241 0.447525 0.101482
H28   H     H_    0.100133 0.851083 0.445685 0.130165
H29   H     H_    0.456574 0.121651 0.433400 0.099832
H30   H     H_    0.247563 0.037161 0.408517 0.118010
N1    N     N_R   0.749710 0.562810 0.547300 -0.246659
N2    N     N_R   0.249640 0.437820 0.453210 -0.235466
O1    O     O_R   0.025490 0.682370 0.523640 -0.505643
O2    O     O_R   0.194150 0.640180 0.491890 -0.508278
O3    O     O_R   0.905900 0.523560 0.631310 -0.507456
O4    O     O_R   0.074570 0.481370 0.599560 -0.532887
O5    O     O_R   0.805850 0.359820 0.508110 -0.499002
O6    O     O_R   0.974510 0.317630 0.476360 -0.506365
O7    O     O_R   0.925430 0.518630 0.400440 -0.515240
O8    O     O_R   0.094100 0.476440 0.368690 -0.509975

loop_
_geom_bond_atom_site_label_1
_geom_bond_atom_site_label_2
_ccdc_geom_bond_type
C43   H21   S    
C34   H4    S    
C18   H23   S    
C27   C29   A    
C41   C42   A    
Cu2   O6    S    
C35   C36   A    
C32   H6    S    
Cu1   O1    S    
C46   H24   S    
C7    C8    A    
C38   C49   S    
C40   C46   A    
C6    C19   A    
C12   H16   S    
C37   C38   A    
C16   O6    A    
C21   C22   A    
C36   C37   A    
C21   H7    S    
C10   C15   A    
C30   C31   A    
C20   C40   S    
C5    C17   A    
C30   H5    S    
C17   H27   S    
C3    C18   A    
C14   H25   S    
C23   H15   S    
Cu2   N2    S    
C5    C16   S    
C36   H1    S    
Cu1   O7    S    
C8    C9    A    
C9    C10   A    
C3    C13   A    
C41   H19   S    
C2    C34   A    
C48   C50   S    
C4    C35   S    
C16   O5    A    
C49   H17   S    
C13   C14   A    
C31   H10   S    
C44   C46   A    
C20   C29   A    
C45   C47   A    
C2    C45   A    
C1    O1    A    
C1    C19   S    
Cu1   Cu2   S    
C15   H2    S    
Cu2   O4    S    
C24   C25   A    
Cu1   O3    S    
C47   H12   S    
C4    O3    A    
C5    C18   A    
C25   C26   A    
C45   H11   S    
C8    H29   S    
C43   C44   A    
C29   C30   A    
C9    C11   A    
C6    H28   S    
C47   C48   A    
C21   N2    A    
C10   C19   A    
C24   H8    S    
C23   C34   A    
C42   H20   S    
C33   H3    S    
C28   O8    A    
C12   C35   A    
C44   H22   S    
C33   N1    A    
C20   C33   A    
C40   C41   A    
C39   H14   S    
C22   C24   A    
Cu2   O8    S    
C42   C43   A    
Cu1   N1    S    
C1    O2    A    
C32   N1    A    
C11   C17   A    
C26   N2    A    
C23   C48   A    
C27   C32   A    
C6    C7    A    
C4    O4    A    
C25   C27   A    
C12   C39   A    
Cu2   O2    S    
Cu1   O5    S    
C22   H9    S    
C11   C13   A    
C38   C39   A    
C28   O7    A    
C50   H13   S    
C26   C31   A    
C7    H30   S    
C49   C50   D    
C14   C15   A    
C2    C28   S    
C37   H18   S    
C3    H26   S    
