data_mof_unit_56738.cif
_audit_creation_date              2012-12-10T17:02:03-0500
_audit_creation_method            fapswitch 2.2
_symmetry_space_group_name_H-M    P1
_symmetry_Int_Tables_number       1
_space_group_crystal_system       triclinic
_cell_length_a                    10.827659
_cell_length_b                    11.006047
_cell_length_c                    9.858502
_cell_angle_alpha                 110.514671
_cell_angle_beta                  99.055397
_cell_angle_gamma                 91.53213
_cell_volume                      1082.34819483

loop_
_atom_site_label
_atom_site_type_symbol
_atom_type_description
_atom_site_fract_x
_atom_site_fract_y
_atom_site_fract_z
_atom_type_partial_charge
C1    C     C_R   0.487051 0.254103 0.441407 0.832013
C2    C     C_R   0.085067 0.610151 0.614420 0.072884
C3    C     C_R   0.127665 0.511095 0.498536 -0.128673
C4    C     C_R   0.040556 0.422082 0.378625 0.076783
C5    C     C_R   0.913685 0.424859 0.386684 -0.166453
C6    C     C_R   0.871265 0.515717 0.503915 -0.121660
C7    C     C_2   0.468033 0.115033 0.410756 -0.301391
C8    C     C_2   0.459805 0.072599 0.520768 -0.143534
C9    C     C_2   0.507753 0.885664 0.590090 0.113705
C10   C     C_2   0.443350 0.933796 0.494196 0.324838
C11   C     C_2   0.510764 0.511811 0.081520 0.487731
C12   C     C_R   0.262203 0.502323 0.499969 0.768636
C13   C     C_2   0.488805 0.489984 0.919095 -0.097717
C14   C     C_R   0.505195 0.745864 0.558573 0.847089
C15   C     C_R   0.737428 0.507027 0.501738 0.819380
C16   C     C_R   0.168118 0.711455 0.724078 -0.130935
C17   C     C_R   0.124546 0.804834 0.838823 -0.114166
C18   C     C_R   0.997102 0.804267 0.843119 -0.122249
C19   C     C_R   0.912557 0.711742 0.731436 -0.127130
C20   C     C_R   0.955078 0.611741 0.617471 0.083600
Cu1   Cu    Cu3+1 0.521920 0.521810 0.644910 0.981510
Cu2   Cu    Cu3+1 0.478080 0.478190 0.355090 1.029627
H1    H     H_    0.458901 0.047470 0.297963 0.204650
H2    H     H_    0.414670 0.417599 0.846387 0.133652
H3    H     H_    0.626186 0.622297 0.930500 0.257005
H4    H     H_    0.376522 0.376232 0.065111 0.150735
H5    H     H_    0.266916 0.722902 0.721842 0.164279
H6    H     H_    0.189965 0.879363 0.923169 0.156068
H7    H     H_    0.963031 0.877486 0.931551 0.164010
H8    H     H_    0.814216 0.721965 0.735345 0.176041
H9    H     H_    0.845021 0.354534 0.302252 0.157571
H10   H     H_    0.470396 0.140761 0.633449 0.194694
N1    N     N_2   0.445130 0.445430 0.137370 -0.301796
N2    N     N_2   0.554930 0.554500 0.862630 -0.269434
O1    O     O_R   0.511700 0.332330 0.577400 -0.569465
O2    O     O_R   0.474680 0.295500 0.332650 -0.577297
O3    O     O_R   0.338160 0.518420 0.622400 -0.591871
O4    O     O_R   0.301140 0.481590 0.377650 -0.577775
O5    O     O_R   0.525320 0.704500 0.667350 -0.567203
O6    O     O_R   0.488300 0.667670 0.422600 -0.489957
O7    O     O_R   0.698860 0.518410 0.622350 -0.589217
O8    O     O_R   0.661840 0.481580 0.377600 -0.528554
C21   C     C_3   0.083339 0.326548 0.242548 -0.371410
C22   C     C_3   0.980901 0.233967 0.121115 -0.367416
C23   C     C_3   0.036803 0.153520 0.988338 -0.800057
H11   H     H_    0.081924 0.218207 0.941938 0.251437
H12   H     H_    0.107931 0.093482 0.021028 0.245090
H13   H     H_    0.961125 0.088694 0.901597 0.271450
H14   H     H_    0.934987 0.166865 0.163985 0.234908
H15   H     H_    0.909396 0.291035 0.082794 0.246913
H16   H     H_    0.129076 0.384840 0.189301 0.237861
H17   H     H_    0.152907 0.266541 0.278701 0.201105
Cl1   Cl    Cl    0.630044 0.632958 0.196609 -0.570482
Cl2   Cl    Cl    0.333196 0.836583 0.337071 -0.603225
Cl3   Cl    Cl    0.606615 0.987734 0.754084 -0.656197

loop_
_geom_bond_atom_site_label_1
_geom_bond_atom_site_label_2
_ccdc_geom_bond_type
C22   H14   S    
C21   C22   S    
Cu1   O1    S    
C4    C21   S    
C2    C16   A    
C6    C20   A    
C9    C10   D    
H4    N1    S    
C19   C20   A    
Cu1   O5    S    
H3    N2    S    
C9    C14   S    
Cu2   O6    S    
C17   H6    S    
C16   H5    S    
C2    C3    A    
C6    C15   S    
C7    C8    D    
C18   H7    S    
Cu1   Cu2   S    
C11   C13   S    
C21   H16   S    
Cu2   O8    S    
C8    H10   S    
C7    H1    S    
C5    C6    A    
C13   H2    S    
C17   C18   A    
C23   H12   S    
C1    O2    A    
C12   O4    A    
C9    Cl3   S    
C10   Cl2   S    
Cu1   O7    S    
C21   H17   S    
C14   O6    A    
C3    C4    A    
Cu2   O4    S    
C23   H11   S    
C11   N1    D    
Cu1   O3    S    
C22   C23   S    
C15   O7    A    
C8    C10   S    
C18   C19   A    
C23   H13   S    
C22   H15   S    
C12   O3    A    
Cu2   N1    S    
C16   C17   A    
C13   N2    D    
C3    C12   S    
C1    O1    A    
C14   O5    A    
C1    C7    S    
C19   H8    S    
C2    C20   A    
Cu1   N2    S    
Cu2   O2    S    
C15   O8    A    
C4    C5    A    
C5    H9    S    
C11   Cl1   S    
