data_mof_unit_22946.cif
_audit_creation_date              2012-10-26T19:50:37-0400
_audit_creation_method            fapswitch 2.2
_symmetry_space_group_name_H-M    P1
_symmetry_Int_Tables_number       1
_space_group_crystal_system       triclinic
_cell_length_a                    13.857123
_cell_length_b                    15.137824
_cell_length_c                    15.799456
_cell_angle_alpha                 89.950842
_cell_angle_beta                  70.479552
_cell_angle_gamma                 89.966469
_cell_volume                      3123.70570113

loop_
_atom_site_label
_atom_site_type_symbol
_atom_type_description
_atom_site_fract_x
_atom_site_fract_y
_atom_site_fract_z
_atom_type_partial_charge
C1    C     C_R   0.499944 0.670131 0.500092 0.547672
C2    C     C_R   0.572216 0.187028 0.527309 -0.132184
C3    C     C_R   0.499822 0.766576 0.500341 0.015702
C4    C     C_R   0.499916 0.233428 0.500260 0.013517
C5    C     C_R   0.592655 0.812994 0.474259 -0.134038
C6    C     C_R   0.427450 0.187060 0.473507 -0.131529
C7    C     C_R   0.592602 0.904801 0.473833 -0.122770
C8    C     C_R   0.427789 0.095249 0.473123 -0.119873
C9    C     C_R   0.499682 0.951439 0.500772 0.034610
C10   C     C_R   0.499649 0.048567 0.500758 0.033507
C11   C     C_R   0.916934 0.451448 0.437277 0.089830
C12   C     C_R   0.499993 0.329872 0.500055 0.549124
C13   C     C_R   0.108850 0.580439 0.495314 0.092474
C14   C     C_R   0.814828 0.452474 0.437943 0.015168
C15   C     C_R   0.211675 0.577744 0.492924 0.008766
C16   C     C_R   0.438285 0.501441 0.672285 0.549396
C17   C     C_R   0.561984 0.500872 0.327518 0.551189
C18   C     C_R   0.764701 0.546395 0.564416 0.013931
C19   C     C_R   0.204240 0.423052 0.511428 0.033252
C20   C     C_R   0.866073 0.548220 0.567831 0.223752
C21   C     C_R   0.101124 0.421902 0.515011 0.228027
C22   C     C_R   0.943728 0.500192 0.502900 0.102620
C23   C     C_R   0.393844 0.578308 0.086504 -0.105132
C24   C     C_R   0.052492 0.501004 0.504219 0.100413
C25   C     C_R   0.403268 0.513834 0.769931 -0.004314
C26   C     C_R   0.599478 0.505301 0.228772 -0.003492
C27   C     C_R   0.275745 0.562623 0.907381 -0.133199
C28   C     C_R   0.737607 0.498112 0.086417 -0.124924
C29   C     C_R   0.303018 0.539644 0.817203 -0.146206
C30   C     C_R   0.703705 0.495770 0.179856 -0.153715
C31   C     C_R   0.474679 0.507716 0.814488 -0.136558
C32   C     C_R   0.530123 0.520469 0.183229 -0.137648
C33   C     C_R   0.450824 0.534618 0.904293 0.005519
C34   C     C_R   0.630438 0.519198 0.901080 -0.126678
C35   C     C_R   0.562984 0.526926 0.088897 0.001202
C36   C     C_R   0.349123 0.562731 0.951589 0.059580
C37   C     C_R   0.668002 0.511292 0.039913 0.081108
C38   C     C_R   0.525063 0.532227 0.948302 -0.006325
C39   C     C_R   0.493122 0.544759 0.042298 -0.010734
C40   C     C_3   0.194194 0.656486 0.178262 -0.330361
C41   C     C_3   0.834803 0.404303 0.876120 -0.318084
C42   C     C_3   0.061298 0.448478 0.299061 -0.306299
C43   C     C_3   0.059195 0.688665 0.405237 -0.332020
C44   C     C_3   0.833569 0.665740 0.669724 -0.010728
C45   C     C_R   0.322474 0.590413 0.041697 0.146747
C46   C     C_3   0.887895 0.720705 0.720680 -0.362505
C47   C     C_3   0.999551 0.330429 0.621125 -0.018767
C48   C     C_3   0.931639 0.249049 0.636233 -0.370660
C49   C     C_R   0.701448 0.509477 0.945581 0.133246
C50   C     C_R   0.406824 0.904750 0.527568 -0.121464
C51   C     C_R   0.571606 0.095214 0.528196 -0.122022
C52   C     C_R   0.406906 0.812936 0.526733 -0.133564
Cu1   Cu    Cu3+1 0.403570 0.500010 0.500000 0.926865
Cu2   Cu    Cu3+1 0.596430 0.499990 0.500000 0.921967
H1    H     H_    0.794155 0.415055 0.388233 0.124923
H2    H     H_    0.818545 0.488762 0.050899 0.145176
H3    H     H_    0.373748 0.600593 0.154788 0.106080
H4    H     H_    0.661032 0.518560 0.828746 0.103636
H5    H     H_    0.334130 0.939137 0.550178 0.101538
H6    H     H_    0.626648 0.060794 0.551339 0.102185
H7    H     H_    0.334342 0.778296 0.547922 0.111449
H8    H     H_    0.628271 0.221654 0.548971 0.124365
H9    H     H_    0.665275 0.778395 0.452979 0.122611
H10   H     H_    0.371497 0.221700 0.451650 0.124741
H11   H     H_    0.665250 0.939224 0.451345 0.102585
H12   H     H_    0.253259 0.639095 0.485261 0.132292
H13   H     H_    0.372680 0.060857 0.450122 0.105772
H14   H     H_    0.203982 0.677133 0.045856 0.244504
H15   H     H_    0.113412 0.679351 0.200874 0.136838
H16   H     H_    0.243139 0.711379 0.187120 0.138809
H17   H     H_    0.199106 0.599117 0.220237 0.144283
H18   H     H_    0.831088 0.533793 0.836711 0.268557
H19   H     H_    0.918567 0.399321 0.840492 0.137489
H20   H     H_    0.794161 0.375135 0.832900 0.140021
H21   H     H_    0.815785 0.366167 0.939710 0.154437
H22   H     H_    0.959719 0.346014 0.349351 0.245355
H23   H     H_    0.703327 0.580757 0.614096 0.120636
H24   H     H_    0.114101 0.402144 0.250995 0.152680
H25   H     H_    0.108275 0.493392 0.324618 0.146748
H26   H     H_    0.018923 0.487196 0.262985 0.132022
H27   H     H_    0.089469 0.713970 0.522034 0.236662
H28   H     H_    0.014945 0.750867 0.411160 0.140443
H29   H     H_    0.021211 0.636994 0.377738 0.149522
H30   H     H_    0.138283 0.700062 0.358847 0.123705
H31   H     H_    0.756731 0.648161 0.717422 0.113973
H32   H     H_    0.825766 0.707103 0.613912 0.133427
H33   H     H_    0.964896 0.740502 0.675264 0.155809
H34   H     H_    0.239289 0.361395 0.519480 0.142785
H35   H     H_    0.842630 0.781150 0.747569 0.092988
H36   H     H_    0.896416 0.682078 0.777527 0.153380
H37   H     H_    0.950000 0.387921 0.652149 0.145554
H38   H     H_    0.057073 0.320198 0.655404 0.119418
H39   H     H_    0.978549 0.189881 0.607521 0.158172
H40   H     H_    0.892715 0.238628 0.709339 0.086080
H41   H     H_    0.872737 0.258066 0.603495 0.160099
H42   H     H_    0.449934 0.524053 0.222620 0.124179
H43   H     H_    0.548638 0.480664 0.777448 0.119598
H44   H     H_    0.758965 0.484811 0.213709 0.124031
H45   H     H_    0.246140 0.543839 0.784131 0.131878
H46   H     H_    0.196721 0.580561 0.941661 0.123884
N1    N     N_R   0.741310 0.499980 0.500000 -0.266200
N2    N     N_R   0.258690 0.500020 0.500000 -0.270019
N3    N     N_2   0.224707 0.631153 0.084840 -0.524491
N4    N     N_2   0.806564 0.496113 0.894395 -0.533136
N5    N     N_2   0.990734 0.399153 0.372074 -0.482616
N6    N     N_2   0.061953 0.663564 0.492545 -0.493695
O1    O     O_R   0.418570 0.628550 0.499990 -0.516532
O2    O     O_3   0.048816 0.342662 0.527991 -0.549220
O3    O     O_R   0.581430 0.371450 0.500010 -0.500574
O4    O     O_R   0.581440 0.628540 0.499990 -0.503609
O5    O     O_R   0.418560 0.371460 0.500010 -0.515116
O6    O     O_R   0.372890 0.500010 0.629830 -0.493688
O7    O     O_R   0.627110 0.499990 0.370170 -0.504317
O8    O     O_R   0.535760 0.500000 0.629840 -0.512574
O9    O     O_R   0.464240 0.500000 0.370160 -0.495699
O10   O     O_3   0.890949 0.588261 0.637358 -0.567220

loop_
_geom_bond_atom_site_label_1
_geom_bond_atom_site_label_2
_ccdc_geom_bond_type
C25   C31   A    
C26   C32   A    
H22   N5    S    
C23   C45   A    
C40   H17   S    
C27   C29   A    
C43   H29   S    
C47   H38   S    
Cu2   N1    S    
C2    C4    A    
H14   N3    S    
C49   N4    S    
C28   H2    S    
C17   O7    A    
C46   H35   S    
Cu1   Cu2   S    
C42   H26   S    
Cu2   O4    S    
C48   H40   S    
C50   H5    S    
C35   C37   A    
C52   H7    S    
C17   O9    A    
C38   C39   A    
C19   N2    A    
C7    H11   S    
Cu2   O7    S    
C33   C36   A    
C5    H9    S    
C23   H3    S    
C6    H10   S    
C45   N3    S    
C41   H20   S    
C11   N5    S    
C50   C52   A    
C31   C33   A    
C4    C12   S    
C9    C10   S    
Cu1   O5    S    
C14   H1    S    
C42   H25   S    
C43   H30   S    
C44   H32   S    
C10   C51   A    
C12   O3    A    
C44   C46   S    
C25   C29   A    
C27   H46   S    
C48   H39   S    
C29   H45   S    
C32   C35   A    
C4    C6    A    
C19   H34   S    
C40   H15   S    
C48   H41   S    
C5    C7    A    
C14   N1    A    
C6    C8    A    
H18   N4    S    
C15   H12   S    
C13   C24   A    
C1    C3    S    
C18   N1    A    
C35   C39   A    
C1    O4    A    
C41   H21   S    
C37   C49   A    
Cu1   O1    S    
C47   C48   S    
Cu1   N2    S    
C36   C45   A    
C44   O10   S    
C40   H16   S    
C1    O1    A    
Cu1   O6    S    
C32   H42   S    
C20   C22   A    
C42   H24   S    
C13   C15   A    
C22   C24   S    
C17   C26   S    
C44   H31   S    
C16   O6    A    
C20   O10   S    
C46   H33   S    
C16   C25   S    
C7    C9    A    
H27   N6    S    
C34   C49   A    
C19   C21   A    
C34   C38   A    
C47   H37   S    
C9    C50   A    
C13   N6    S    
C3    C5    A    
C16   O8    A    
C3    C52   A    
C26   C30   A    
C46   H36   S    
C27   C36   A    
C30   H44   S    
C11   C22   A    
C33   C38   A    
C41   N4    S    
C28   C30   A    
C40   N3    S    
C28   C37   A    
C18   H23   S    
C23   C39   A    
Cu2   O8    S    
C11   C14   A    
C18   C20   A    
C31   H43   S    
C15   N2    A    
C42   N5    S    
C21   O2    S    
C2    C51   A    
C41   H19   S    
C2    H8    S    
Cu2   O3    S    
C8    H13   S    
C8    C10   A    
C47   O2    S    
C21   C24   A    
C34   H4    S    
C43   H28   S    
C51   H6    S    
C43   N6    S    
C12   O5    A    
Cu1   O9    S    
