data_mof_unit_64118.cif
_audit_creation_date              2012-12-10T19:06:05-0500
_audit_creation_method            fapswitch 2.2
_symmetry_space_group_name_H-M    P1
_symmetry_Int_Tables_number       1
_space_group_crystal_system       cubic
_cell_length_a                    30.311948
_cell_length_b                    30.311948
_cell_length_c                    30.311948
_cell_angle_alpha                 90.0
_cell_angle_beta                  90.0
_cell_angle_gamma                 90.0
_cell_volume                      27851.0479961

loop_
_atom_site_label
_atom_site_type_symbol
_atom_type_description
_atom_site_fract_x
_atom_site_fract_y
_atom_site_fract_z
_atom_type_partial_charge
C1    C     C_R   0.500000 1.000000 0.913738 0.935011
C2    C     C_R   1.000000 0.500000 0.913738 0.934965
C3    C     C_R   0.037337 0.485124 0.342556 0.602652
C4    C     C_R   0.962661 0.342557 0.514872 0.602646
C5    C     C_R   0.962663 0.485124 0.657443 0.602652
C6    C     C_R   0.962663 0.657443 0.485124 0.602644
C7    C     C_R   0.962663 0.514876 0.342556 0.602654
C8    C     C_R   0.657443 0.514874 0.037338 0.602644
C9    C     C_R   0.514876 0.342556 0.962663 0.602653
C10   C     C_R   0.342557 0.514874 0.962662 0.602645
C11   C     C_R   0.485124 0.657443 0.962663 0.602654
C12   C     C_R   0.342557 0.485126 0.037338 0.602646
C13   C     C_R   0.913738 0.500000 0.000000 0.935007
C14   C     C_R   0.485123 0.342556 0.037337 0.602653
C15   C     C_R   0.657443 0.485126 0.962662 0.602645
C16   C     C_R   0.514876 0.657443 0.037337 0.602654
C17   C     C_R   0.514881 0.962665 0.342557 0.602641
C18   C     C_R   0.342556 0.037337 0.485123 0.602658
C19   C     C_R   0.514871 0.037339 0.657443 0.602646
C20   C     C_R   0.657443 0.037337 0.514876 0.602651
C21   C     C_R   0.485129 0.962661 0.657443 0.602646
C22   C     C_R   0.342556 0.962663 0.514876 0.602651
C23   C     C_R   0.485119 0.037335 0.342557 0.602641
C24   C     C_R   0.000000 0.500000 0.086262 0.934964
C25   C     C_R   0.657443 0.962663 0.485124 0.602658
C26   C     C_R   0.500000 0.134252 1.000000 -0.343893
C27   C     C_R   0.500000 0.000000 0.134252 -0.343887
C28   C     C_R   0.500000 0.865748 1.000000 -0.343892
C29   C     C_R   0.500000 0.000000 0.865748 -0.343881
C30   C     C_R   0.134252 0.000000 0.500000 -0.343892
C31   C     C_R   0.000000 0.865748 0.500000 -0.343885
C32   C     C_R   0.865748 1.000000 0.500000 -0.343893
C33   C     C_R   0.000000 0.134252 0.500000 -0.343882
C34   C     C_R   0.000000 0.500000 0.865748 -0.343894
C35   C     C_R   0.000000 0.500000 0.413738 0.934965
C36   C     C_R   0.865748 0.500000 0.000000 -0.343883
C37   C     C_R   0.000000 0.500000 0.134252 -0.343894
C38   C     C_R   0.134252 0.500000 0.000000 -0.343884
C39   C     C_R   0.000000 0.634252 0.500000 -0.343882
C40   C     C_R   0.000000 0.500000 0.634252 -0.343894
C41   C     C_R   0.000000 0.365748 0.500000 -0.343884
C42   C     C_R   0.000000 0.500000 0.365748 -0.343894
C43   C     C_R   0.634252 0.500000 0.000000 -0.343883
C44   C     C_R   0.500000 0.365748 0.000000 -0.343893
C45   C     C_R   0.365748 0.500000 0.000000 -0.343883
C46   C     C_R   0.000000 0.586262 0.500000 0.935009
C47   C     C_R   0.500000 0.634252 0.000000 -0.343893
C48   C     C_R   0.500000 0.000000 0.365748 -0.343879
C49   C     C_R   0.365748 0.000000 0.500000 -0.343894
C50   C     C_R   0.500000 0.000000 0.634252 -0.343884
C51   C     C_R   0.634252 0.000000 0.500000 -0.343894
C52   C     C_R   0.500000 0.226033 1.000000 -0.018229
C53   C     C_R   0.500000 0.000000 0.226033 -0.018231
C54   C     C_R   0.500000 0.773967 1.000000 -0.018229
C55   C     C_R   0.500000 0.000000 0.773967 -0.018230
C56   C     C_R   0.226033 0.000000 0.500000 -0.018229
C57   C     C_R   0.000000 0.500000 0.586262 0.934964
C58   C     C_R   0.000000 0.773967 0.500000 -0.018232
C59   C     C_R   0.773967 1.000000 0.500000 -0.018229
C60   C     C_R   0.000000 0.226033 0.500000 -0.018233
C61   C     C_R   1.000000 0.500000 0.773967 -0.018229
C62   C     C_R   0.773967 0.500000 1.000000 -0.018231
C63   C     C_R   0.000000 0.500000 0.226033 -0.018229
C64   C     C_R   0.226033 0.500000 0.000000 -0.018231
C65   C     C_R   0.000000 0.726032 0.500000 -0.018232
C66   C     C_R   1.000000 0.500000 0.726033 -0.018229
C67   C     C_R   0.000000 0.273967 0.500000 -0.018232
C68   C     C_R   0.000000 0.413738 0.500000 0.935003
C69   C     C_R   0.000000 0.500000 0.273967 -0.018229
C70   C     C_R   0.726033 0.500000 1.000000 -0.018231
C71   C     C_R   0.500000 0.273967 1.000000 -0.018229
C72   C     C_R   0.273967 0.500000 0.000000 -0.018231
C73   C     C_R   0.500000 0.726033 1.000000 -0.018228
C74   C     C_R   0.500000 0.000000 0.273968 -0.018230
C75   C     C_R   0.273967 0.000000 0.500000 -0.018228
C76   C     C_R   0.500000 0.000000 0.726033 -0.018232
C77   C     C_R   0.726033 1.000000 0.500000 -0.018228
C78   C     C_R   0.500000 0.586262 0.000000 0.934964
C79   C     C_R   0.586262 0.500000 0.000000 0.935005
C80   C     C_R   0.500000 0.413738 0.000000 0.934965
C81   C     C_R   0.500000 0.086262 0.000000 0.934962
C82   C     C_R   0.413738 0.500000 0.000000 0.935007
C83   C     C_R   0.586262 0.000000 0.500000 0.934967
C84   C     C_R   0.500000 0.000000 0.413738 0.935019
C85   C     C_R   0.413738 0.000000 0.500000 0.934968
C86   C     C_R   0.500000 0.000000 0.586262 0.935001
C87   C     C_R   0.537214 0.203132 0.985229 -0.230467
C88   C     C_R   0.537218 0.985238 0.203133 -0.230464
C89   C     C_R   0.537214 0.796867 0.014770 -0.230466
C90   C     C_R   0.462786 0.985228 0.796868 -0.230463
C91   C     C_R   0.462786 0.796867 0.985229 -0.230466
C92   C     C_R   0.500000 0.000000 0.086262 0.934995
C93   C     C_R   0.462782 0.014762 0.203133 -0.230464
C94   C     C_R   0.462786 0.203132 0.014770 -0.230466
C95   C     C_R   0.537214 0.014772 0.796868 -0.230463
C96   C     C_R   0.203132 0.014770 0.462785 -0.230466
C97   C     C_R   0.014767 0.796868 0.537216 -0.230462
C98   C     C_R   0.796867 0.985229 0.462786 -0.230466
C99   C     C_R   0.985230 0.203132 0.537215 -0.230462
C100  C     C_R   0.796867 0.014770 0.537214 -0.230466
C101  C     C_R   0.985233 0.796868 0.462784 -0.230463
C102  C     C_R   0.203132 0.985230 0.537214 -0.230467
C103  C     C_R   0.500000 0.913738 0.000000 0.934963
C104  C     C_R   0.014770 0.203132 0.462785 -0.230462
C105  C     C_R   0.014771 0.537214 0.796867 -0.230466
C106  C     C_R   0.796868 0.537215 0.014769 -0.230463
C107  C     C_R   0.985229 0.537214 0.203132 -0.230466
C108  C     C_R   0.203132 0.462785 0.014769 -0.230463
C109  C     C_R   0.014771 0.462786 0.203132 -0.230466
C110  C     C_R   0.796868 0.462785 0.985231 -0.230463
C111  C     C_R   0.985229 0.462786 0.796867 -0.230467
C112  C     C_R   0.203132 0.537215 0.985231 -0.230463
C113  C     C_R   0.037214 0.703132 0.514771 -0.230462
C114  C     C_R   0.000000 0.086262 0.500000 0.935007
C115  C     C_R   0.037214 0.514771 0.703132 -0.230466
C116  C     C_R   0.037216 0.296868 0.485233 -0.230462
C117  C     C_R   0.037214 0.485229 0.296868 -0.230466
C118  C     C_R   0.962784 0.296868 0.514767 -0.230463
C119  C     C_R   0.962786 0.485229 0.703132 -0.230466
C120  C     C_R   0.962786 0.703132 0.485229 -0.230462
C121  C     C_R   0.962786 0.514771 0.296868 -0.230466
C122  C     C_R   0.703132 0.514768 0.037215 -0.230463
C123  C     C_R   0.514771 0.296868 0.962786 -0.230466
C124  C     C_R   0.296868 0.514769 0.962785 -0.230463
C125  C     C_R   0.086262 0.000000 0.500000 0.934963
C126  C     C_R   0.485229 0.703132 0.962786 -0.230466
C127  C     C_R   0.296868 0.485231 0.037215 -0.230463
C128  C     C_R   0.485229 0.296868 0.037214 -0.230466
C129  C     C_R   0.703132 0.485231 0.962785 -0.230464
C130  C     C_R   0.514771 0.703132 0.037214 -0.230467
C131  C     C_R   0.514776 0.962788 0.296868 -0.230462
C132  C     C_R   0.296868 0.037214 0.485229 -0.230467
C133  C     C_R   0.514766 0.037216 0.703132 -0.230462
C134  C     C_R   0.703132 0.037214 0.514771 -0.230466
C135  C     C_R   0.485234 0.962784 0.703132 -0.230463
C136  C     C_R   0.000000 0.913738 0.500000 0.935002
C137  C     C_R   0.296868 0.962786 0.514771 -0.230466
C138  C     C_R   0.485224 0.037212 0.296868 -0.230462
C139  C     C_R   0.703132 0.962786 0.485229 -0.230468
C140  C     C_R   0.537337 0.157443 0.985124 0.602657
C141  C     C_R   0.537340 0.985132 0.157443 0.602651
C142  C     C_R   0.537337 0.842556 0.014876 0.602649
C143  C     C_R   0.462663 0.985123 0.842557 0.602644
C144  C     C_R   0.462663 0.842556 0.985124 0.602656
C145  C     C_R   0.462659 0.014867 0.157443 0.602650
C146  C     C_R   0.462663 0.157444 0.014876 0.602650
C147  C     C_R   0.913738 0.000000 0.500000 0.934964
C148  C     C_R   0.537337 0.014877 0.842557 0.602645
C149  C     C_R   0.157444 0.014876 0.462663 0.602654
C150  C     C_R   0.014872 0.842557 0.537339 0.602646
C151  C     C_R   0.842556 0.985124 0.462663 0.602652
C152  C     C_R   0.985125 0.157443 0.537338 0.602644
C153  C     C_R   0.842556 0.014876 0.537337 0.602653
C154  C     C_R   0.985128 0.842557 0.462661 0.602646
C155  C     C_R   0.157444 0.985124 0.537337 0.602652
C156  C     C_R   0.014875 0.157443 0.462662 0.602644
C157  C     C_R   0.014876 0.537337 0.842556 0.602654
C158  C     C_R   0.086262 0.500000 0.000000 0.935004
C159  C     C_R   0.842557 0.537338 0.014874 0.602646
C160  C     C_R   0.985124 0.537337 0.157443 0.602653
C161  C     C_R   0.157443 0.462662 0.014874 0.602645
C162  C     C_R   0.014876 0.462663 0.157443 0.602654
C163  C     C_R   0.842557 0.462662 0.985126 0.602645
C164  C     C_R   0.985124 0.462663 0.842556 0.602655
C165  C     C_R   0.157443 0.537338 0.985126 0.602645
C166  C     C_R   0.037337 0.657443 0.514876 0.602644
C167  C     C_R   0.037337 0.514876 0.657443 0.602656
C168  C     C_R   0.037339 0.342557 0.485128 0.602646
F1    F     F_    0.573663 0.136156 0.969812 -0.591758
F2    F     F_    0.030179 0.863845 0.573666 -0.591765
F3    F     F_    0.863844 0.969812 0.426337 -0.591761
F4    F     F_    0.969815 0.136155 0.573663 -0.591766
F5    F     F_    0.863844 0.030188 0.573663 -0.591759
F6    F     F_    0.969821 0.863845 0.426334 -0.591765
F7    F     F_    0.136156 0.969813 0.573663 -0.591762
F8    F     F_    0.030185 0.136155 0.426337 -0.591765
F9    F     F_    0.030188 0.573662 0.863844 -0.591760
F10   F     F_    0.863845 0.573664 0.030184 -0.591765
F11   F     F_    0.969812 0.573663 0.136156 -0.591759
F12   F     F_    0.573669 0.969829 0.136156 -0.591766
F13   F     F_    0.136155 0.426336 0.030183 -0.591765
F14   F     F_    0.030188 0.426337 0.136156 -0.591761
F15   F     F_    0.863845 0.426336 0.969816 -0.591765
F16   F     F_    0.969812 0.426337 0.863844 -0.591760
F17   F     F_    0.136155 0.573664 0.969817 -0.591765
F18   F     F_    0.073662 0.636155 0.530188 -0.591765
F19   F     F_    0.073663 0.530188 0.636156 -0.591759
F20   F     F_    0.073665 0.363844 0.469820 -0.591765
F21   F     F_    0.073663 0.469812 0.363844 -0.591761
F22   F     F_    0.926335 0.363844 0.530180 -0.591765
F23   F     F_    0.573663 0.863844 0.030188 -0.591764
F24   F     F_    0.926337 0.469812 0.636156 -0.591761
F25   F     F_    0.926338 0.636155 0.469812 -0.591765
F26   F     F_    0.926337 0.530188 0.363844 -0.591758
F27   F     F_    0.636155 0.530183 0.073664 -0.591765
F28   F     F_    0.530188 0.363844 0.926338 -0.591760
F29   F     F_    0.363845 0.530184 0.926336 -0.591765
F30   F     F_    0.469812 0.636156 0.926337 -0.591760
F31   F     F_    0.363845 0.469816 0.073664 -0.591765
F32   F     F_    0.469812 0.363844 0.073662 -0.591760
F33   F     F_    0.636155 0.469817 0.926336 -0.591765
F34   F     F_    0.426339 0.969810 0.863845 -0.591765
F35   F     F_    0.530188 0.636156 0.073663 -0.591761
F36   F     F_    0.530198 0.926342 0.363845 -0.591765
F37   F     F_    0.363844 0.073662 0.469811 -0.591755
F38   F     F_    0.530178 0.073666 0.636155 -0.591765
F39   F     F_    0.636156 0.073663 0.530188 -0.591762
F40   F     F_    0.469822 0.926334 0.636155 -0.591765
F41   F     F_    0.363844 0.926338 0.530188 -0.591763
F42   F     F_    0.469802 0.073658 0.363845 -0.591765
F43   F     F_    0.636156 0.926337 0.469812 -0.591755
F44   F     F_    0.426337 0.863844 0.969812 -0.591757
F45   F     F_    0.426331 0.030171 0.136156 -0.591766
F46   F     F_    0.426337 0.136156 0.030187 -0.591765
F47   F     F_    0.573661 0.030189 0.863845 -0.591766
F48   F     F_    0.136156 0.030187 0.426337 -0.591759
H1    H     H_    0.566290 0.220669 0.974060 0.198332
H2    H     H_    0.025934 0.779331 0.566293 0.198333
H3    H     H_    0.779331 0.974059 0.433710 0.198332
H4    H     H_    0.974061 0.220669 0.566291 0.198333
H5    H     H_    0.779331 0.025940 0.566290 0.198332
H6    H     H_    0.974066 0.779331 0.433707 0.198333
H7    H     H_    0.220669 0.974060 0.566290 0.198332
H8    H     H_    0.025939 0.220669 0.433709 0.198333
H9    H     H_    0.025941 0.566290 0.779331 0.198332
H10   H     H_    0.779331 0.566291 0.025938 0.198333
H11   H     H_    0.974059 0.566290 0.220669 0.198332
H12   H     H_    0.566296 0.974074 0.220669 0.198333
H13   H     H_    0.220669 0.433708 0.025937 0.198333
H14   H     H_    0.025941 0.433710 0.220669 0.198332
H15   H     H_    0.779331 0.433709 0.974062 0.198333
H16   H     H_    0.974059 0.433710 0.779331 0.198332
H17   H     H_    0.220669 0.566292 0.974063 0.198333
H18   H     H_    0.066290 0.720669 0.525941 0.198333
H19   H     H_    0.066290 0.525941 0.720669 0.198332
H20   H     H_    0.066293 0.279331 0.474065 0.198333
H21   H     H_    0.066290 0.474059 0.279331 0.198332
H22   H     H_    0.933707 0.279331 0.525935 0.198333
H23   H     H_    0.566290 0.779331 0.025940 0.198332
H24   H     H_    0.933709 0.474059 0.720669 0.198332
H25   H     H_    0.933710 0.720669 0.474058 0.198333
H26   H     H_    0.933709 0.525941 0.279331 0.198332
H27   H     H_    0.720669 0.525937 0.066292 0.198333
H28   H     H_    0.525941 0.279331 0.933710 0.198332
H29   H     H_    0.279331 0.525938 0.933709 0.198333
H30   H     H_    0.474059 0.720669 0.933709 0.198332
H31   H     H_    0.279331 0.474062 0.066291 0.198333
H32   H     H_    0.474059 0.279331 0.066290 0.198332
H33   H     H_    0.720669 0.474063 0.933708 0.198333
H34   H     H_    0.433711 0.974057 0.779331 0.198333
H35   H     H_    0.525941 0.720669 0.066290 0.198332
H36   H     H_    0.525951 0.933714 0.279331 0.198333
H37   H     H_    0.279331 0.066290 0.474059 0.198332
H38   H     H_    0.525933 0.066293 0.720669 0.198333
H39   H     H_    0.720669 0.066290 0.525941 0.198332
H40   H     H_    0.474067 0.933707 0.720669 0.198333
H41   H     H_    0.279331 0.933710 0.525941 0.198332
H42   H     H_    0.474049 0.066286 0.279331 0.198333
H43   H     H_    0.720669 0.933709 0.474059 0.198332
H44   H     H_    0.433710 0.779331 0.974059 0.198332
H45   H     H_    0.433704 0.025926 0.220669 0.198332
H46   H     H_    0.433709 0.220669 0.025940 0.198332
H47   H     H_    0.566289 0.025943 0.779331 0.198333
H48   H     H_    0.220669 0.025940 0.433709 0.198332
O1    O     O_R   0.463050 0.000010 0.934540 -0.564192
O2    O     O_R   0.065460 0.999990 0.536950 -0.564165
O3    O     O_R   0.999990 0.934540 0.536950 -0.564188
O4    O     O_R   0.934540 0.000010 0.536950 -0.564163
O5    O     O_R   0.999990 0.065460 0.463050 -0.564191
O6    O     O_R   0.934540 0.999990 0.463050 -0.564165
O7    O     O_R   0.000010 0.934540 0.463050 -0.564187
O8    O     O_R   0.065460 0.000010 0.463050 -0.564163
O9    O     O_R   0.065460 0.463050 0.999990 -0.564189
O10   O     O_R   0.999990 0.463050 0.934540 -0.564164
O11   O     O_R   0.934540 0.463050 0.000010 -0.564190
O12   O     O_R   0.463050 0.065460 0.000010 -0.564167
O13   O     O_R   0.000010 0.463050 0.065460 -0.564164
O14   O     O_R   0.065460 0.536950 0.000010 -0.564190
O15   O     O_R   0.999990 0.536950 0.065460 -0.564164
O16   O     O_R   0.934540 0.536950 0.999990 -0.564191
O17   O     O_R   0.000010 0.536950 0.934540 -0.564164
O18   O     O_R   0.963050 0.500010 0.434540 -0.564163
O19   O     O_R   0.963050 0.565460 0.500010 -0.564192
O20   O     O_R   0.963050 0.499990 0.565460 -0.564165
O21   O     O_R   0.963050 0.434540 0.499990 -0.564188
O22   O     O_R   0.036950 0.499990 0.434540 -0.564165
O23   O     O_R   0.463050 0.999990 0.065460 -0.564184
O24   O     O_R   0.036950 0.434540 0.500010 -0.564189
O25   O     O_R   0.036950 0.500010 0.565460 -0.564163
O26   O     O_R   0.036950 0.565460 0.499990 -0.564192
O27   O     O_R   0.500010 0.565460 0.036950 -0.564165
O28   O     O_R   0.565460 0.499990 0.036950 -0.564190
O29   O     O_R   0.499990 0.434540 0.036950 -0.564164
O30   O     O_R   0.434540 0.500010 0.036950 -0.564191
O31   O     O_R   0.499990 0.565460 0.963050 -0.564164
O32   O     O_R   0.434540 0.499990 0.963050 -0.564190
O33   O     O_R   0.500010 0.434540 0.963050 -0.564164
O34   O     O_R   0.463050 0.934540 0.999990 -0.564161
O35   O     O_R   0.565460 0.500010 0.963050 -0.564189
O36   O     O_R   0.565460 0.963050 0.499990 -0.564161
O37   O     O_R   0.499990 0.963050 0.434540 -0.564197
O38   O     O_R   0.434540 0.963050 0.500010 -0.564167
O39   O     O_R   0.500010 0.963050 0.565460 -0.564188
O40   O     O_R   0.565460 0.036950 0.500010 -0.564167
O41   O     O_R   0.499990 0.036950 0.565460 -0.564188
O42   O     O_R   0.434540 0.036950 0.499990 -0.564162
O43   O     O_R   0.500010 0.036950 0.434540 -0.564197
O44   O     O_R   0.536950 0.999990 0.934540 -0.564193
O45   O     O_R   0.536950 0.934540 0.000010 -0.564167
O46   O     O_R   0.536950 0.000010 0.065460 -0.564185
O47   O     O_R   0.536950 0.065460 0.999990 -0.564162
O48   O     O_R   0.000010 0.065460 0.536950 -0.564191
Zn1   Zn    Zn3+2 0.450650 0.000000 0.000000 1.195957
Zn2   Zn    Zn3+2 0.500000 0.500000 0.950650 1.195955
Zn3   Zn    Zn3+2 0.500000 0.950650 0.500000 1.195953
Zn4   Zn    Zn3+2 0.500000 0.049350 0.500000 1.195953
Zn5   Zn    Zn3+2 0.549350 0.000000 0.000000 1.195957
Zn6   Zn    Zn3+2 0.000000 0.000000 0.549350 1.195956
Zn7   Zn    Zn3+2 0.000000 0.000000 0.450650 1.195957
Zn8   Zn    Zn3+2 0.000000 0.450650 0.000000 1.195956
Zn9   Zn    Zn3+2 0.000000 0.549350 0.000000 1.195955
Zn10  Zn    Zn3+2 0.950650 0.500000 0.500000 1.195955
Zn11  Zn    Zn3+2 0.049350 0.500000 0.500000 1.195955
Zn12  Zn    Zn3+2 0.500000 0.500000 0.049350 1.195955

loop_
_geom_bond_atom_site_label_1
_geom_bond_atom_site_label_2
_ccdc_geom_bond_type
C100  C153  A    
C46   O19   A    
O38   Zn3   S    
C126  H30   S    
C18   C132  A    
C17   C48   A    
C33   C156  A    
C90   H34   S    
C33   C114  S    
C5    C119  A    
C136  O3    A    
C37   C160  A    
C10   C124  A    
C3    F21   S    
C119  H24   S    
C64   C112  A    
C17   C131  A    
C4    C41   A    
C73   C126  A    
C153  F5    S    
C14   C128  A    
C62   C70   S    
C7    C42   A    
C25   F43   S    
C35   C42   S    
C21   C50   A    
C91   H44   S    
C156  F8    S    
C97   C150  A    
C28   C144  A    
O8    Zn7   S    
C61   C105  A    
C90   C143  A    
C83   O36   A    
C2    C34   S    
C95   H47   S    
C117  H21   S    
C72   C124  A    
O2    Zn6   S    
O34   Zn1   S    
O40   Zn4   S    
C2    O17   A    
C113  H18   S    
C1    O44   A    
C129  H33   S    
C66   C115  A    
C163  F15   S    
C11   C126  A    
C82   O30   A    
C113  C166  A    
C31   C150  A    
C30   C149  A    
C70   C129  A    
C128  H32   S    
C2    O10   A    
C109  H14   S    
O11   Zn8   S    
C27   C145  A    
C1    C29   S    
C58   C101  A    
C146  F46   S    
C13   C36   S    
C22   C49   A    
C94   H46   S    
C26   C81   S    
C71   C128  A    
C19   C133  A    
C114  O5    A    
C51   C83   S    
C73   C130  A    
C166  F18   S    
C65   C113  A    
C31   C136  S    
O26   Zn11  S    
C84   O43   A    
C76   C133  A    
C122  H27   S    
C62   C106  A    
C137  H41   S    
C35   O18   A    
C109  C162  A    
C78   O31   A    
C150  F2    S    
C100  H5    S    
C112  C165  A    
C27   C141  A    
C65   C120  A    
C120  H25   S    
C67   C118  A    
C13   O11   A    
C68   O21   A    
C99   H4    S    
O19   Zn10  S    
O7    Zn7   S    
C97   H2    S    
C116  C168  A    
C20   C134  A    
O12   Zn1   S    
C21   C135  A    
C112  H17   S    
C18   C49   A    
C37   C162  A    
C101  H6    S    
C103  O34   A    
C138  H42   S    
C140  F1    S    
C141  F12   S    
C28   C103  S    
C87   C140  A    
C29   C148  A    
C32   C147  S    
C130  H35   S    
C22   C137  A    
O41   Zn4   S    
C114  O48   A    
C71   C123  A    
C134  H39   S    
C147  O6    A    
C34   C164  A    
O9    Zn8   S    
C152  F4    S    
C106  C159  A    
O29   Zn12  S    
C151  F3    S    
C8    F27   S    
C26   C146  A    
C9    C123  A    
C63   C69   S    
C60   C67   S    
O13   Zn8   S    
C107  H11   S    
C36   C163  A    
C105  H9    S    
C135  H40   S    
O35   Zn2   S    
C79   O28   A    
C30   C125  S    
C96   H48   S    
C56   C75   S    
C74   C131  A    
C59   C100  A    
C7    C121  A    
C92   O23   A    
C16   C47   A    
C15   F33   S    
C76   C135  A    
C64   C108  A    
O32   Zn2   S    
C154  F6    S    
C72   C127  A    
C4    F22   S    
O17   Zn9   S    
C79   O35   A    
C103  O45   A    
C84   O37   A    
C63   C109  A    
C67   C116  A    
O4    Zn6   S    
C70   C122  A    
C58   C65   S    
O5    Zn7   S    
C10   C45   A    
C24   C37   S    
C7    F26   S    
C80   O33   A    
C66   C119  A    
O48   Zn6   S    
C77   C134  A    
C159  F10   S    
C10   F29   S    
C88   C141  A    
C31   C154  A    
C75   C132  A    
O25   Zn11  S    
C158  O9    A    
C111  C164  A    
C147  O4    A    
O46   Zn5   S    
C108  C161  A    
C81   O12   A    
O23   Zn1   S    
C11   F30   S    
C56   C102  A    
C8    C122  A    
C88   H12   S    
O27   Zn12  S    
O1    Zn1   S    
C161  F13   S    
C110  H15   S    
O39   Zn3   S    
C34   C157  A    
C80   O29   A    
C59   C98   A    
C20   F39   S    
C60   C104  A    
C115  C167  A    
C104  H8    S    
C13   O16   A    
C85   O42   A    
C94   C146  A    
C3    C42   A    
C168  F20   S    
C38   C165  A    
C23   C138  A    
C11   C47   A    
C53   C74   S    
C8    C43   A    
O3    Zn6   S    
C115  H19   S    
C107  C160  A    
C78   O27   A    
C74   C138  A    
C18   F37   S    
C21   F40   S    
C25   C139  A    
O33   Zn2   S    
C20   C51   A    
C26   C140  A    
O44   Zn5   S    
C158  O14   A    
C24   O13   A    
C89   C142  A    
C29   C143  A    
C41   C168  A    
C40   C167  A    
C3    C117  A    
C36   C159  A    
C38   C161  A    
C105  C157  A    
C139  H43   S    
C19   F38   S    
C16   C130  A    
O22   Zn11  S    
C118  H22   S    
C85   O38   A    
C98   H3    S    
C102  H7    S    
C41   C68   S    
C98   C151  A    
C125  O8    A    
C44   C80   S    
C38   C158  S    
C75   C137  A    
O21   Zn10  S    
O31   Zn2   S    
C14   F32   S    
O20   Zn10  S    
O14   Zn9   S    
C54   C73   S    
C15   C129  A    
C116  H20   S    
O16   Zn9   S    
O24   Zn11  S    
C145  F45   S    
C30   C155  A    
C23   F42   S    
C127  H31   S    
C144  F44   S    
C57   O25   A    
C14   C44   A    
C99   C152  A    
C155  F7    S    
C56   C96   A    
O37   Zn3   S    
C40   C57   S    
C77   C139  A    
C133  H38   S    
C110  C163  A    
O28   Zn12  S    
C24   O15   A    
C55   C90   A    
O15   Zn9   S    
C39   C166  A    
C54   C91   A    
C52   C71   S    
C19   C50   A    
O10   Zn8   S    
C96   C149  A    
O47   Zn5   S    
C136  O7    A    
C81   O47   A    
C15   C43   A    
C32   C153  A    
C86   O39   A    
C5    C40   A    
C6    C39   A    
C6    F25   S    
C125  O2    A    
C89   H23   S    
C45   C82   S    
C60   C99   A    
C59   C77   S    
C9    F28   S    
C12   C127  A    
C92   O46   A    
C83   O40   A    
C101  C154  A    
C162  F14   S    
C57   O20   A    
C142  F23   S    
O36   Zn3   S    
C43   C79   S    
C22   F41   S    
C46   O26   A    
C124  H29   S    
C68   O24   A    
O45   Zn5   S    
C61   C66   S    
C86   O41   A    
C106  H10   S    
C52   C94   A    
C16   F35   S    
C87   H1    S    
C111  H16   S    
C4    C118  A    
C58   C97   A    
C6    C120  A    
C123  H28   S    
C93   H45   S    
C108  H13   S    
C121  H26   S    
C53   C93   A    
O18   Zn10  S    
C49   C85   S    
C54   C89   A    
C55   C95   A    
C165  F17   S    
C48   C84   S    
C17   F36   S    
C25   C51   A    
C160  F11   S    
C164  F16   S    
C62   C110  A    
C69   C121  A    
C167  F19   S    
C35   O22   A    
C27   C92   S    
C157  F9    S    
C104  C156  A    
C93   C145  A    
C39   C46   S    
C55   C76   S    
C132  H37   S    
O30   Zn12  S    
C28   C142  A    
C63   C107  A    
C61   C111  A    
C148  F47   S    
C131  H36   S    
C91   C144  A    
C9    C44   A    
C23   C48   A    
C52   C87   A    
C95   C148  A    
C5    F24   S    
C12   C45   A    
C33   C152  A    
C47   C78   S    
O42   Zn4   S    
C149  F48   S    
C82   O32   A    
C32   C151  A    
O6    Zn7   S    
C69   C117  A    
C12   F31   S    
C53   C88   A    
C64   C72   S    
C50   C86   S    
C143  F34   S    
C1    O1    A    
O43   Zn4   S    
C102  C155  A    
