data_mof_unit_54101.cif
_audit_creation_date              2012-12-10T20:49:25-0500
_audit_creation_method            fapswitch 2.2
_symmetry_space_group_name_H-M    P1
_symmetry_Int_Tables_number       1
_space_group_crystal_system       triclinic
_cell_length_a                    15.800836
_cell_length_b                    8.929464
_cell_length_c                    8.114203
_cell_angle_alpha                 89.99384
_cell_angle_beta                  90.008673
_cell_angle_gamma                 90.016574
_cell_volume                      1144.85714568

loop_
_atom_site_label
_atom_site_type_symbol
_atom_type_description
_atom_site_fract_x
_atom_site_fract_y
_atom_site_fract_z
_atom_type_partial_charge
C1    C     C_1   0.499999 0.065202 0.500008 -0.178632
C2    C     C_3   0.971935 0.633255 0.547774 0.023111
C3    C     C_1   0.249215 0.500042 0.500125 -0.145882
C4    C     C_1   0.750785 0.499958 0.499875 -0.145899
C5    C     C_3   0.027544 0.529573 0.654649 -0.072937
C6    C     C_3   0.972455 0.470427 0.345352 -0.072932
C7    C     C_3   0.083970 0.500392 0.502221 0.067486
C8    C     C_3   0.916030 0.499609 0.497781 0.067470
C9    C     C_1   0.174351 0.500168 0.500859 0.036922
C10   C     C_1   0.825649 0.499832 0.499141 0.036880
C11   C     C_2   0.941895 0.437622 0.174614 0.398669
C12   C     C_1   0.500001 0.934797 0.499992 -0.178632
C13   C     C_2   0.058102 0.562377 0.825390 0.398663
C14   C     C_R   0.499997 0.218018 0.500005 0.932721
C15   C     C_R   0.500003 0.781982 0.499994 0.932722
C16   C     C_R   0.337624 0.499968 0.499972 0.895204
C17   C     C_R   0.662375 0.500032 0.500028 0.895207
C18   C     C_3   0.971842 0.395641 0.602926 0.087988
C19   C     C_3   0.028158 0.604359 0.397076 0.088007
C20   C     C_3   0.028065 0.366746 0.452227 0.023104
H1    H     H_    0.007840 0.153379 0.375408 0.193079
H2    H     H_    0.038880 0.664661 0.886875 0.066567
H3    H     H_    0.094469 0.234353 0.295378 0.194682
H4    H     H_    0.992159 0.846614 0.624617 0.193075
H5    H     H_    0.905521 0.765644 0.704610 0.194688
H6    H     H_    0.991748 0.230596 0.770535 0.216431
H7    H     H_    0.903973 0.332125 0.803354 0.206533
H8    H     H_    0.008252 0.769409 0.229471 0.216445
H9    H     H_    0.096025 0.667876 0.196646 0.206538
H10   H     H_    0.961073 0.335295 0.113168 0.066513
N1    N     N_1   0.500010 0.500000 0.073640 -0.022926
N2    N     N_1   0.499990 0.500000 0.926360 -0.022926
N3    N     N_3   0.060094 0.220173 0.404278 -0.433550
N4    N     N_3   0.939906 0.779827 0.595723 -0.433553
N5    N     N_3   0.939677 0.279263 0.711954 -0.443217
N6    N     N_3   0.060323 0.720737 0.288048 -0.443212
O1    O     O_R   0.500000 0.285340 0.636850 -0.614925
O2    O     O_2   0.104240 0.473796 0.896298 -0.584329
O3    O     O_R   0.500000 0.714660 0.363150 -0.614924
O4    O     O_R   0.500000 0.285340 0.363150 -0.615584
O5    O     O_R   0.500000 0.714660 0.636850 -0.615584
O6    O     O_R   0.376770 0.500000 0.636850 -0.606350
O7    O     O_R   0.623230 0.500000 0.363150 -0.606360
O8    O     O_R   0.376780 0.500000 0.363100 -0.614281
O9    O     O_R   0.623220 0.500000 0.636900 -0.614282
O10   O     O_2   0.895797 0.526242 0.103670 -0.584372
Zn1   Zn    Zn3+2 0.499990 0.500000 0.682780 1.013294
Zn2   Zn    Zn3+2 0.500010 0.500000 0.317220 1.013291

loop_
_geom_bond_atom_site_label_1
_geom_bond_atom_site_label_2
_ccdc_geom_bond_type
C17   O7    A    
C3    C9    T    
O1    Zn1   S    
C6    C20   S    
O7    Zn2   S    
C16   O8    A    
C5    C13   S    
N1    N2    T    
C12   C15   S    
H5    N4    S    
O6    Zn1   S    
C2    N4    S    
O5    Zn1   S    
C5    C7    S    
C14   O1    A    
C6    C19   S    
H9    N6    S    
C15   O3    A    
C13   O2    D    
C1    C12   T    
C5    C18   S    
C4    C17   S    
C17   O9    A    
C13   H2    S    
C7    C19   S    
C19   N6    S    
O9    Zn1   S    
N1    Zn2   S    
N2    Zn1   S    
H4    N4    S    
C2    C5    S    
H1    N3    S    
C20   N3    S    
C15   O5    A    
C4    C10   T    
C16   O6    A    
H6    N5    S    
H8    N6    S    
C18   C20   S    
C8    C10   S    
C7    C20   S    
C18   N5    S    
C2    C8    S    
C6    C11   S    
C7    C9    S    
O4    Zn2   S    
C11   O10   D    
C6    C8    S    
C1    C14   S    
H7    N5    S    
C2    C19   S    
C14   O4    A    
C8    C18   S    
C3    C16   S    
O8    Zn2   S    
C11   H10   S    
O3    Zn2   S    
H3    N3    S    
