data_mof_unit_52681.cif
_audit_creation_date              2012-12-10T17:33:47-0500
_audit_creation_method            fapswitch 2.2
_symmetry_space_group_name_H-M    P1
_symmetry_Int_Tables_number       1
_space_group_crystal_system       triclinic
_cell_length_a                    11.692866
_cell_length_b                    12.333768
_cell_length_c                    13.097648
_cell_angle_alpha                 116.403359
_cell_angle_beta                  77.889775
_cell_angle_gamma                 100.99511
_cell_volume                      1643.94415565

loop_
_atom_site_label
_atom_site_type_symbol
_atom_type_description
_atom_site_fract_x
_atom_site_fract_y
_atom_site_fract_z
_atom_type_partial_charge
C1    C     C_R   0.510120 0.855120 0.286221 0.771242
C2    C     C_R   0.457803 0.227546 0.837959 -0.147501
C3    C     C_R   0.587228 0.815001 0.083398 -0.180767
C4    C     C_R   0.609493 0.735805 0.968005 -0.138295
C5    C     C_R   0.566490 0.613176 0.930598 -0.182355
C6    C     C_R   0.495307 0.567795 0.008088 0.085398
C7    C     C_R   0.461102 0.652222 0.122727 0.082631
C8    C     C_R   0.457025 0.441657 0.976164 0.076411
C9    C     C_R   0.377547 0.404335 0.055279 0.114621
C10   C     C_R   0.332750 0.490777 0.161626 -0.226792
C11   C     C_R   0.372374 0.613047 0.194223 -0.189077
C12   C     C_R   0.715737 0.999516 0.499828 0.820466
C13   C     C_R   0.497117 0.351247 0.868966 -0.252143
C14   C     C_R   0.384356 0.191003 0.920929 0.001337
C15   C     C_R   0.515949 0.773884 0.162431 -0.101461
C16   C     C_R   0.686025 0.345656 0.327272 -0.296346
C17   C     C_R   0.341667 0.759381 0.645099 0.070920
C18   C     C_R   0.307269 0.663448 0.677518 -0.235375
C19   C     C_R   0.367099 0.560258 0.623118 -0.196718
C20   C     C_R   0.462665 0.551754 0.534954 -0.006299
C21   C     C_R   0.495362 0.653085 0.505328 0.286910
C22   C     C_R   0.526927 0.447116 0.475265 -0.036225
C23   C     C_R   0.482423 0.144952 0.714456 0.792399
C24   C     C_R   0.621751 0.446222 0.387487 0.171949
C25   C     C_R   0.652419 0.545792 0.360385 -0.275998
C26   C     C_R   0.591147 0.647002 0.418324 -0.174170
C27   C     C_R   0.501747 0.342436 0.498315 0.024897
C28   C     C_R   0.656861 0.246032 0.354163 0.078721
C29   C     C_R   0.284261 0.000425 0.500107 0.821101
C30   C     C_1   0.837357 0.998960 0.499881 -0.182411
C31   C     C_1   0.939984 0.999333 0.499824 0.004290
C32   C     C_1   0.060018 0.000224 0.499769 0.006077
C33   C     C_1   0.162648 0.000748 0.499829 -0.176614
C34   C     C_R   0.343346 0.280719 0.027903 -0.167856
Cu1   Cu    Cu3+1 0.526510 0.098270 0.475420 0.943863
Cu2   Cu    Cu3+1 0.473490 0.901730 0.524580 0.924350
H1    H     H_    0.725205 0.545824 0.293651 0.154880
H2    H     H_    0.758519 0.344232 0.259936 0.141064
H3    H     H_    0.431338 0.335136 0.563461 0.125123
H4    H     H_    0.294143 0.838681 0.687247 0.146668
H5    H     H_    0.336577 0.488728 0.651608 0.139795
H6    H     H_    0.233786 0.668987 0.744874 0.161025
H7    H     H_    0.622572 0.718682 0.391811 0.205909
H8    H     H_    0.267634 0.463673 0.220694 0.148700
H9    H     H_    0.285501 0.254039 0.091292 0.171351
H10   H     H_    0.559489 0.374754 0.806849 0.157515
H11   H     H_    0.628406 0.908096 0.111266 0.152339
H12   H     H_    0.588799 0.557149 0.840150 0.130240
H13   H     H_    0.663901 0.768828 0.907633 0.145829
H14   H     H_    0.330894 0.676230 0.275580 0.174571
H15   H     H_    0.706115 0.168048 0.308016 0.125228
N1    N     N_R   0.566700 0.246290 0.438210 -0.180583
N2    N     N_R   0.434010 0.754320 0.561170 -0.211933
O1    O     O_R   0.533340 0.972510 0.318140 -0.577898
O2    O     O_R   0.488570 0.806530 0.359650 -0.603324
O3    O     O_R   0.685190 0.083000 0.479260 -0.571651
O4    O     O_R   0.640410 0.917020 0.520770 -0.590934
O5    O     O_R   0.511430 0.193470 0.640350 -0.577839
O6    O     O_R   0.466660 0.027490 0.681860 -0.603970
O7    O     O_R   0.359590 0.082980 0.479230 -0.571590
O8    O     O_R   0.314810 0.917000 0.520740 -0.583635
C35   C     C_2   0.350223 0.061800 0.901118 0.339117
H16   H     H_    0.410107 0.993846 0.849389 0.099301
O9    O     O_2   0.255547 0.030376 0.946340 -0.556476

loop_
_geom_bond_atom_site_label_1
_geom_bond_atom_site_label_2
_ccdc_geom_bond_type
C16   C28   A    
C23   O5    A    
C21   N2    A    
C1    O1    A    
C14   C34   A    
C6    C7    A    
C1    C15   S    
C17   N2    A    
C9    C10   A    
C9    C34   A    
C35   O9    D    
C19   C20   A    
C29   O7    A    
C4    H13   S    
C21   C26   A    
Cu2   O6    S    
C12   C30   S    
C32   C33   T    
C35   H16   S    
C7    C15   A    
C17   C18   A    
C1    O2    A    
C16   C24   A    
C11   H14   S    
C24   C25   A    
Cu1   O1    S    
C7    C11   A    
C28   N1    A    
C30   C31   T    
C12   O3    A    
C34   H9    S    
Cu1   O5    S    
C12   O4    A    
C3    H11   S    
C28   H15   S    
C20   C22   A    
C26   H7    S    
Cu2   O4    S    
C22   C24   A    
C22   C27   A    
C18   H6    S    
C5    C6    A    
C2    C14   A    
C5    H12   S    
C29   O8    A    
Cu1   O3    S    
C10   C11   A    
C10   H8    S    
Cu2   O8    S    
C14   C35   S    
C8    C13   A    
C29   C33   S    
Cu1   N1    S    
C3    C15   A    
C20   C21   A    
C27   N1    A    
C8    C9    A    
C18   C19   A    
C16   H2    S    
C2    C23   S    
Cu2   O2    S    
C2    C13   A    
C13   H10   S    
Cu1   O7    S    
C6    C8    A    
Cu2   N2    S    
C23   O6    A    
C25   H1    S    
C25   C26   A    
C17   H4    S    
C31   C32   S    
C3    C4    A    
C19   H5    S    
C27   H3    S    
C4    C5    A    
Cu1   Cu2   S    
