data_mof_unit_25067.cif
_audit_creation_date              2012-12-10T18:42:27-0500
_audit_creation_method            fapswitch 2.2
_symmetry_space_group_name_H-M    P1
_symmetry_Int_Tables_number       1
_space_group_crystal_system       triclinic
_cell_length_a                    8.619572
_cell_length_b                    10.71714
_cell_length_c                    10.009764
_cell_angle_alpha                 89.982031
_cell_angle_beta                  97.966895
_cell_angle_gamma                 93.781422
_cell_volume                      913.718784233

loop_
_atom_site_label
_atom_site_type_symbol
_atom_type_description
_atom_site_fract_x
_atom_site_fract_y
_atom_site_fract_z
_atom_type_partial_charge
C1    C     C_R   0.499506 0.260367 0.499902 0.841851
C2    C     C_R   0.500494 0.739633 0.500098 0.841852
C3    C     C_R   0.202297 0.496321 0.465734 0.948357
C4    C     C_R   0.797703 0.503678 0.534266 0.948357
C5    C     C_2   0.038083 0.473042 0.453715 -0.014089
C6    C     C_2   0.961917 0.526957 0.546285 -0.014089
C7    C     C_R   0.516838 0.064873 0.381029 -0.203191
C8    C     C_R   0.483162 0.935127 0.618971 -0.203189
C9    C     C_R   0.517257 0.937056 0.381127 -0.196090
C10   C     C_R   0.482743 0.062944 0.618873 -0.196089
C11   C     C_R   0.500412 0.872375 0.500084 -0.002931
C12   C     C_R   0.499588 0.127625 0.499916 -0.002931
C13   C     C_R   0.601834 0.580215 0.083837 0.197688
C14   C     C_R   0.398166 0.419785 0.916163 0.197688
C15   C     C_R   0.601480 0.580367 0.940541 0.206991
C16   C     C_R   0.398520 0.419633 0.059459 0.206992
H1    H     H_    0.530599 0.114039 0.288356 0.163128
H2    H     H_    0.469402 0.885962 0.711645 0.163128
H3    H     H_    0.531130 0.889467 0.288495 0.160122
H4    H     H_    0.468870 0.110533 0.711506 0.160122
N1    N     N_R   0.499960 0.499970 0.857200 -0.117339
N2    N     N_R   0.500040 0.500030 0.142800 -0.117339
O1    O     O_R   0.499990 0.316750 0.614620 -0.631816
O2    O     O_R   0.500010 0.683250 0.385380 -0.631816
O3    O     O_R   0.499990 0.316780 0.385290 -0.636168
O4    O     O_R   0.500010 0.683220 0.614710 -0.636168
O5    O     O_R   0.271750 0.499990 0.587840 -0.625280
O6    O     O_R   0.728250 0.500010 0.412160 -0.625281
O7    O     O_R   0.271750 0.500010 0.358510 -0.620835
O8    O     O_R   0.728250 0.499990 0.641490 -0.620835
Zn1   Zn    Zn3+2 0.500000 0.499980 0.653120 0.922703
Zn2   Zn    Zn3+2 0.500000 0.500020 0.346880 0.922703
C17   C     C_3   0.966276 0.369330 0.355737 -0.899408
H5    H     H_    0.057598 0.311893 0.324286 0.221529
H6    H     H_    0.885671 0.303879 0.403823 0.242020
H7    H     H_    0.902747 0.409962 0.263504 0.271802
C18   C     C_3   0.033722 0.630669 0.644261 -0.899425
H8    H     H_    0.942400 0.688102 0.675713 0.221532
H9    H     H_    0.097254 0.590040 0.736493 0.271805
H10   H     H_    0.114324 0.696121 0.596174 0.242020
C19   C     C_3   0.717979 0.670307 0.168405 -0.831078
H11   H     H_    0.839742 0.648995 0.156981 0.221050
H12   H     H_    0.698139 0.767925 0.137130 0.207376
H13   H     H_    0.711001 0.668087 0.275673 0.289656
C20   C     C_3   0.282022 0.329693 0.831595 -0.831080
H14   H     H_    0.301861 0.232075 0.862870 0.207378
H15   H     H_    0.160259 0.351005 0.843018 0.221050
H16   H     H_    0.288999 0.331913 0.724327 0.289656
C21   C     C_3   0.715484 0.671858 0.883442 -0.836252
H17   H     H_    0.709023 0.667631 0.774825 0.288680
H18   H     H_    0.691878 0.769165 0.907921 0.210587
H19   H     H_    0.837963 0.653453 0.924879 0.220942
C22   C     C_3   0.284518 0.328141 0.116558 -0.836255
H20   H     H_    0.290977 0.332370 0.225175 0.288680
H21   H     H_    0.162039 0.346541 0.075120 0.220941
H22   H     H_    0.308129 0.230834 0.092082 0.210587

loop_
_geom_bond_atom_site_label_1
_geom_bond_atom_site_label_2
_ccdc_geom_bond_type
O2    Zn2   S    
C18   H8    S    
C14   C20   S    
N1    Zn1   S    
C19   H11   S    
C19   H12   S    
C13   C15   A    
C15   N1    A    
C21   H19   S    
O3    Zn2   S    
C22   H21   S    
C17   H5    S    
C6    C18   S    
C4    O8    A    
O4    Zn1   S    
C18   H9    S    
C22   H20   S    
C1    O3    A    
C9    C11   A    
C3    O7    A    
C7    C12   A    
C1    C12   S    
N2    Zn2   S    
C8    C11   A    
C5    C6    D    
C2    C11   S    
C10   C12   A    
C14   N1    A    
C13   C19   S    
C17   H6    S    
C13   N2    A    
C1    O1    A    
O7    Zn2   S    
C3    O5    A    
C15   C21   S    
C2    O2    A    
O8    Zn1   S    
C19   H13   S    
C14   C16   A    
C20   H16   S    
C4    C6    S    
O5    Zn1   S    
C18   H10   S    
C3    C5    S    
O6    Zn2   S    
C17   H7    S    
C20   H15   S    
C2    O4    A    
C21   H17   S    
C22   H22   S    
C7    C9    A    
C16   C22   S    
C16   N2    A    
C4    O6    A    
C20   H14   S    
C9    H3    S    
C8    C10   A    
C8    H2    S    
C21   H18   S    
C10   H4    S    
C7    H1    S    
O1    Zn1   S    
C5    C17   S    
