data_mof_unit_30271.cif
_audit_creation_date              2012-12-11T14:36:07-0500
_audit_creation_method            fapswitch 2.2
_symmetry_space_group_name_H-M    P1
_symmetry_Int_Tables_number       1
_space_group_crystal_system       triclinic
_cell_length_a                    13.497767
_cell_length_b                    13.499152
_cell_length_c                    27.512785
_cell_angle_alpha                 90.594779
_cell_angle_beta                  89.91086
_cell_angle_gamma                 60.263613
_cell_volume                      4352.56000414

loop_
_atom_site_label
_atom_site_type_symbol
_atom_type_description
_atom_site_fract_x
_atom_site_fract_y
_atom_site_fract_z
_atom_type_partial_charge
C1    C     C_R   0.620432 0.101648 0.569959 0.546141
C2    C     C_1   0.627257 0.736176 0.616800 0.013385
C3    C     C_3   0.681735 0.567407 0.767699 -0.100900
C4    C     C_3   0.679169 0.653910 0.805718 -0.023187
C5    C     C_3   0.575257 0.666126 0.743164 -0.150444
C6    C     C_3   0.654731 0.690220 0.711167 0.083238
C7    C     C_3   0.572772 0.751957 0.782029 -0.083613
C8    C     C_3   0.653197 0.774123 0.749530 0.399584
C9    C     C_1   0.689596 0.632036 0.857905 -0.040223
C10   C     C_1   0.642306 0.711395 0.659006 0.008376
C11   C     C_3   0.108055 0.111619 0.740275 -0.116603
C12   C     C_R   0.598923 0.780238 0.568801 0.547544
C13   C     C_3   0.204134 0.044851 0.778341 -0.126674
C14   C     C_1   0.102450 0.197109 0.903303 0.028671
C15   C     C_1   0.233096 0.135495 0.618292 0.019096
C16   C     C_3   0.065360 0.220587 0.772027 0.086949
C17   C     C_3   0.159020 0.155385 0.809552 0.021872
C18   C     C_3   0.143162 0.254961 0.744938 0.395261
C19   C     C_3   0.187327 0.146162 0.713298 -0.008157
C20   C     C_3   0.237249 0.189134 0.782333 0.393782
C21   C     C_3   0.280816 0.081129 0.750816 0.041972
C22   C     C_1   0.133956 0.172960 0.861725 0.035265
C23   C     C_R   0.278413 0.121341 0.569906 0.546341
C24   C     C_1   0.207723 0.141692 0.660702 0.009365
C25   C     C_3   0.716788 0.232750 0.736687 -0.103964
C26   C     C_3   0.611946 0.296249 0.771547 -0.126290
C27   C     C_1   0.693881 0.210545 0.902041 0.024129
C28   C     C_1   0.637695 0.136284 0.617199 0.012053
C29   C     C_3   0.769559 0.132439 0.772543 0.400536
C30   C     C_3   0.666154 0.194384 0.806737 0.023816
C31   C     C_3   0.711703 0.073022 0.746506 -0.072287
C32   C     C_3   0.657327 0.174291 0.711120 0.012794
C33   C     C_3   0.606623 0.135970 0.781151 -0.103964
C34   C     C_R   0.622355 0.099718 0.431350 0.542981
C35   C     C_3   0.555103 0.236076 0.745482 0.105878
C36   C     C_1   0.677756 0.202349 0.859447 0.012955
C37   C     C_1   0.648266 0.157457 0.658913 -0.007914
C38   C     C_R   0.736572 0.706527 0.360476 -0.108645
C39   C     C_R   0.749550 0.686074 0.310337 0.024075
C40   C     C_R   0.760829 0.664427 0.208468 -0.044006
C41   C     C_R   0.844440 0.676218 0.233852 -0.101570
C42   C     C_R   0.839037 0.687044 0.284506 0.355667
C43   C     C_R   0.769067 0.645877 0.158100 -0.132948
C44   C     C_R   0.684947 0.632392 0.133895 0.002583
C45   C     C_R   0.602849 0.774566 0.430889 0.545268
C46   C     C_R   0.569114 0.683159 0.360354 -0.130542
C47   C     C_R   0.577785 0.667526 0.310410 0.015574
C48   C     C_R   0.666398 0.672037 0.285037 0.010844
C49   C     C_R   0.494181 0.655831 0.285209 -0.128804
C50   C     C_R   0.495094 0.653716 0.234803 -0.113769
C51   C     C_R   0.582586 0.658203 0.209315 0.023175
C52   C     C_R   0.670008 0.665027 0.234267 0.044181
C53   C     C_R   0.587335 0.649019 0.159241 -0.112050
C54   C     C_R   0.641905 0.712694 0.384725 -0.022443
C55   C     C_R   0.208937 0.061528 0.358879 -0.139689
C56   C     C_R   0.276382 0.121820 0.431362 0.563991
C57   C     C_R   0.184145 0.072806 0.309038 -0.010304
C58   C     C_R   0.147718 0.093532 0.207800 0.015352
C59   C     C_R   0.157593 0.997842 0.232233 0.419264
C60   C     C_R   0.176725 0.986446 0.282647 0.109478
C61   C     C_R   0.122665 0.108938 0.157926 0.399553
C62   C     C_R   0.108676 0.207560 0.134837 -0.023498
C63   C     C_R   0.183033 0.253138 0.362118 0.094820
C64   C     C_R   0.171627 0.260508 0.311403 0.012756
C65   C     C_R   0.171506 0.170385 0.284848 -0.008591
C66   C     C_R   0.165006 0.354208 0.286731 -0.084289
C67   C     C_3   0.758335 0.594860 0.735708 0.055928
C68   C     C_R   0.159134 0.359579 0.236196 0.125350
C69   C     C_R   0.151727 0.273447 0.209895 0.034788
C70   C     C_R   0.157416 0.178806 0.234173 -0.083584
C71   C     C_R   0.132602 0.283494 0.160027 -0.173765
C72   C     C_R   0.214854 0.148122 0.384826 0.028161
C73   C     C_R   0.561193 0.236974 0.362967 -0.121757
C74   C     C_R   0.567030 0.256063 0.313228 0.044435
C75   C     C_R   0.579285 0.284077 0.212399 -0.004692
C76   C     C_R   0.492512 0.371088 0.240527 -0.096954
C77   C     C_R   0.484502 0.357496 0.290776 0.105359
C78   C     C_3   0.759524 0.677850 0.774152 -0.072141
C79   C     C_R   0.591528 0.299498 0.162883 -0.129935
C80   C     C_R   0.680590 0.211646 0.135773 -0.005032
C81   C     C_R   0.735689 0.053834 0.356245 -0.120837
C82   C     C_R   0.740172 0.068281 0.306737 0.003913
C83   C     C_R   0.655392 0.168993 0.284892 0.034420
C84   C     C_R   0.825609 0.980634 0.278510 -0.105454
C85   C     C_R   0.826373 0.991257 0.228469 -0.103133
C86   C     C_R   0.744181 0.091491 0.206477 0.012694
C87   C     C_R   0.659050 0.181478 0.234572 0.049933
C88   C     C_R   0.750385 0.105320 0.157064 -0.107089
C89   C     C_1   0.698405 0.606589 0.900091 0.004976
C90   C     C_R   0.643287 0.134467 0.384025 -0.017963
C91   C     C_R   0.050266 0.235630 0.950180 0.545143
C92   C     C_R   0.711945 0.562602 0.948179 0.548936
C93   C     C_R   0.722874 0.225972 0.950629 0.542523
C94   C     C_R   0.048881 0.244542 0.088265 0.564716
C95   C     C_R   0.707728 0.574668 0.086580 0.545397
C96   C     C_R   0.718579 0.233943 0.089379 0.541608
Cr1   Cr    Cr6+3 0.417550 0.169090 0.500530 1.056293
Cr2   Cr    Cr6+3 0.669180 0.913420 0.499920 1.045870
Cr3   Cr    Cr6+3 0.413260 0.917540 0.499520 1.035672
Cr4   Cr    Cr6+3 0.909170 0.177380 0.020380 1.106435
Cr5   Cr    Cr6+3 0.912710 0.429210 0.018220 1.041662
Cr6   Cr    Cr6+3 0.657170 0.432570 0.019030 1.041701
H1    H     H_    0.835438 0.682091 0.786748 0.140351
H2    H     H_    0.568395 0.387944 0.782102 0.124720
H3    H     H_    0.762765 0.270783 0.718108 0.122106
H4    H     H_    0.559670 0.098261 0.799205 0.181418
H5    H     H_    0.756534 0.981428 0.735882 0.196874
H6    H     H_    0.843781 0.634636 0.138504 0.125115
H7    H     H_    0.794146 0.727140 0.379735 0.184588
H8    H     H_    0.913305 0.678143 0.214485 0.124441
H9    H     H_    0.520198 0.641797 0.140783 0.147549
H10   H     H_    0.428629 0.646525 0.215784 0.129584
H11   H     H_    0.426421 0.651504 0.304428 0.099252
H12   H     H_    0.497680 0.684857 0.379261 0.132567
H13   H     H_    0.229305 0.983245 0.377285 0.157850
H14   H     H_    0.125878 0.356725 0.141348 0.176255
H15   H     H_    0.167241 0.422968 0.306257 0.142532
H16   H     H_    0.536656 0.381381 0.146393 0.129641
H17   H     H_    0.490213 0.298778 0.384906 0.156562
H18   H     H_    0.430962 0.449613 0.223367 0.111651
H19   H     H_    0.817638 0.035883 0.136145 0.161062
H20   H     H_    0.496310 0.816179 0.802381 0.127245
H21   H     H_    0.892884 0.922326 0.207118 0.155576
H22   H     H_    0.890944 0.903326 0.295084 0.188049
H23   H     H_    0.799575 0.974593 0.372213 0.156943
H24   H     H_    0.499840 0.661617 0.730053 0.132800
H25   H     H_    0.695722 0.480892 0.775429 0.128991
H26   H     H_    0.232155 0.957918 0.792060 0.148754
H27   H     H_    0.052652 0.082412 0.722922 0.177732
O1    O     O_R   0.301710 0.195650 0.554160 -0.491492
O2    O     O_R   0.658900 0.818120 0.449760 -0.502889
O3    O     O_R   0.503220 0.801620 0.445520 -0.518275
O4    O     O_R   0.319370 0.022040 0.450020 -0.514035
O5    O     O_3   0.499990 0.000010 0.499990 -0.257048
O6    O     O_R   0.818720 0.150820 0.967160 -0.493989
O7    O     O_R   0.006410 0.181720 0.970200 -0.490429
O8    O     O_R   0.027890 0.334070 0.964920 -0.499966
O9    O     O_R   0.809600 0.521790 0.967960 -0.492615
O10   O     O_R   0.635520 0.542770 0.964420 -0.501037
O11   O     O_R   0.665950 0.325030 0.970100 -0.498289
O12   O     O_R   0.522390 0.158990 0.550460 -0.492386
O13   O     O_R   0.816620 0.158530 0.074540 -0.493106
O14   O     O_R   0.004460 0.188870 0.069750 -0.424841
O15   O     O_R   0.025800 0.341780 0.072300 -0.535792
O16   O     O_R   0.807650 0.528950 0.067500 -0.501260
O17   O     O_R   0.633420 0.550490 0.071810 -0.518415
O18   O     O_R   0.664000 0.332180 0.069640 -0.503990
O19   O     O_3   0.826350 0.346390 0.019210 -0.266734
O20   O     O_R   0.694390 0.003530 0.554040 -0.499873
O21   O     O_R   0.657700 0.819660 0.549320 -0.489412
O22   O     O_R   0.501930 0.803280 0.552920 -0.505173
O23   O     O_R   0.318170 0.023580 0.549580 -0.496901
O24   O     O_R   0.303010 0.193990 0.446760 -0.471946
O25   O     O_R   0.523600 0.157450 0.450900 -0.504328
O26   O     O_R   0.695690 0.001860 0.446640 -0.515618
F1    F     F_    0.305111 0.226210 0.804417 -0.648919
F2    F     F_    0.118771 0.360125 0.727553 -0.630889
N1    N     N_3   0.946033 0.294394 0.785259 -0.581324
H28   H     H_    0.899573 0.319657 0.753105 0.248065
H29   H     H_    0.938768 0.367095 0.802463 0.237149
N2    N     N_3   0.437142 0.295269 0.729295 -0.562991
H30   H     H_    0.416885 0.233510 0.717790 0.264563
H31   H     H_    0.385902 0.336807 0.759576 0.303242
F3    F     F_    0.881992 0.077856 0.787395 -0.617696
N3    N     N_3   0.858371 0.511067 0.709048 -0.612817
H32   H     H_    0.924174 0.479240 0.734119 0.293094
H33   H     H_    0.879257 0.554843 0.683604 0.262446
F4    F     F_    0.921140 0.698336 0.308168 -0.678477
F5    F     F_    0.105691 0.031836 0.132474 -0.558071
F6    F     F_    0.149379 0.914917 0.207181 -0.595500
F7    F     F_    0.641609 0.878965 0.738856 -0.679312
N4    N     N_3   0.186113 0.888929 0.307571 -0.622355
H34   H     H_    0.271253 0.838495 0.317666 0.214947
H35   H     H_    0.166911 0.838566 0.284723 0.288203
N5    N     N_3   0.159484 0.452973 0.211576 -0.628535
H36   H     H_    0.077585 0.504971 0.198073 0.223227
H37   H     H_    0.175552 0.503314 0.235891 0.244156
N6    N     N_3   0.165913 0.350211 0.390798 -0.592973
H38   H     H_    0.228902 0.370729 0.381936 0.249241
H39   H     H_    0.085401 0.419344 0.383248 0.241301
N7    N     N_3   0.393113 0.446093 0.318964 -0.652015
H40   H     H_    0.428874 0.481930 0.341937 0.223534
H41   H     H_    0.336087 0.511480 0.296467 0.228891
N8    N     N_3   0.400259 0.005653 0.739019 -0.580673
H42   H     H_    0.445278 0.998832 0.770794 0.279832
H43   H     H_    0.424660 0.047327 0.713964 0.263512

loop_
_geom_bond_atom_site_label_1
_geom_bond_atom_site_label_2
_ccdc_geom_bond_type
C21   N8    S    
C66   C68   A    
C23   O23   A    
Cr5   O19   S    
N3    H32   S    
C73   H17   S    
C41   C42   A    
C83   C87   A    
C95   O16   A    
C74   C83   A    
C43   C44   A    
C2    C12   S    
C20   C21   S    
N6    H38   S    
C25   H3    S    
C7    C8    S    
N5    H37   S    
N7    H40   S    
C95   O17   A    
Cr5   O16   S    
C76   H18   S    
C63   N6    S    
C55   H13   S    
Cr3   O3    S    
C94   O14   A    
C19   C21   S    
Cr4   O19   S    
Cr1   O1    S    
C85   C86   A    
C5    C6    S    
Cr5   O15   S    
C86   C88   A    
C65   C70   A    
C79   H16   S    
C17   C20   S    
N8    H42   S    
Cr3   O4    S    
C18   C19   S    
C73   C74   A    
C49   H11   S    
C69   C71   A    
C89   C92   S    
Cr6   O19   S    
C91   O8    A    
C13   H26   S    
C44   C53   A    
N1    H29   S    
C40   C43   A    
C91   O7    A    
C31   C32   S    
N4    H35   S    
C16   C17   S    
C56   C72   S    
C66   H15   S    
C5    H24   S    
C71   H14   S    
C1    C28   S    
C77   N7    S    
C31   C33   S    
C1    O20   A    
Cr1   O24   S    
C80   C96   S    
C59   F6    S    
C18   C20   S    
C55   C72   A    
Cr4   O6    S    
Cr6   O10   S    
C26   H2    S    
C53   H9    S    
C25   C32   S    
N7    H41   S    
C92   O9    A    
C59   C60   A    
N3    H33   S    
C8    C78   S    
C12   O22   A    
C61   C62   A    
C67   C78   S    
Cr1   O5    S    
C4    C7    S    
C11   H27   S    
N2    H31   S    
C68   N5    S    
C42   F4    S    
C56   O4    A    
C39   C42   A    
C34   O25   A    
C25   C29   S    
C46   H12   S    
C16   N1    S    
C51   C52   A    
C60   N4    S    
C32   C35   S    
C12   O21   A    
C76   C77   A    
C47   C49   A    
C9    C89   T    
C5    C7    S    
Cr5   O8    S    
C86   C87   A    
C58   C70   A    
C57   C60   A    
C6    C8    S    
C3    C5    S    
C58   C59   A    
C34   O26   A    
Cr3   O22   S    
C74   C77   A    
C81   C82   A    
C63   C64   A    
C23   O1    A    
C51   C53   A    
C64   C66   A    
Cr2   O2    S    
C75   C76   A    
C34   C90   S    
C4    C78   S    
C29   C30   S    
N5    H36   S    
Cr6   O18   S    
C11   C16   S    
C47   C48   A    
C38   C54   A    
C11   C19   S    
C46   C54   A    
C50   H10   S    
C50   C51   A    
C13   C21   S    
C16   C18   S    
C35   N2    S    
C32   C37   S    
C84   C85   A    
C38   H7    S    
Cr1   O12   S    
C81   C90   A    
C56   O24   A    
C75   C87   A    
C40   C41   A    
C45   C54   S    
Cr6   O11   S    
C82   C84   A    
C41   H8    S    
C62   C94   S    
N1    H28   S    
C49   C50   A    
C27   C93   S    
C61   F5    S    
C7    H20   S    
C3    C4    S    
C2    C10   T    
N4    H34   S    
Cr2   O21   S    
C96   O18   A    
Cr2   O26   S    
C6    C67   S    
C20   F1    S    
C30   C33   S    
C81   H23   S    
C78   H1    S    
C31   H5    S    
C68   C69   A    
C3    C67   S    
C33   H4    S    
C57   C65   A    
C88   H19   S    
C93   O6    A    
Cr4   O14   S    
Cr1   O25   S    
C6    C10   S    
N6    H39   S    
Cr5   O9    S    
C8    F7    S    
C45   O2    A    
C30   C36   S    
C27   C36   T    
C84   H22   S    
C29   F3    S    
Cr3   O23   S    
Cr2   O5    S    
C17   C22   S    
C13   C17   S    
C94   O15   A    
C64   C65   A    
C14   C22   T    
C55   C57   A    
C19   C24   S    
C25   C26   S    
C80   C88   A    
C18   F2    S    
C40   C52   A    
Cr6   O17   S    
C15   C24   T    
C11   C13   S    
C67   N3    S    
C38   C39   A    
N2    H30   S    
C28   C37   T    
C58   C61   A    
C15   C23   S    
C33   C35   S    
N8    H43   S    
C62   C71   A    
C85   H21   S    
C3    H25   S    
C43   H6    S    
C69   C70   A    
C14   C91   S    
C46   C47   A    
C1    O12   A    
C96   O13   A    
C79   C80   A    
C26   C35   S    
C48   C52   A    
C63   C72   A    
Cr3   O5    S    
C45   O3    A    
C29   C31   S    
C82   C83   A    
C93   O11   A    
Cr4   O13   S    
C4    C9    S    
C92   O10   A    
C75   C79   A    
Cr2   O20   S    
C44   C95   S    
Cr4   O7    S    
C39   C48   A    
C73   C90   A    
C26   C30   S    
