data_mof_unit_60040.cif
_audit_creation_date              2012-10-26T18:11:56-0400
_audit_creation_method            fapswitch 2.2
_symmetry_space_group_name_H-M    P1
_symmetry_Int_Tables_number       1
_space_group_crystal_system       triclinic
_cell_length_a                    18.794856
_cell_length_b                    18.817977
_cell_length_c                    18.784917
_cell_angle_alpha                 109.553461
_cell_angle_beta                  109.496776
_cell_angle_gamma                 109.398546
_cell_volume                      5112.2293847

loop_
_atom_site_label
_atom_site_type_symbol
_atom_type_description
_atom_site_fract_x
_atom_site_fract_y
_atom_site_fract_z
_atom_type_partial_charge
C1    C     C_R   0.381104 0.500003 0.381009 0.542563
C2    C     C_R   0.314271 0.500013 0.314010 0.027516
C3    C     C_R   0.321316 0.242227 0.499367 -0.131637
C4    C     C_R   0.618670 0.618717 0.499689 0.544407
C5    C     C_R   0.258047 0.178971 0.500909 -0.131643
C6    C     C_R   0.185909 0.185952 0.500113 0.026163
C7    C     C_R   0.178028 0.257176 0.499350 -0.131518
C8    C     C_R   0.242837 0.321973 0.500888 -0.131672
C9    C     C_R   0.314187 0.314204 0.500111 0.025710
C10   C     C_R   0.756892 0.498833 0.677858 -0.131322
C11   C     C_R   0.821721 0.500286 0.742704 -0.131619
C12   C     C_R   0.780814 0.834276 0.551064 -0.064087
C13   C     C_R   0.814139 0.500052 0.814295 0.025792
C14   C     C_R   0.742402 0.499902 0.821716 -0.131847
C15   C     C_R   0.679086 0.501473 0.758370 -0.131835
C16   C     C_R   0.618956 0.500062 0.618995 0.545878
C17   C     C_R   0.685897 0.500173 0.686006 0.025997
C18   C     C_R   0.000117 0.881204 0.380920 0.559561
C19   C     C_R   0.881562 0.881982 0.500311 0.562375
C20   C     C_R   0.999943 0.118793 0.619008 0.543165
C21   C     C_R   0.118957 0.119012 0.500042 0.544314
C22   C     C_R   0.999891 0.618891 0.118765 0.544804
C23   C     C_3   0.786304 0.908843 0.618912 -0.243422
C24   C     C_R   0.118937 0.500144 0.119004 0.544536
C25   C     C_R   0.000013 0.381154 0.881182 0.545338
C26   C     C_R   0.881071 0.500073 0.881206 0.545087
C27   C     C_R   0.985149 0.813185 0.235112 -0.131093
C28   C     C_R   0.381068 0.381062 0.500029 0.544754
C29   C     C_R   0.986418 0.749770 0.171564 -0.131346
C30   C     C_R   0.999905 0.685671 0.185452 0.029134
C31   C     C_R   0.013918 0.685872 0.263463 -0.123688
C32   C     C_R   0.015801 0.751085 0.328292 -0.104159
C33   C     C_R   0.000318 0.814286 0.313865 0.033951
C34   C     C_3   0.714439 0.838856 0.619229 0.172884
C35   C     C_R   0.920879 0.176655 0.679992 -0.133696
C36   C     C_R   0.920966 0.240183 0.744810 -0.130783
C37   C     C_R   0.000006 0.314121 0.814229 0.024826
C38   C     C_R   0.079022 0.323565 0.819503 -0.131967
C39   C     C_R   0.079060 0.258630 0.756234 -0.131483
C40   C     C_R   0.717824 0.772442 0.550512 -0.001959
C41   C     C_R   0.999961 0.185564 0.686023 0.027382
C42   C     C_R   0.684757 0.684234 0.498055 -0.026200
C43   C     C_R   0.717924 0.660533 0.442062 -0.157243
C44   C     C_R   0.782749 0.724850 0.441421 -0.039141
C45   C     C_R   0.243407 0.420976 0.241369 -0.130817
C46   C     C_R   0.815453 0.813887 0.497910 0.013386
C47   C     C_1   0.813619 0.697959 0.382134 0.199516
C48   C     C_3   0.583849 0.810408 0.505747 0.015015
C49   C     C_3   0.511619 0.832958 0.492041 -0.374602
C50   C     C_R   0.178512 0.421021 0.178085 -0.131102
C51   C     C_R   0.185917 0.500131 0.185833 0.027399
C52   C     C_R   0.257582 0.579194 0.257691 -0.133315
C53   C     C_R   0.320915 0.579094 0.322478 -0.135018
Cu1   Cu    Cu3+1 0.499970 0.561780 0.561770 0.956349
Cu2   Cu    Cu3+1 0.500030 0.438220 0.438230 0.933124
Cu3   Cu    Cu3+1 0.061810 0.000000 0.561760 0.940902
Cu4   Cu    Cu3+1 0.938190 0.000070 0.438240 0.942218
Cu5   Cu    Cu3+1 0.938200 0.438300 0.000110 0.944064
Cu6   Cu    Cu3+1 0.061800 0.561880 0.000070 0.933882
H1    H     H_    0.693704 0.592510 0.398897 0.147492
H2    H     H_    0.624151 0.502155 0.764924 0.124704
H3    H     H_    0.973776 0.862065 0.223470 0.127337
H4    H     H_    0.975503 0.749732 0.111145 0.119834
H5    H     H_    0.024813 0.636556 0.274579 0.119796
H6    H     H_    0.027509 0.751181 0.388848 0.140357
H7    H     H_    0.859468 0.120033 0.626028 0.114969
H8    H     H_    0.859534 0.232473 0.740096 0.125805
H9    H     H_    0.140464 0.380318 0.873214 0.125547
H10   H     H_    0.140460 0.266003 0.761106 0.123187
H11   H     H_    0.850056 0.946925 0.680406 0.111931
H12   H     H_    0.375670 0.640433 0.378367 0.112517
H13   H     H_    0.765712 0.948234 0.593344 0.141107
H14   H     H_    0.737895 0.837577 0.681260 0.137451
H15   H     H_    0.237642 0.359524 0.234561 0.124224
H16   H     H_    0.123411 0.359612 0.122477 0.123901
H17   H     H_    0.263583 0.640661 0.264292 0.119358
H18   H     H_    0.552999 0.738336 0.469096 0.147323
H19   H     H_    0.622193 0.839393 0.478903 0.129490
H20   H     H_    0.540137 0.904732 0.527250 0.161005
H21   H     H_    0.469699 0.806984 0.421374 0.089629
H22   H     H_    0.470930 0.803828 0.516875 0.163577
H23   H     H_    0.376464 0.235877 0.499108 0.123305
H24   H     H_    0.264491 0.123928 0.501166 0.122672
H25   H     H_    0.122615 0.263261 0.499080 0.123953
H26   H     H_    0.236643 0.377266 0.501127 0.123882
H27   H     H_    0.762759 0.498159 0.622211 0.123980
H28   H     H_    0.876896 0.500080 0.736386 0.124025
H29   H     H_    0.736310 0.500087 0.877127 0.125909
N1    N     N_1   0.837946 0.676031 0.334298 -0.307148
O1    O     O_R   0.409790 0.552170 0.461990 -0.510921
O2    O     O_R   0.052170 0.642450 0.090210 -0.511048
O3    O     O_R   0.038000 0.447920 0.090280 -0.509843
O4    O     O_R   0.409840 0.447810 0.357660 -0.509480
O5    O     O_R   0.142370 0.552280 0.090250 -0.511164
O6    O     O_R   0.947830 0.357730 0.909970 -0.510370
O7    O     O_R   0.052200 0.462090 0.909940 -0.510787
O8    O     O_R   0.857630 0.447900 0.909930 -0.509628
O9    O     O_R   0.962000 0.552260 0.909900 -0.510343
O10   O     O_R   0.590140 0.642360 0.552170 -0.493419
O11   O     O_R   0.590190 0.538010 0.447840 -0.517485
O12   O     O_R   0.947790 0.909920 0.357650 -0.505422
O13   O     O_R   0.590160 0.552190 0.642340 -0.509493
O14   O     O_R   0.590210 0.447830 0.538010 -0.511788
O15   O     O_R   0.409810 0.461990 0.552160 -0.510845
O16   O     O_R   0.409860 0.357640 0.447830 -0.510834
O17   O     O_R   0.052180 0.909860 0.461960 -0.515814
O18   O     O_3   0.636036 0.843084 0.596019 -0.539981
O19   O     O_R   0.962030 0.909820 0.552150 -0.505988
O20   O     O_R   0.857630 0.909880 0.447840 -0.508671
O21   O     O_R   0.052210 0.090150 0.642360 -0.510367
O22   O     O_R   0.947820 0.090210 0.538040 -0.513359
O23   O     O_R   0.142360 0.090190 0.552160 -0.511830
O24   O     O_R   0.037970 0.090250 0.447850 -0.511759
O25   O     O_R   0.947800 0.538090 0.090240 -0.504260

loop_
_geom_bond_atom_site_label_1
_geom_bond_atom_site_label_2
_ccdc_geom_bond_type
C29   H4    S    
C1    O1    A    
C27   C29   A    
C35   C36   A    
Cu2   O4    S    
C20   C41   S    
C19   C46   S    
C7    C8    A    
C39   C41   A    
Cu4   O22   S    
C27   C33   A    
C12   C23   S    
C29   C30   A    
Cu2   O16   S    
C34   C40   S    
C34   O18   S    
C8    H26   S    
Cu1   O15   S    
C36   C37   A    
Cu1   O1    S    
C30   C31   A    
C5    H24   S    
C48   O18   S    
C10   C17   A    
C49   H22   S    
Cu2   O14   S    
Cu3   Cu4   S    
C1    C2    S    
C48   H19   S    
Cu3   O19   S    
C25   C37   S    
Cu4   O20   S    
C11   H28   S    
C16   C17   S    
Cu2   O11   S    
C22   O2    A    
Cu6   O5    S    
C44   C47   S    
C19   O19   A    
C24   C51   S    
C40   C42   A    
C7    H25   S    
C13   C14   A    
C47   N1    T    
C23   H11   S    
Cu5   O8    S    
C35   C41   A    
C24   O3    A    
Cu3   O21   S    
C44   C46   A    
C19   O20   A    
C2    C45   A    
C15   H2    S    
C38   C39   A    
C36   H8    S    
C51   C52   A    
C12   C46   A    
C8    C9    A    
Cu4   O24   S    
C34   H14   S    
C35   H7    S    
C52   H17   S    
Cu5   Cu6   S    
C6    C21   S    
C49   H20   S    
C45   H15   S    
C18   O12   A    
C48   H18   S    
C12   C40   A    
Cu5   O6    S    
C18   O17   A    
C37   C38   A    
C3    C9    A    
C27   H3    S    
C24   O5    A    
C20   O22   A    
C28   O15   A    
C16   O14   A    
C31   C32   A    
C28   O16   A    
C23   C34   S    
C3    H23   S    
C50   C51   A    
C39   H10   S    
Cu6   O2    S    
Cu3   O17   S    
C31   H5    S    
C43   H1    S    
C26   O9    A    
C20   O21   A    
C21   O24   A    
C48   C49   S    
C38   H9    S    
C25   O6    A    
C4    O11   A    
C43   C44   A    
C13   C26   S    
C42   C43   A    
C53   H12   S    
C21   O23   A    
C52   C53   A    
C16   O13   A    
C15   C17   A    
Cu1   Cu2   S    
C10   H27   S    
C22   C30   S    
C23   H13   S    
Cu1   O13   S    
C3    C5    A    
C2    C53   A    
C6    C7    A    
Cu4   O12   S    
C49   H21   S    
C32   C33   A    
C14   H29   S    
C50   H16   S    
C11   C13   A    
C5    C6    A    
C4    C42   S    
C45   C50   A    
Cu1   O10   S    
C18   C33   S    
C10   C11   A    
C26   O8    A    
C22   O25   A    
C25   O7    A    
C1    O4    A    
Cu6   O7    S    
C4    O10   A    
Cu5   O25   S    
Cu6   O9    S    
C14   C15   A    
Cu5   O3    S    
Cu3   O23   S    
C9    C28   S    
C32   H6    S    
