data_mof_unit_33030.cif
_audit_creation_date              2012-10-26T19:57:55-0400
_audit_creation_method            fapswitch 2.2
_symmetry_space_group_name_H-M    P1
_symmetry_Int_Tables_number       1
_space_group_crystal_system       triclinic
_cell_length_a                    7.460075
_cell_length_b                    8.681793
_cell_length_c                    12.972334
_cell_angle_alpha                 88.054349
_cell_angle_beta                  78.894503
_cell_angle_gamma                 102.706654
_cell_volume                      801.692235911

loop_
_atom_site_label
_atom_site_type_symbol
_atom_type_description
_atom_site_fract_x
_atom_site_fract_y
_atom_site_fract_z
_atom_type_partial_charge
C1    C     C_R   0.452846 0.199710 0.503205 0.547797
C2    C     C_R   0.731794 0.586595 0.116674 0.088910
C3    C     C_R   0.601154 0.540431 0.858069 -0.163357
C4    C     C_R   0.398845 0.459578 0.141931 -0.163356
C5    C     C_R   0.587208 0.533410 0.966292 0.016033
C6    C     C_R   0.412791 0.466598 0.033708 0.016032
C7    C     C_2   0.426205 0.031922 0.504752 -0.152670
C8    C     C_2   0.573795 0.968078 0.495248 -0.152670
C9    C     C_R   0.547154 0.800290 0.496795 0.547796
C10   C     C_R   0.465087 0.492055 0.701628 0.565328
C11   C     C_R   0.534913 0.507945 0.298372 0.565327
C12   C     C_R   0.556856 0.518325 0.184131 0.040876
C13   C     C_R   0.443144 0.481678 0.815869 0.040876
C14   C     C_R   0.254639 0.406990 0.992109 -0.132442
C15   C     C_R   0.745362 0.593012 0.007891 -0.132442
C16   C     C_R   0.268209 0.413400 0.883325 0.088914
Cu1   Cu    Cu3+1 0.686350 0.517570 0.488220 0.974260
Cu2   Cu    Cu3+1 0.313650 0.482430 0.511780 0.974260
H1    H     H_    0.264608 0.406936 0.193356 0.130192
H2    H     H_    0.941489 0.772206 0.129861 0.224189
H3    H     H_    0.999875 0.405100 0.871945 0.225530
H4    H     H_    0.058548 0.227762 0.870135 0.224188
H5    H     H_    0.735390 0.593075 0.806644 0.130192
H6    H     H_    0.120685 0.354462 0.043770 0.106207
H7    H     H_    0.879316 0.645534 0.956229 0.106211
H8    H     H_    0.933727 0.376306 0.583246 0.243754
H9    H     H_    0.066273 0.623694 0.416754 0.243754
H10   H     H_    0.283840 0.960553 0.513715 0.135337
H11   H     H_    0.716160 0.039447 0.486285 0.135337
H12   H     H_    0.000115 0.594851 0.128055 0.225528
N1    N     N_2   0.033570 0.455950 0.529530 -0.256518
N2    N     N_2   0.966430 0.544050 0.470470 -0.256517
N3    N     N_3   0.894614 0.652885 0.157839 -0.603688
N4    N     N_3   0.105397 0.347087 0.842161 -0.603691
O1    O     O_R   0.621060 0.286250 0.492350 -0.509224
O2    O     O_R   0.378940 0.713750 0.507650 -0.509224
O3    O     O_R   0.306310 0.256580 0.512240 -0.497243
O4    O     O_R   0.693690 0.743420 0.487760 -0.497244
O5    O     O_R   0.631800 0.512400 0.642670 -0.524313
O6    O     O_R   0.368200 0.487600 0.357330 -0.524312
O7    O     O_R   0.317060 0.482730 0.662570 -0.458960
O8    O     O_R   0.682940 0.517270 0.337430 -0.458958

loop_
_geom_bond_atom_site_label_1
_geom_bond_atom_site_label_2
_ccdc_geom_bond_type
C9    O2    A    
C11   C12   S    
H3    N4    S    
C4    C12   A    
C3    H5    S    
N1    N2    D    
C3    C13   A    
C1    O3    A    
C2    C12   A    
Cu1   Cu2   S    
C7    C8    D    
C6    C14   A    
C10   O7    A    
C2    C15   A    
C5    C6    A    
C8    H11   S    
C2    N3    S    
C9    O4    A    
Cu2   O3    S    
Cu1   O4    S    
C11   O6    A    
H4    N4    S    
C14   C16   A    
C15   H7    S    
C5    C15   A    
H2    N3    S    
H8    N1    S    
C1    O1    A    
C11   O8    A    
C4    C6    A    
Cu1   O5    S    
C13   C16   A    
C14   H6    S    
Cu1   N2    S    
Cu2   O6    S    
Cu1   O8    S    
C10   O5    A    
Cu2   N1    S    
Cu1   O1    S    
H12   N3    S    
C16   N4    S    
H9    N2    S    
C1    C7    S    
C4    H1    S    
Cu2   O2    S    
C7    H10   S    
Cu2   O7    S    
C8    C9    S    
C3    C5    A    
C10   C13   S    
