data_mof_unit_56955.cif
_audit_creation_date              2012-12-10T19:09:04-0500
_audit_creation_method            fapswitch 2.2
_symmetry_space_group_name_H-M    P1
_symmetry_Int_Tables_number       1
_space_group_crystal_system       triclinic
_cell_length_a                    17.737162
_cell_length_b                    10.834327
_cell_length_c                    9.535657
_cell_angle_alpha                 90.542786
_cell_angle_beta                  89.075871
_cell_angle_gamma                 90.951463
_cell_volume                      1831.90059642

loop_
_atom_site_label
_atom_site_type_symbol
_atom_type_description
_atom_site_fract_x
_atom_site_fract_y
_atom_site_fract_z
_atom_type_partial_charge
C1    C     C_R   0.498026 0.262288 0.499419 0.816222
C2    C     C_R   0.886118 0.470488 0.515723 0.093980
C3    C     C_1   0.966638 0.470526 0.521070 -0.037678
C4    C     C_1   0.034276 0.473708 0.520343 -0.070105
C5    C     C_R   0.155066 0.487792 0.640084 -0.157984
C6    C     C_R   0.233571 0.495251 0.635236 -0.198143
C7    C     C_R   0.272543 0.495029 0.505478 -0.037374
C8    C     C_R   0.231489 0.488125 0.380764 -0.177432
C9    C     C_R   0.152902 0.480643 0.385988 -0.160567
C10   C     C_R   0.114818 0.480024 0.515587 0.148881
C11   C     C_R   0.479076 0.064698 0.622828 0.023347
C12   C     C_R   0.355512 0.499258 0.501288 0.788523
C13   C     C_R   0.489487 0.129173 0.497842 -0.076265
C14   C     C_R   0.489141 0.062892 0.370422 -0.173278
C15   C     C_R   0.489816 0.934252 0.371143 -0.211887
C16   C     C_R   0.490606 0.870750 0.499278 -0.123105
C17   C     C_R   0.479125 0.937345 0.623573 -0.008427
C18   C     C_3   0.521653 0.936918 0.759252 0.296044
C19   C     C_3   0.519842 0.077059 0.758218 -0.478157
C20   C     C_R   0.525839 0.600842 0.074205 0.136390
C21   C     C_R   0.464264 0.408794 0.074139 0.658678
C22   C     C_R   0.464250 0.409028 0.925286 -0.188610
C23   C     C_R   0.498563 0.737791 0.500320 0.783463
C24   C     C_R   0.527760 0.599356 0.926777 0.304014
C25   C     C_3   0.606671 0.649203 0.924041 -0.460044
C26   C     C_3   0.602151 0.657329 0.082718 -0.480213
C27   C     C_R   0.644907 0.497410 0.498902 0.807147
C28   C     C_R   0.843295 0.489436 0.636977 -0.164814
C29   C     C_R   0.765354 0.497155 0.628968 -0.274347
C30   C     C_R   0.728677 0.489101 0.499023 -0.119779
C31   C     C_R   0.772426 0.470824 0.374276 0.473475
C32   C     C_R   0.851345 0.457388 0.386490 -0.269944
Cu1   Cu    Cu3+1 0.500000 0.499980 0.640670 0.940542
Cu2   Cu    Cu3+1 0.500000 0.500020 0.359330 1.006848
H1    H     H_    0.870181 0.498183 0.737773 0.141344
H2    H     H_    0.493884 0.885488 0.271699 0.171030
H3    H     H_    0.579779 0.902257 0.743956 0.093880
H4    H     H_    0.483953 0.117725 0.842737 0.212262
H5    H     H_    0.576635 0.120980 0.745612 0.170891
H6    H     H_    0.436085 0.334787 0.869318 0.167644
H7    H     H_    0.647605 0.580001 0.885779 0.183756
H8    H     H_    0.612270 0.740551 0.874050 0.208466
H9    H     H_    0.641081 0.596217 0.136339 0.252926
H10   H     H_    0.733868 0.510074 0.725608 0.160619
H11   H     H_    0.600620 0.753633 0.123808 0.203235
H12   H     H_    0.887253 0.438841 0.296513 0.130220
H13   H     H_    0.125809 0.488048 0.740734 0.129755
H14   H     H_    0.263640 0.500738 0.733119 0.153212
H15   H     H_    0.259982 0.487830 0.279446 0.164996
H16   H     H_    0.121853 0.475282 0.289112 0.130413
H17   H     H_    0.492835 0.109725 0.270663 0.207052
N1    N     N_R   0.500470 0.500930 0.147930 -0.234666
N2    N     N_R   0.500480 0.500890 0.852020 -0.226706
O1    O     O_R   0.500000 0.319640 0.618810 -0.588683
O2    O     O_R   0.500010 0.319680 0.381230 -0.521502
O3    O     O_R   0.391250 0.499990 0.618840 -0.590939
O4    O     O_R   0.391260 0.500020 0.381250 -0.551349
O5    O     O_R   0.499990 0.680320 0.618770 -0.578652
O6    O     O_R   0.500000 0.680360 0.381190 -0.587811
O7    O     O_R   0.608740 0.499980 0.618750 -0.589897
O8    O     O_R   0.608750 0.500010 0.381160 -0.536848
O9    O     O_3   0.485608 0.885761 0.881027 -0.603262
C33   C     C_3   0.406406 0.871443 0.870926 0.095392
H18   H     H_    0.392740 0.796762 0.794043 0.160306
H19   H     H_    0.380013 0.959115 0.838862 0.146179
C34   C     C_3   0.373625 0.835578 0.014307 -0.336703
H20   H     H_    0.400859 0.750575 0.051137 0.216862
H21   H     H_    0.385263 0.911016 0.091164 0.230517
C35   C     C_3   0.288690 0.812094 0.008002 -0.920969
H22   H     H_    0.259751 0.896559 0.973809 0.261165
H23   H     H_    0.266749 0.786425 0.113675 0.260916
H24   H     H_    0.275951 0.735190 0.933725 0.251076
F1    F     F_    0.427975 0.315863 0.142749 -0.675723
O10   O     O_3   0.735413 0.459979 0.246440 -0.616878
C36   C     C_3   0.779412 0.493838 0.126502 0.035335
H25   H     H_    0.742719 0.480372 0.034205 0.166941
H26   H     H_    0.826626 0.429801 0.106483 0.132804
C37   C     C_3   0.805830 0.630340 0.130167 -0.385315
H27   H     H_    0.758123 0.690584 0.160093 0.226655
H28   H     H_    0.850438 0.644816 0.209105 0.214151
C38   C     C_3   0.837561 0.670970 0.988071 -0.906883
H29   H     H_    0.886913 0.614233 0.957984 0.248922
H30   H     H_    0.856116 0.769221 0.994359 0.260571
H31   H     H_    0.793767 0.661787 0.906548 0.253892

loop_
_geom_bond_atom_site_label_1
_geom_bond_atom_site_label_2
_ccdc_geom_bond_type
C8    C9    A    
C23   O5    A    
C34   H21   S    
C33   H19   S    
Cu1   O5    S    
C1    O1    A    
C38   H29   S    
C7    C8    A    
C23   O6    A    
C5    H13   S    
C11   C19   S    
O9    C33   S    
C6    H14   S    
C28   C29   A    
C18   H3    S    
C27   O7    A    
C30   C31   A    
C37   H28   S    
C34   C35   S    
C15   C16   A    
C21   F1    S    
C2    C32   A    
C18   C19   S    
C35   H23   S    
C27   O8    A    
C26   H11   S    
C14   H17   S    
C28   H1    S    
C16   C17   A    
Cu2   O4    S    
C9    C10   A    
Cu1   O3    S    
C34   H20   S    
C33   C34   S    
Cu2   O2    S    
C13   C14   A    
C27   C30   S    
C38   H30   S    
C26   H9    S    
Cu1   Cu2   S    
C22   N2    A    
Cu1   N2    S    
C7    C12   S    
O10   C36   S    
C20   C24   A    
C24   C25   S    
C25   H7    S    
C37   H27   S    
C18   O9    S    
C31   O10   S    
C25   C26   S    
Cu2   O8    S    
C35   H24   S    
C36   H25   S    
C29   C30   A    
C19   H4    S    
C31   C32   A    
C22   H6    S    
C17   C18   S    
C36   H26   S    
C12   O3    A    
C19   H5    S    
C12   O4    A    
C16   C23   S    
C29   H10   S    
Cu2   O6    S    
C1    C13   S    
C4    C10   S    
C3    C4    T    
C15   H2    S    
C38   H31   S    
Cu1   O1    S    
C11   C17   A    
C32   H12   S    
C9    H16   S    
C25   H8    S    
C6    C7    A    
Cu1   O7    S    
Cu2   N1    S    
C2    C3    S    
C24   N2    A    
C5    C10   A    
C20   N1    A    
C11   C13   A    
C37   C38   S    
C5    C6    A    
C20   C26   S    
C1    O2    A    
C35   H22   S    
C36   C37   S    
C33   H18   S    
C14   C15   A    
C2    C28   A    
C21   C22   A    
C8    H15   S    
C21   N1    A    
