data_mof_unit_15013.cif
_audit_creation_date              2012-10-26T19:34:01-0400
_audit_creation_method            fapswitch 2.2
_symmetry_space_group_name_H-M    P1
_symmetry_Int_Tables_number       1
_space_group_crystal_system       triclinic
_cell_length_a                    8.754926
_cell_length_b                    19.362327
_cell_length_c                    18.174824
_cell_angle_alpha                 89.870973
_cell_angle_beta                  97.550377
_cell_angle_gamma                 90.800364
_cell_volume                      3053.90804121

loop_
_atom_site_label
_atom_site_type_symbol
_atom_type_description
_atom_site_fract_x
_atom_site_fract_y
_atom_site_fract_z
_atom_type_partial_charge
C1    C     C_R   0.500187 0.367844 0.500064 0.611478
C2    C     C_R   0.594878 0.544804 0.284555 0.383922
C3    C     C_R   0.412911 0.451956 0.794080 0.331946
C4    C     C_R   0.600371 0.542877 0.206989 0.361894
C5    C     C_R   0.505865 0.499208 0.839090 0.012051
C6    C     C_R   0.502258 0.498086 0.161452 0.008837
C7    C     C_R   0.596208 0.546475 0.804193 0.392625
C8    C     C_R   0.403601 0.454029 0.195511 0.401165
C9    C     C_R   0.592797 0.545579 0.726663 0.513167
C10   C     C_R   0.404719 0.455553 0.272988 0.527985
C11   C     C_R   0.471179 0.558976 0.959596 0.422413
C12   C     C_R   0.501177 0.632161 0.499999 0.600347
C13   C     C_R   0.539756 0.438077 0.041444 0.428209
C14   C     C_R   0.469374 0.558525 0.036920 0.421630
C15   C     C_R   0.542801 0.438637 0.964159 0.430928
C16   C     C_R   0.203986 0.500059 0.481272 0.601769
C17   C     C_R   0.795963 0.501282 0.518633 0.564571
C18   C     C_R   0.503019 0.498015 0.078840 -0.011418
C19   C     C_R   0.507776 0.499032 0.922033 -0.016208
C20   C     C_2   0.039166 0.496994 0.470868 0.358338
C21   C     C_2   0.960527 0.506716 0.528493 0.282293
C22   C     C_R   0.390428 0.744504 0.459488 0.328989
C23   C     C_R   0.514708 0.964395 0.567604 0.388614
C24   C     C_R   0.385643 0.253964 0.522785 0.366707
C25   C     C_R   0.394736 0.816299 0.460535 0.420445
C26   C     C_R   0.389986 0.182224 0.521890 0.423430
C27   C     C_R   0.517565 0.851696 0.502310 0.005121
C28   C     C_R   0.516749 0.148514 0.499109 0.006244
C29   C     C_R   0.636609 0.814873 0.544350 0.224063
C30   C     C_R   0.639561 0.187006 0.475720 0.228650
C31   C     C_R   0.634045 0.741952 0.541402 0.186050
C32   C     C_R   0.636244 0.259912 0.478416 0.180963
C33   C     C_R   0.508329 0.707311 0.500461 -0.072546
C34   C     C_R   0.523485 0.035801 0.434030 0.391211
C35   C     C_R   0.507158 0.292776 0.500323 -0.042382
C36   C     C_3   0.780650 0.836023 0.657884 0.042667
C37   C     C_3   0.797085 0.168314 0.385578 0.051286
C38   C     C_3   0.867276 0.695208 0.532912 -0.037368
C39   C     C_3   0.867510 0.308761 0.521554 -0.053789
C40   C     C_3   0.668706 0.081911 0.667686 -0.035329
C41   C     C_3   0.689806 0.919542 0.359510 -0.035632
C42   C     C_3   0.168470 0.400144 0.685389 0.050389
C43   C     C_3   0.653386 0.658001 0.313117 -0.012297
C44   C     C_R   0.520220 0.036561 0.567731 0.274326
C45   C     C_R   0.529496 0.963706 0.434812 0.274329
C46   C     C_R   0.520693 0.072524 0.500321 0.005177
C47   C     C_R   0.521196 0.927711 0.501618 0.006134
C48   C     C_R   0.407593 0.454061 0.715448 0.364055
Cu1   Cu    Cu3+1 0.499960 0.500000 0.573360 1.173263
Cu2   Cu    Cu3+1 0.500040 0.500000 0.426640 1.208410
F1    F     F_    0.968196 0.481317 0.401492 -0.558072
F2    F     F_    0.583177 0.380302 0.930628 -0.483936
F3    F     F_    0.269570 0.711074 0.419623 -0.575159
F4    F     F_    0.261558 0.285742 0.544343 -0.597977
F5    F     F_    0.277613 0.851571 0.421624 -0.530413
F6    F     F_    0.269337 0.145355 0.542370 -0.534060
F7    F     F_    0.500240 0.930306 0.631738 -0.585769
F8    F     F_    0.517628 0.069740 0.368291 -0.578298
F9    F     F_    0.329039 0.404067 0.826709 -0.567493
F10   F     F_    0.704756 0.582580 0.176535 -0.545898
F11   F     F_    0.031209 0.525070 0.597031 -0.647976
F12   F     F_    0.691279 0.591983 0.845141 -0.500872
F13   F     F_    0.305336 0.410206 0.153947 -0.492199
F14   F     F_    0.684586 0.590313 0.694627 -0.504355
F15   F     F_    0.309134 0.412317 0.304629 -0.506890
F16   F     F_    0.433143 0.617768 0.921060 -0.487472
F17   F     F_    0.576386 0.379223 0.080116 -0.481482
F18   F     F_    0.431319 0.617085 0.070794 -0.502023
H1    H     H_    0.866753 0.794700 0.670386 0.195298
H2    H     H_    0.916087 0.258674 0.542920 0.202851
H3    H     H_    0.818315 0.336886 0.566147 0.083449
H4    H     H_    0.963912 0.340729 0.505489 0.193460
H5    H     H_    0.725889 0.031742 0.681960 0.165180
H6    H     H_    0.666096 0.110701 0.720187 0.188966
H7    H     H_    0.737458 0.113378 0.632176 0.118556
H8    H     H_    0.751823 0.888431 0.405353 0.117802
H9    H     H_    0.749638 0.970171 0.354759 0.171064
H10   H     H_    0.694180 0.890897 0.307061 0.183845
H11   H     H_    0.092839 0.389249 0.632760 0.138619
H12   H     H_    0.671217 0.821398 0.679569 0.195902
H13   H     H_    0.125176 0.447813 0.709482 0.181698
H14   H     H_    0.157261 0.355328 0.722560 0.203017
H15   H     H_    0.702674 0.690765 0.360561 0.107658
H16   H     H_    0.526453 0.666205 0.305051 0.148273
H17   H     H_    0.704827 0.676422 0.263895 0.220783
H18   H     H_    0.827201 0.882828 0.688569 0.164563
H19   H     H_    0.884195 0.210628 0.386962 0.197980
H20   H     H_    0.691684 0.181906 0.347182 0.190952
H21   H     H_    0.847027 0.122233 0.362118 0.170098
H22   H     H_    0.909760 0.745357 0.512701 0.161553
H23   H     H_    0.824722 0.661036 0.485326 0.116971
H24   H     H_    0.966882 0.669462 0.565227 0.207679
N1    N     N_R   0.499980 0.500020 0.683620 -0.299870
N2    N     N_R   0.500020 0.499980 0.316380 -0.301452
O1    O     O_R   0.499930 0.400180 0.561970 -0.469674
O2    O     O_3   0.767856 0.152243 0.458376 -0.552073
O3    O     O_3   0.752648 0.704535 0.579569 -0.503964
O4    O     O_3   0.757337 0.299224 0.458397 -0.541652
O5    O     O_3   0.516018 0.071873 0.633411 -0.470867
O6    O     O_3   0.534121 0.928395 0.369161 -0.471892
O7    O     O_3   0.321847 0.406383 0.669638 -0.478611
O8    O     O_3   0.692262 0.588538 0.329678 -0.478596
O9    O     O_R   0.500070 0.599820 0.438030 -0.497827
O10   O     O_R   0.500010 0.400190 0.438070 -0.434606
O11   O     O_R   0.499990 0.599810 0.561930 -0.431391
O12   O     O_R   0.274810 0.500000 0.547650 -0.471183
O13   O     O_R   0.725190 0.500000 0.452350 -0.442736
O14   O     O_R   0.274880 0.500000 0.423750 -0.421214
O15   O     O_R   0.725120 0.500000 0.576250 -0.454569
O16   O     O_3   0.761427 0.851322 0.581168 -0.562819

loop_
_geom_bond_atom_site_label_1
_geom_bond_atom_site_label_2
_ccdc_geom_bond_type
Cu2   O10   S    
C27   C29   A    
C9    F14   S    
C43   H15   S    
C14   C18   A    
C37   H20   S    
C42   H14   S    
C40   O5    S    
C15   C19   A    
C11   C19   A    
C13   C18   A    
C24   C26   A    
C20   F1    S    
C17   O13   A    
C41   H9    S    
C12   O11   A    
C44   O5    S    
C10   N2    A    
C24   F4    S    
C38   H24   S    
C3    C48   A    
C40   H5    S    
C23   F7    S    
C30   O2    S    
C32   O4    S    
C22   C25   A    
C39   H4    S    
C31   C33   A    
C34   C46   A    
C21   F11   S    
C11   F16   S    
C16   C20   S    
C42   H11   S    
C39   H3    S    
Cu2   O14   S    
C43   H16   S    
C42   H13   S    
C38   O3    S    
C44   C46   A    
C22   F3    S    
C45   C47   A    
C6    C18   S    
C24   C35   A    
C23   C47   A    
C48   N1    A    
C43   H17   S    
C32   C35   A    
C29   O16   S    
C2    N2    A    
C12   O9    A    
C4    C6    A    
C36   H12   S    
C41   H10   S    
C5    C7    A    
Cu2   N2    S    
C39   O4    S    
C6    C8    A    
C36   H18   S    
C38   H23   S    
C17   C21   S    
C23   C44   A    
C37   O2    S    
C17   O15   A    
C2    C4    A    
C7    F12   S    
C1    O1    A    
C28   C46   S    
C4    F10   S    
C41   O6    S    
C34   C45   A    
C15   F2    S    
Cu1   O1    S    
C1    O10   A    
C13   C15   A    
C36   O16   S    
Cu2   O13   S    
C42   O7    S    
C9    N1    A    
C36   H1    S    
C1    C35   S    
Cu1   O15   S    
C13   F17   S    
C10   F15   S    
C27   C47   S    
C7    C9    A    
C22   C33   A    
C14   F18   S    
C37   H19   S    
C25   F5    S    
C3    C5    A    
C45   O6    S    
C26   F6    S    
Cu1   O11   S    
Cu1   O12   S    
C5    C19   S    
C16   O12   A    
C25   C27   A    
C38   H22   S    
C26   C28   A    
C40   H7    S    
C37   H21   S    
C28   C30   A    
C43   O8    S    
C29   C31   A    
C41   H8    S    
C30   C32   A    
C48   O7    S    
C11   C14   A    
C39   H2    S    
C40   H6    S    
C31   O3    S    
C16   O14   A    
C8    F13   S    
Cu2   O9    S    
C20   C21   D    
C8    C10   A    
Cu1   Cu2   S    
C34   F8    S    
C2    O8    S    
Cu1   N1    S    
C12   C33   S    
C3    F9    S    
