data_mof_unit_48945.cif
_audit_creation_date              2012-12-10T20:34:57-0500
_audit_creation_method            fapswitch 2.2
_symmetry_space_group_name_H-M    P1
_symmetry_Int_Tables_number       1
_space_group_crystal_system       triclinic
_cell_length_a                    10.751893
_cell_length_b                    10.768612
_cell_length_c                    9.858401
_cell_angle_alpha                 87.699982
_cell_angle_beta                  89.769465
_cell_angle_gamma                 89.925268
_cell_volume                      1140.50534991

loop_
_atom_site_label
_atom_site_type_symbol
_atom_type_description
_atom_site_fract_x
_atom_site_fract_y
_atom_site_fract_z
_atom_type_partial_charge
C1    C     C_R   0.508284 0.260302 0.501690 0.970597
C2    C     C_3   0.877092 0.496033 0.500444 0.033244
C3    C     C_3   0.922791 0.634137 0.523860 -0.016800
C4    C     C_3   0.927105 0.450446 0.362884 -0.410512
C5    C     C_R   0.472843 0.055898 0.608431 0.106393
C6    C     C_R   0.522549 0.128218 0.502363 -0.136765
C7    C     C_R   0.576013 0.066432 0.390092 -0.009044
C8    C     C_R   0.563311 0.936698 0.385513 -0.171996
C9    C     C_R   0.505712 0.869957 0.493229 -0.136053
C10   C     C_R   0.462928 0.932807 0.602321 0.045616
C11   C     C_3   0.404925 0.913403 0.738456 -0.185368
C12   C     C_R   0.257430 0.500886 0.499953 0.977627
C13   C     C_3   0.413828 0.055257 0.745834 -0.418112
C14   C     C_R   0.411062 0.435817 0.074882 0.132872
C15   C     C_R   0.580774 0.571909 0.068466 -0.101755
C16   C     C_R   0.580758 0.571940 0.924430 -0.117014
C17   C     C_R   0.411278 0.436146 0.931645 0.167283
C18   C     C_3   0.396453 0.299907 0.930957 -0.463735
C19   C     C_3   0.394727 0.297951 0.084111 -0.124435
C20   C     C_R   0.500760 0.739274 0.497546 0.910532
C21   C     C_R   0.741504 0.496287 0.499915 0.924935
C22   C     C_3   0.071336 0.398782 0.614159 -0.122832
C23   C     C_3   0.925106 0.402728 0.615042 -0.241292
C24   C     C_3   0.068865 0.633026 0.533645 -0.225121
C25   C     C_3   0.068622 0.464284 0.355031 -0.039381
C26   C     C_3   0.120083 0.500037 0.499885 -0.015508
H1    H     H_    0.881294 0.500764 0.276215 0.214388
H2    H     H_    0.602926 0.887356 0.301877 0.198283
H3    H     H_    0.466835 0.861795 0.811234 0.152802
H4    H     H_    0.323895 0.105945 0.744943 0.241186
H5    H     H_    0.481729 0.078271 0.824724 0.190885
H6    H     H_    0.647616 0.628048 0.120171 0.162047
H7    H     H_    0.647586 0.628130 0.867281 0.162550
H8    H     H_    0.308030 0.272246 0.883436 0.240401
H9    H     H_    0.482839 0.259661 0.890491 0.196958
H10   H     H_    0.474231 0.246778 0.130863 0.201079
H11   H     H_    0.892066 0.440630 0.711795 0.161047
H12   H     H_    0.093658 0.647582 0.640290 0.064474
H13   H     H_    0.106129 0.372704 0.327737 0.167476
H14   H     H_    0.902677 0.351726 0.349071 0.210782
N1    N     N_R   0.499150 0.499140 0.142800 -0.122469
N2    N     N_R   0.499150 0.499180 0.857150 -0.117439
O1    O     O_R   0.500020 0.316790 0.614690 -0.606859
O2    O     O_R   0.500000 0.316760 0.385350 -0.664159
O3    O     O_R   0.314800 0.500000 0.614670 -0.665791
O4    O     O_R   0.314790 0.499960 0.385330 -0.593569
O5    O     O_R   0.500000 0.683240 0.614650 -0.648830
O6    O     O_R   0.499980 0.683210 0.385310 -0.593636
O7    O     O_R   0.685210 0.500040 0.614670 -0.620650
O8    O     O_R   0.685200 0.500000 0.385330 -0.654461
Zn1   Zn    Zn3+2 0.500010 0.500020 0.653130 0.952247
Zn2   Zn    Zn3+2 0.499990 0.499980 0.346870 0.973146
C27   C     C_2   0.110852 0.425785 0.759647 0.281432
H15   H     H_    0.160615 0.508929 0.784726 0.114288
O9    O     O_2   0.081372 0.354695 0.854125 -0.615550
C28   C     C_2   0.129672 0.746585 0.463545 0.487406
H16   H     H_    0.098302 0.838252 0.490501 0.093403
O10   O     O_2   0.213118 0.739132 0.380126 -0.541723
C29   C     C_2   0.872065 0.721731 0.410057 0.411664
H17   H     H_    0.789217 0.776203 0.428856 0.062256
O11   O     O_2   0.918486 0.729225 0.296878 -0.545015
C30   C     C_2   0.652018 0.131970 0.282942 0.436390
H18   H     H_    0.685437 0.225596 0.295864 0.120037
O12   O     O_2   0.680289 0.081004 0.178701 -0.577778
C31   C     C_2   0.276177 0.859742 0.732523 0.459948
H19   H     H_    0.265897 0.762984 0.709016 0.040713
O13   O     O_2   0.183969 0.921281 0.757402 -0.577740
C32   C     C_2   0.122040 0.267485 0.590374 0.415667
H20   H     H_    0.091767 0.189885 0.656002 0.134020
O14   O     O_2   0.200265 0.246517 0.504251 -0.638311
N3    N     N_3   0.274591 0.258994 0.141218 -0.387236
H21   H     H_    0.279998 0.266026 0.246331 0.242645
H22   H     H_    0.204258 0.319298 0.106265 0.217057
C33   C     C_2   0.864075 0.274589 0.623081 0.366492
H23   H     H_    0.874016 0.217350 0.715576 0.121037
O15   O     O_2   0.803838 0.234324 0.530129 -0.643887
N4    N     N_3   0.870314 0.680312 0.651438 -0.494797
H24   H     H_    0.908768 0.635170 0.737073 0.193485
H25   H     H_    0.893805 0.774094 0.659308 0.190287
N5    N     N_3   0.102155 0.554530 0.243877 -0.310025
H26   H     H_    0.188775 0.532685 0.203517 0.207843
H27   H     H_    0.044459 0.543527 0.160083 0.200723

loop_
_geom_bond_atom_site_label_1
_geom_bond_atom_site_label_2
_ccdc_geom_bond_type
C25   N5    S    
C19   N3    S    
C21   O7    A    
C4    C25   S    
C15   H6    S    
C27   H15   S    
C33   O15   D    
C24   C26   S    
C19   H10   S    
C5    C6    A    
O3    Zn1   S    
C15   C16   A    
O4    Zn2   S    
C28   H16   S    
C18   C19   S    
C17   N2    A    
C30   O12   D    
C9    C20   S    
C32   H20   S    
C1    O1    A    
C4    H14   S    
C8    C9    A    
C31   O13   D    
C24   H12   S    
C18   H9    S    
N1    Zn2   S    
C5    C13   S    
N2    Zn1   S    
O2    Zn2   S    
C27   O9    D    
C29   H17   S    
C14   C17   A    
C3    C24   S    
C21   O8    A    
C22   C27   S    
N4    H25   S    
C29   O11   D    
C33   H23   S    
C1    C6    S    
C13   H4    S    
C7    C8    A    
C15   N1    A    
C12   O4    A    
N3    H22   S    
N5    H26   S    
O5    Zn1   S    
O7    Zn1   S    
C25   C26   S    
N4    H24   S    
C12   C26   S    
C2    C4    S    
C7    C30   S    
C30   H18   S    
C16   H7    S    
C1    O2    A    
O8    Zn2   S    
C2    C21   S    
C17   C18   S    
C18   H8    S    
C22   C32   S    
C20   O6    A    
C14   N1    A    
N5    H27   S    
C8    H2    S    
C23   C33   S    
C3    N4    S    
C16   N2    A    
C4    H1    S    
C9    C10   A    
C14   C19   S    
C13   H5    S    
C12   O3    A    
C6    C7    A    
C24   C28   S    
C2    C3    S    
C5    C10   A    
C23   H11   S    
C25   H13   S    
C11   C13   S    
O1    Zn1   S    
C28   O10   D    
C20   O5    A    
C10   C11   S    
O6    Zn2   S    
N3    H21   S    
C11   H3    S    
C32   O14   D    
C31   H19   S    
C22   C26   S    
C2    C23   S    
C22   C23   S    
C11   C31   S    
C3    C29   S    
