data_mof_unit_47223.cif
_audit_creation_date              2012-12-10T19:12:33-0500
_audit_creation_method            fapswitch 2.2
_symmetry_space_group_name_H-M    P1
_symmetry_Int_Tables_number       1
_space_group_crystal_system       triclinic
_cell_length_a                    15.706303
_cell_length_b                    10.623398
_cell_length_c                    9.746905
_cell_angle_alpha                 89.804138
_cell_angle_beta                  89.704293
_cell_angle_gamma                 89.758338
_cell_volume                      1626.26758052

loop_
_atom_site_label
_atom_site_type_symbol
_atom_type_description
_atom_site_fract_x
_atom_site_fract_y
_atom_site_fract_z
_atom_type_partial_charge
C1    C     C_R   0.495776 0.258133 0.500224 0.844146
C2    C     C_3   0.586075 0.928404 0.516379 -0.025689
C3    C     C_3   0.437549 0.071421 0.624426 0.018009
C4    C     C_R   0.337956 0.500414 0.500329 0.883348
C5    C     C_3   0.454382 0.074413 0.362841 -0.410251
C6    C     C_3   0.491788 0.121850 0.500567 0.047398
C7    C     C_3   0.492797 0.878629 0.497184 0.016393
C8    C     C_3   0.437450 0.926348 0.619744 -0.452116
C9    C     C_3   0.453519 0.929898 0.359304 0.032320
C10   C     C_3   0.452287 0.386389 0.078979 0.149846
C11   C     C_3   0.456419 0.383819 0.917278 -0.256018
C12   C     C_3   0.083057 0.503834 0.501586 0.183306
C13   C     C_3   0.459469 0.615503 0.079130 -0.276893
C14   C     C_3   0.587403 0.493675 0.079298 0.067907
C15   C     C_3   0.453668 0.608912 0.917867 -0.251719
C16   C     C_R   0.495085 0.741958 0.499510 0.835248
C17   C     C_3   0.586502 0.501273 0.916712 -0.252009
C18   C     C_R   0.662133 0.500170 0.499662 0.921655
C19   C     C_3   0.971894 0.397131 0.558542 -0.200532
C20   C     C_3   0.030057 0.402936 0.429875 -0.180755
C21   C     C_1   0.249118 0.501722 0.501335 -0.211332
C22   C     C_1   0.751142 0.501459 0.498527 -0.205816
C23   C     C_3   0.970860 0.603944 0.569029 -0.202273
C24   C     C_3   0.026879 0.497692 0.630388 -0.153089
C25   C     C_3   0.362642 0.879969 0.326393 -0.392828
C26   C     C_3   0.336306 0.909137 0.178509 -0.939907
C27   C     C_3   0.345673 0.126218 0.632414 -0.394123
C28   C     C_3   0.303724 0.100466 0.771640 -0.908871
C29   C     C_3   0.361327 0.353369 0.132845 -0.345950
C30   C     C_3   0.287943 0.444837 0.102546 -0.855547
C31   C     C_3   0.638838 0.373725 0.122626 -0.375099
C32   C     C_3   0.734700 0.397080 0.121546 -0.945807
C33   C     C_3   0.943359 0.514866 0.222059 -0.436469
C34   C     C_3   0.917527 0.503329 0.497164 0.153335
C35   C     C_3   0.017295 0.527349 0.120866 -0.884595
C36   C     C_3   0.652546 0.875782 0.411885 -0.397779
C37   C     C_3   0.744093 0.903933 0.454642 -0.908354
C38   C     C_3   0.029090 0.610494 0.440350 -0.175209
C39   C     C_3   0.974602 0.509460 0.370006 0.225305
C40   C     C_1   0.173835 0.502950 0.502100 -0.075969
C41   C     C_1   0.826518 0.502527 0.497300 -0.092874
C42   C     C_3   0.584328 0.073453 0.513690 -0.457976
H1    H     H_    0.056315 0.321155 0.372737 0.129923
H2    H     H_    0.481614 0.696210 0.874049 0.149015
H3    H     H_    0.054548 0.697469 0.392135 0.129283
H4    H     H_    0.944544 0.685814 0.625920 0.139384
H5    H     H_    0.050710 0.492914 0.737336 0.134148
H6    H     H_    0.613748 0.109660 0.609470 0.154340
H7    H     H_    0.622731 0.111358 0.426545 0.184959
H8    H     H_    0.607392 0.898071 0.620406 0.161197
H9    H     H_    0.495730 0.899334 0.273487 0.152968
H10   H     H_    0.329197 0.012039 0.162019 0.258808
H11   H     H_    0.384206 0.872135 0.104749 0.249475
H12   H     H_    0.470684 0.099690 0.720379 0.157557
H13   H     H_    0.274183 0.863989 0.156947 0.254702
H14   H     H_    0.359178 0.776543 0.340256 0.219461
H15   H     H_    0.314488 0.921495 0.396560 0.204466
H16   H     H_    0.296534 0.997842 0.789607 0.261688
H17   H     H_    0.342384 0.141171 0.855452 0.246839
H18   H     H_    0.239524 0.144633 0.774399 0.255571
H19   H     H_    0.346274 0.229733 0.617617 0.212393
H20   H     H_    0.305140 0.086669 0.550521 0.203863
H21   H     H_    0.285828 0.523846 0.176010 0.268358
H22   H     H_    0.290276 0.480943 0.996054 0.240898
H23   H     H_    0.463203 0.890838 0.718870 0.159017
H24   H     H_    0.226729 0.394055 0.115310 0.233390
H25   H     H_    0.343675 0.263068 0.083087 0.150399
H26   H     H_    0.362200 0.328098 0.242677 0.231963
H27   H     H_    0.487209 0.300867 0.112740 0.073694
H28   H     H_    0.392239 0.375536 0.870941 0.178176
H29   H     H_    0.396530 0.634489 0.125062 0.188402
H30   H     H_    0.386093 0.608932 0.884946 0.158137
H31   H     H_    0.622789 0.576874 0.118189 0.153645
H32   H     H_    0.756701 0.423905 0.017063 0.258914
H33   H     H_    0.750901 0.473447 0.194120 0.273227
H34   H     H_    0.389716 0.115272 0.349034 0.164713
H35   H     H_    0.768643 0.309947 0.153409 0.252241
H36   H     H_    0.620117 0.338528 0.224748 0.259523
H37   H     H_    0.626188 0.294078 0.051965 0.168922
H38   H     H_    0.624876 0.424840 0.868821 0.174205
H39   H     H_    0.617878 0.590068 0.883164 0.137515
H40   H     H_    0.052848 0.615706 0.139706 0.257522
H41   H     H_    0.061379 0.445854 0.130855 0.256028
H42   H     H_    0.992339 0.529740 0.014497 0.249619
H43   H     H_    0.908254 0.426998 0.199690 0.215522
H44   H     H_    0.899462 0.596339 0.209795 0.207127
H45   H     H_    0.493550 0.108045 0.274547 0.156798
H46   H     H_    0.755605 0.006847 0.458298 0.261679
H47   H     H_    0.757397 0.862174 0.556985 0.256006
H48   H     H_    0.788993 0.861859 0.379092 0.251235
H49   H     H_    0.647861 0.772040 0.404154 0.220902
H50   H     H_    0.641421 0.915616 0.307951 0.201606
H51   H     H_    0.371970 0.887813 0.612062 0.177954
H52   H     H_    0.946513 0.310169 0.606877 0.138933
H53   H     H_    0.491620 0.298144 0.883535 0.118887
H54   H     H_    0.498328 0.698664 0.107695 0.128826
N1    N     N_3   0.498170 0.499750 0.138610 -0.066969
N2    N     N_3   0.498850 0.496730 0.861320 -0.056920
O1    O     O_R   0.499980 0.314910 0.616040 -0.631707
O2    O     O_R   0.500040 0.314680 0.383960 -0.661768
O3    O     O_R   0.376750 0.500100 0.616020 -0.620362
O4    O     O_R   0.376810 0.499870 0.383940 -0.622903
O5    O     O_R   0.499960 0.685320 0.616040 -0.629997
O6    O     O_R   0.500020 0.685090 0.383960 -0.643902
O7    O     O_R   0.623190 0.500130 0.616060 -0.618905
O8    O     O_R   0.623250 0.499900 0.383980 -0.627573
Zn1   Zn    Zn3+2 0.499960 0.500150 0.654960 0.896046
Zn2   Zn    Zn3+2 0.500040 0.499850 0.345040 0.888575

loop_
_geom_bond_atom_site_label_1
_geom_bond_atom_site_label_2
_ccdc_geom_bond_type
O3    Zn1   S    
C30   H22   S    
C37   H46   S    
C2    C7    S    
C9    H9    S    
C25   H14   S    
C14   C31   S    
C3    C6    S    
C26   H13   S    
C1    O1    A    
C32   H33   S    
C11   H28   S    
C9    C25   S    
C7    C8    S    
C15   H30   S    
O7    Zn1   S    
C33   C39   S    
C37   H48   S    
C31   H36   S    
C11   N2    S    
C36   C37   S    
C15   H2    S    
C32   H32   S    
C38   C39   S    
C3    H12   S    
C22   C41   T    
C2    C36   S    
C33   H43   S    
C38   H3    S    
C27   H19   S    
C32   H35   S    
C29   H25   S    
N1    Zn2   S    
C16   O6    A    
C19   C20   S    
C4    O4    A    
C23   C24   S    
O4    Zn2   S    
C2    H8    S    
C17   N2    S    
C36   H50   S    
C8    H23   S    
C23   H4    S    
C30   H21   S    
C12   C38   S    
C14   C17   S    
C34   C41   S    
C25   H15   S    
C1    O2    A    
C35   H40   S    
C28   H18   S    
O2    Zn2   S    
C13   H54   S    
C34   C39   S    
C14   H31   S    
C3    C8    S    
C20   C39   S    
C35   H41   S    
C13   H29   S    
C25   C26   S    
C17   H38   S    
N2    Zn1   S    
C1    C6    S    
C12   C40   S    
C10   N1    S    
C33   H44   S    
C18   O8    A    
C5    C9    S    
C29   C30   S    
C27   H20   S    
C26   H10   S    
C29   H26   S    
C16   O5    A    
C31   C32   S    
C23   C34   S    
C4    O3    A    
C12   C20   S    
C42   H6    S    
C30   H24   S    
C19   H52   S    
C36   H49   S    
C7    C16   S    
C13   C15   S    
C15   N2    S    
C26   H11   S    
O6    Zn2   S    
C20   H1    S    
C14   N1    S    
C28   H17   S    
C11   H53   S    
C7    C9    S    
C18   C22   S    
C24   H5    S    
C8    H51   S    
C19   C34   S    
C35   H42   S    
C31   H37   S    
C28   H16   S    
C23   C38   S    
O1    Zn1   S    
C12   C24   S    
C37   H47   S    
C5    H34   S    
C3    C27   S    
C19   C24   S    
C18   O7    A    
C4    C21   S    
C10   C29   S    
C5    C6    S    
C21   C40   T    
O8    Zn2   S    
C2    C42   S    
C33   C35   S    
C17   H39   S    
C13   N1    S    
C10   C11   S    
C42   H7    S    
C5    H45   S    
C10   H27   S    
C6    C42   S    
C27   C28   S    
O5    Zn1   S    
