data_mof_unit_45112.cif
_audit_creation_date              2012-12-11T16:48:21-0500
_audit_creation_method            fapswitch 2.2
_symmetry_space_group_name_H-M    P1
_symmetry_Int_Tables_number       1
_space_group_crystal_system       triclinic
_cell_length_a                    17.478729
_cell_length_b                    24.381992
_cell_length_c                    15.209705
_cell_angle_alpha                 89.999989
_cell_angle_beta                  126.31731
_cell_angle_gamma                 89.999962
_cell_volume                      5222.75686603

loop_
_atom_site_label
_atom_site_type_symbol
_atom_type_description
_atom_site_fract_x
_atom_site_fract_y
_atom_site_fract_z
_atom_type_partial_charge
C1    C     C_R   0.310810 0.375253 0.906890 -0.112815
C2    C     C_R   0.449406 0.499647 0.644353 -0.036622
C3    C     C_R   0.098440 0.874374 0.911112 -0.068012
C4    C     C_R   0.312151 0.361119 0.995783 0.025742
C5    C     C_R   0.681507 0.354233 0.002557 0.022939
C6    C     C_R   0.818492 0.854235 0.997444 0.022957
C7    C     C_R   0.187848 0.861114 0.004223 0.025788
C8    C     C_2   0.578238 0.400325 0.347742 0.423571
C9    C     C_2   0.410046 0.400560 0.648696 0.413090
C10   C     C_2   0.089980 0.900559 0.351305 0.413072
C11   C     C_2   0.921861 0.900321 0.652287 0.423620
C12   C     C_2   0.346912 0.676219 0.812181 0.423564
C13   C     C_R   0.050645 0.999647 0.355672 -0.036625
C14   C     C_2   0.658069 0.673703 0.193099 0.415505
C15   C     C_2   0.841931 0.173703 0.806901 0.415496
C16   C     C_2   0.153090 0.176218 0.187821 0.423572
C17   C     C_R   0.961579 0.001657 0.650760 -0.031400
C18   C     C_R   0.186918 0.498989 0.646890 0.124000
C19   C     C_R   0.824287 0.500192 0.277618 0.121670
C20   C     C_R   0.675713 0.000192 0.722382 0.121660
C21   C     C_R   0.313082 0.998989 0.353110 0.124000
C22   C     C_2   0.978243 0.456801 0.366374 -0.103285
C23   C     C_2   0.075367 0.460099 0.465716 -0.118767
C24   C     C_2   0.424633 0.960099 0.534285 -0.118774
C25   C     C_R   0.681724 0.366801 0.091204 -0.117867
C26   C     C_2   0.521757 0.956801 0.633627 -0.103277
C27   C     C_2   0.924740 0.501956 0.325648 -0.190574
C28   C     C_2   0.099459 0.500145 0.538402 -0.196882
C29   C     C_2   0.400541 0.000145 0.461598 -0.196875
C30   C     C_2   0.575260 0.001956 0.674352 -0.190578
C31   C     C_R   0.391620 0.767477 0.101328 0.225189
C32   C     C_R   0.606688 0.767303 0.899159 0.225097
C33   C     C_R   0.893311 0.267302 0.100844 0.225089
C34   C     C_R   0.108378 0.267482 0.898681 0.225183
C35   C     C_R   0.356132 0.740460 0.002562 0.054632
C36   C     C_R   0.818275 0.866802 0.908796 -0.117916
C37   C     C_R   0.639196 0.741217 0.997949 0.059811
C38   C     C_R   0.860806 0.241217 0.002053 0.059815
C39   C     C_R   0.143872 0.240460 0.997445 0.054629
C40   C     C_R   0.285278 0.767456 0.905308 -0.113918
C41   C     C_R   0.710867 0.767755 0.095393 -0.131934
C42   C     C_R   0.789136 0.267756 0.904610 -0.131944
C43   C     C_R   0.214733 0.267452 0.094700 -0.113903
C44   C     C_R   0.740992 0.312191 0.906672 -0.235726
C45   C     C_R   0.255969 0.315448 0.092224 -0.229059
C46   C     C_R   0.244042 0.815451 0.907787 -0.229065
C47   C     C_R   0.189189 0.875252 0.093113 -0.112794
C48   C     C_R   0.759009 0.812192 0.093330 -0.235728
C49   C     C_R   0.757170 0.327405 0.005184 0.043238
C50   C     C_R   0.236977 0.333176 0.993391 0.036759
C51   C     C_R   0.263026 0.833173 0.006619 0.036756
C52   C     C_R   0.742829 0.827407 0.994818 0.043229
C53   C     C_R   0.438836 0.649947 0.090075 -0.145242
C54   C     C_R   0.558403 0.650675 0.910250 -0.154779
C55   C     C_R   0.941597 0.150675 0.089750 -0.154788
C56   C     C_R   0.061164 0.149948 0.909927 -0.145244
C57   C     C_R   0.841090 0.309343 0.102391 0.146965
C58   C     C_R   0.380343 0.683053 0.999875 0.084984
C59   C     C_R   0.155321 0.312652 0.896526 0.148285
C60   C     C_R   0.344677 0.812646 0.103484 0.148282
C61   C     C_R   0.658908 0.809345 0.897612 0.146969
C62   C     C_3   0.862421 0.290772 0.208491 -0.537630
C63   C     C_3   0.136729 0.295286 0.791121 -0.526995
C64   C     C_3   0.363258 0.795276 0.208882 -0.526986
C65   C     C_3   0.637574 0.790776 0.791508 -0.537632
C66   C     C_3   0.414997 0.746330 0.207117 -0.513939
C67   C     C_3   0.580069 0.745214 0.792354 -0.509434
C68   C     C_3   0.919926 0.245210 0.207646 -0.509435
C69   C     C_R   0.615215 0.683976 0.000523 0.096607
C70   C     C_3   0.084991 0.246339 0.792884 -0.513923
C71   C     C_R   0.532087 0.462211 0.577008 0.114661
C72   C     C_R   0.560266 0.465429 0.510641 0.089287
C73   C     C_R   0.939815 0.965437 0.489416 0.089301
C74   C     C_R   0.967971 0.962219 0.423030 0.114641
C75   C     C_R   0.461802 0.497182 0.560925 0.044162
C76   C     C_R   0.518197 0.503355 0.426775 0.058089
C77   C     C_R   0.981917 0.003350 0.573303 0.058052
C78   C     C_R   0.038268 0.997181 0.439114 0.044161
C79   C     C_R   0.413659 0.532829 0.472271 -0.192378
C80   C     C_R   0.884786 0.183977 0.999478 0.096604
C81   C     C_R   0.441344 0.535477 0.403856 -0.181540
C82   C     C_R   0.058786 0.035457 0.596232 -0.181564
C83   C     C_R   0.086452 0.032810 0.527796 -0.192375
C84   C     C_3   0.662852 0.459144 0.603678 -0.466016
C85   C     C_3   0.631432 0.454762 0.677215 -0.466657
C86   C     C_3   0.868615 0.954788 0.322837 -0.466671
C87   C     C_3   0.837222 0.959166 0.396402 -0.465952
C88   C     C_R   0.540420 0.454897 0.298467 -0.016870
C89   C     C_R   0.452983 0.454150 0.699286 -0.013584
C90   C     C_R   0.047043 0.954150 0.300725 -0.013575
C91   C     C_R   0.119659 0.183054 0.000127 0.084984
C92   C     C_R   0.959637 0.954897 0.701565 -0.016847
C93   C     C_R   0.237010 0.544858 0.705748 -0.158391
C94   C     C_R   0.767276 0.545636 0.246597 -0.168656
C95   C     C_R   0.732724 0.045637 0.753404 -0.168653
C96   C     C_R   0.262990 0.044858 0.294252 -0.158390
C97   C     C_R   0.530850 0.546639 0.290641 -0.142057
C98   C     C_R   0.462487 0.545594 0.704195 -0.130905
C99   C     C_R   0.037541 0.045593 0.295821 -0.130907
C100  C     C_R   0.969222 0.046640 0.709403 -0.142053
C101  C     C_R   0.240754 0.453503 0.703015 -0.110247
C102  C     C_R   0.538529 0.501658 0.349309 -0.031433
C103  C     C_R   0.769641 0.454562 0.259569 -0.079347
C104  C     C_R   0.730359 0.954562 0.740430 -0.079301
C105  C     C_R   0.259246 0.953503 0.296986 -0.110257
C106  C     C_R   0.357889 0.653043 0.909141 -0.049700
C107  C     C_R   0.640972 0.653008 0.091376 -0.058294
C108  C     C_R   0.859028 0.153009 0.908625 -0.058288
C109  C     C_R   0.142112 0.153042 0.090860 -0.049704
C110  C     C_R   0.401559 0.374381 0.088893 -0.067905
C111  C     C_R   0.595714 0.372073 0.909889 -0.056586
C112  C     C_R   0.904285 0.872075 0.090111 -0.056561
H1    H     H_    0.252171 0.372185 0.822247 0.111264
H2    H     H_    0.742166 0.750459 0.174795 0.160396
H3    H     H_    0.757839 0.250461 0.825207 0.160397
H4    H     H_    0.249098 0.248779 0.173773 0.153948
H5    H     H_    0.681609 0.327721 0.828966 0.125768
H6    H     H_    0.313546 0.332262 0.169748 0.130002
H7    H     H_    0.186471 0.832270 0.830264 0.129995
H8    H     H_    0.818392 0.827721 0.171036 0.125777
H9    H     H_    0.906263 0.320775 0.275374 0.195696
H10   H     H_    0.089197 0.324294 0.723507 0.203487
H11   H     H_    0.410788 0.824281 0.276502 0.203490
H12   H     H_    0.731592 0.354000 0.173574 0.112626
H13   H     H_    0.593730 0.820780 0.724628 0.195697
H14   H     H_    0.799735 0.274164 0.201394 0.208017
H15   H     H_    0.201832 0.282896 0.799150 0.208056
H16   H     H_    0.298150 0.782886 0.200842 0.208056
H17   H     H_    0.700258 0.774168 0.798602 0.208015
H18   H     H_    0.492562 0.747201 0.273464 0.221838
H19   H     H_    0.502736 0.749012 0.726305 0.219239
H20   H     H_    0.997259 0.249008 0.273698 0.219236
H21   H     H_    0.007424 0.247213 0.726544 0.221842
H22   H     H_    0.378694 0.707098 0.198648 0.187959
H23   H     H_    0.768407 0.854001 0.826427 0.112625
H24   H     H_    0.611668 0.704491 0.798749 0.190363
H25   H     H_    0.888325 0.204487 0.201246 0.190367
H26   H     H_    0.121290 0.207107 0.801343 0.187955
H27   H     H_    0.357934 0.559447 0.458662 0.135399
H28   H     H_    0.403559 0.562735 0.334088 0.133743
H29   H     H_    0.096595 0.062702 0.666019 0.133752
H30   H     H_    0.142191 0.059416 0.541411 0.135405
H31   H     H_    0.693900 0.420424 0.599160 0.193855
H32   H     H_    0.656173 0.489439 0.735691 0.203463
H33   H     H_    0.843880 0.989473 0.264379 0.203464
H34   H     H_    0.247827 0.872183 0.177757 0.111260
H35   H     H_    0.806173 0.920447 0.400924 0.193879
H36   H     H_    0.705023 0.496702 0.618287 0.200359
H37   H     H_    0.642750 0.413337 0.713521 0.180178
H38   H     H_    0.857272 0.913367 0.286508 0.180188
H39   H     H_    0.795071 0.996729 0.381827 0.200353
H40   H     H_    0.483267 0.662261 0.174424 0.133016
H41   H     H_    0.512228 0.662938 0.826007 0.128840
H42   H     H_    0.987773 0.162938 0.173994 0.128839
H43   H     H_    0.016734 0.162263 0.825578 0.133018
H44   H     H_    0.217998 0.586573 0.677657 0.089580
H45   H     H_    0.957287 0.542288 0.343875 0.133966
H46   H     H_    0.788128 0.587718 0.250249 0.091060
H47   H     H_    0.711872 0.087718 0.749752 0.091059
H48   H     H_    0.282002 0.086573 0.322343 0.089579
H49   H     H_    0.533190 0.589451 0.310767 0.107265
H50   H     H_    0.458562 0.588108 0.681512 0.106825
H51   H     H_    0.041475 0.088107 0.318509 0.106829
H52   H     H_    0.966903 0.089452 0.689288 0.107270
H53   H     H_    0.227956 0.411833 0.673156 0.121419
H54   H     H_    0.795776 0.413955 0.289537 0.094127
H55   H     H_    0.704224 0.913955 0.710463 0.094129
H56   H     H_    0.052539 0.534207 0.521165 0.136845
H57   H     H_    0.272044 0.911833 0.326845 0.121418
H58   H     H_    0.426431 0.369272 0.171816 0.105309
H59   H     H_    0.571589 0.369111 0.826703 0.110635
H60   H     H_    0.928410 0.869116 0.173298 0.110633
H61   H     H_    0.073570 0.869254 0.828194 0.105253
H62   H     H_    0.947009 0.416252 0.341226 0.114244
H63   H     H_    0.122224 0.425531 0.485843 0.131390
H64   H     H_    0.377776 0.925532 0.514157 0.131382
H65   H     H_    0.552991 0.916253 0.658774 0.114242
H66   H     H_    0.577650 0.385771 0.414442 0.019413
H67   H     H_    0.447460 0.034208 0.478836 0.136847
H68   H     H_    0.392815 0.390491 0.569349 0.025518
H69   H     H_    0.107237 0.890490 0.430664 0.025523
H70   H     H_    0.922614 0.885746 0.585712 0.019350
H71   H     H_    0.322937 0.650663 0.742431 0.007876
H72   H     H_    0.692851 0.647766 0.264799 0.018518
H73   H     H_    0.807146 0.147767 0.735200 0.018523
H74   H     H_    0.177058 0.150660 0.257568 0.007873
H75   H     H_    0.542713 0.042289 0.656126 0.133966
H76   H     H_    0.250917 0.748787 0.826233 0.153955
N1    N     N_R   0.395410 0.396350 0.944340 -0.039084
N2    N     N_R   0.474920 0.471030 0.794350 -0.045339
N3    N     N_R   0.025080 0.971030 0.205650 -0.045344
N4    N     N_R   0.974920 0.971030 0.794350 -0.043855
N5    N     N_R   0.320260 0.527820 0.794570 -0.052542
N6    N     N_R   0.679740 0.527820 0.205430 -0.053333
N7    N     N_R   0.820260 0.027820 0.794570 -0.053332
N8    N     N_R   0.179740 0.027820 0.205430 -0.052541
N9    N     N_R   0.524590 0.527840 0.205200 -0.052981
N10   N     N_R   0.475410 0.527840 0.794800 -0.053857
N11   N     N_R   0.024590 0.027840 0.205200 -0.053859
N12   N     N_R   0.604590 0.396350 0.055660 -0.041687
N13   N     N_R   0.975410 0.027840 0.794800 -0.052978
N14   N     N_R   0.320750 0.471000 0.795020 -0.040665
N15   N     N_R   0.679250 0.471000 0.204980 -0.035588
N16   N     N_R   0.820750 0.971000 0.795020 -0.035588
N17   N     N_R   0.179250 0.971000 0.204980 -0.040662
N18   N     N_R   0.393620 0.602490 0.942710 -0.072619
N19   N     N_R   0.606380 0.602490 0.057290 -0.071056
N20   N     N_R   0.893620 0.102490 0.942710 -0.071057
N21   N     N_R   0.106380 0.102490 0.057290 -0.072619
N22   N     N_R   0.451720 0.396350 0.057510 -0.034232
N23   N     N_R   0.895410 0.896350 0.944340 -0.041703
N24   N     N_R   0.548280 0.396350 0.942490 -0.032875
N25   N     N_R   0.951720 0.896350 0.057510 -0.032866
N26   N     N_R   0.048280 0.896350 0.942490 -0.034262
N27   N     N_R   0.104590 0.896350 0.055660 -0.039075
N28   N     N_R   0.449930 0.602500 0.055880 -0.054236
N29   N     N_R   0.550070 0.602500 0.944120 -0.054528
N30   N     N_R   0.949930 0.102500 0.055880 -0.054528
N31   N     N_R   0.050070 0.102500 0.944120 -0.054235
N32   N     N_R   0.525080 0.471030 0.205650 -0.043851
Ni1   Ni    Ni4+2 0.435420 0.434270 0.870230 0.278772
Ni2   Ni    Ni4+2 0.564580 0.434270 0.129770 0.286853
Ni3   Ni    Ni4+2 0.935420 0.934270 0.870230 0.286842
Ni4   Ni    Ni4+2 0.064580 0.934270 0.129770 0.278769
Ni5   Ni    Ni4+2 0.563430 0.564580 0.128740 0.206600
Ni6   Ni    Ni4+2 0.436570 0.564580 0.871260 0.200189
Ni7   Ni    Ni4+2 0.063430 0.064580 0.128740 0.200187
Ni8   Ni    Ni4+2 0.936570 0.064580 0.871260 0.206608
O1    O     O_2   0.611037 0.370517 0.313174 -0.587753
O2    O     O_2   0.390877 0.367794 0.693652 -0.598944
O3    O     O_2   0.109123 0.867790 0.306327 -0.598948
O4    O     O_2   0.888932 0.870532 0.686727 -0.587713
O5    O     O_2   0.374719 0.722372 0.813484 -0.595407
O6    O     O_2   0.626178 0.717816 0.195381 -0.595142
O7    O     O_2   0.873825 0.217815 0.804620 -0.595153
O8    O     O_2   0.125290 0.222372 0.186522 -0.595401

loop_
_geom_bond_atom_site_label_1
_geom_bond_atom_site_label_2
_ccdc_geom_bond_type
C45   H6    S    
C44   C49   A    
C81   H28   S    
C79   H27   S    
C86   H33   S    
C11   O4    D    
N22   Ni2   S    
C37   C69   S    
C13   C90   A    
C31   C66   S    
C94   N6    A    
C73   C74   A    
C41   H2    S    
C72   C76   A    
N27   Ni4   S    
C54   H41   S    
N32   Ni2   S    
C69   C107  A    
C92   N4    A    
C57   C62   S    
C48   H8    S    
C20   C30   S    
C3    N26   A    
C40   C46   A    
C15   H73   S    
N12   N24   A    
C1    N1    A    
C87   H35   S    
N7    Ni8   S    
C35   C58   S    
C95   H47   S    
C50   C59   A    
C104  N16   A    
N6    Ni5   S    
C24   C26   S    
C32   C61   A    
C38   C42   A    
N3    N11   A    
C3    C7    A    
C52   C61   A    
C86   H38   S    
C88   C102  A    
N25   Ni4   S    
N1    Ni1   S    
C12   H71   S    
C23   H63   S    
C16   O8    D    
C49   C57   A    
N1    N22   A    
C100  N13   A    
N8    N17   A    
C68   H20   S    
C24   C29   D    
C73   C87   S    
C22   H62   S    
C40   H76   S    
C71   C85   S    
C19   C103  A    
C78   C83   A    
C3    H61   S    
C56   C91   A    
C65   C67   S    
C47   N27   A    
N18   Ni6   S    
C53   H40   S    
C95   N7    A    
N4    N13   A    
N31   Ni8   S    
N9    N32   A    
C19   C27   S    
C34   C70   S    
C107  N19   A    
C97   C102  A    
C108  N20   A    
N29   Ni6   S    
C90   N3    A    
C63   H15   S    
N8    Ni7   S    
C94   H46   S    
C66   H22   S    
C76   C102  S    
C55   H42   S    
N14   Ni1   S    
C5    C49   S    
C68   H25   S    
C110  N22   A    
C11   H70   S    
C1    H1    S    
C82   H29   S    
C109  N21   A    
C11   C92   S    
C85   H32   S    
C39   C91   S    
C98   H50   S    
N19   Ni5   S    
C16   C109  S    
C55   N30   A    
C103  N15   A    
N24   Ni1   S    
C84   H36   S    
N20   N30   A    
C12   O5    D    
C111  N24   A    
C67   H19   S    
N19   N29   A    
C98   N10   A    
C34   C39   A    
N21   N31   A    
C97   N9    A    
C18   C28   S    
C84   C85   S    
N2    Ni1   S    
C9    C89   S    
C62   H14   S    
C86   C87   S    
C39   C43   A    
N7    N16   A    
C5    C111  A    
C84   H31   S    
C64   H16   S    
C23   C28   D    
C21   C29   S    
C46   C51   A    
N5    N14   A    
C88   N32   A    
N15   Ni2   S    
C4    C50   S    
C9    O2    D    
C58   C106  A    
C18   C101  A    
C64   C66   S    
C31   C60   A    
C13   C99   A    
C2    C89   A    
C8    H66   S    
C43   H4    S    
C70   H21   S    
C8    O1    D    
C14   H72   S    
C61   C65   S    
C63   C70   S    
C96   N8    A    
C89   N2    A    
N23   Ni3   S    
C17   C77   S    
C100  H52   S    
C32   C37   A    
C74   C86   S    
C101  H53   S    
C43   C45   A    
C2    C98   A    
C25   H12   S    
C72   C84   S    
C9    H68   S    
C105  H57   S    
C56   H43   S    
C32   C67   S    
C99   H51   S    
N5    Ni6   S    
C110  H58   S    
C14   C107  S    
N23   N25   A    
C20   C95   A    
C71   C75   A    
C70   H26   S    
C53   N28   A    
C97   H49   S    
C22   C27   D    
N16   Ni3   S    
C74   C78   A    
C34   C59   A    
C31   C35   A    
C111  H59   S    
C75   C79   A    
C15   O7    D    
C24   H64   S    
C36   H23   S    
N30   Ni7   S    
C14   O6    D    
C63   H10   S    
N2    N10   A    
C54   N29   A    
C79   C81   A    
C26   H65   S    
N18   N28   A    
C18   C93   A    
C4    C110  A    
C13   C78   S    
C33   C57   A    
C96   H48   S    
C101  N14   A    
N26   N27   A    
C6    C112  A    
C93   H44   S    
C93   N5    A    
C33   C38   A    
N4    Ni3   S    
C15   C108  S    
C76   C81   A    
C106  N18   A    
C83   H30   S    
C65   H17   S    
C53   C58   A    
C26   C30   D    
C20   C104  A    
C21   C96   A    
C27   H45   S    
C64   H11   S    
C7    C47   A    
C80   C108  A    
N17   Ni4   S    
C59   C63   S    
N28   Ni5   S    
C62   C68   S    
C60   C64   S    
C1    C4    A    
N12   Ni2   S    
C30   H75   S    
C91   C109  A    
C51   C60   A    
C67   H24   S    
C42   C44   A    
C7    C51   S    
C71   C72   A    
C25   N12   A    
C16   H74   S    
N20   Ni8   S    
C104  H55   S    
C12   C106  S    
C55   C80   A    
C112  N25   A    
C112  H60   S    
C54   C69   A    
C38   C80   S    
C77   C82   A    
N6    N15   A    
N3    Ni4   S    
C10   O3    D    
C41   C48   A    
C6    C36   A    
C46   H7    S    
C35   C40   A    
C105  N17   A    
C62   H9    S    
N13   Ni8   S    
C37   C41   A    
C8    C88   S    
C17   C100  A    
C85   H37   S    
C47   H34   S    
N26   Ni3   S    
C28   H56   S    
C36   N23   A    
C17   C92   A    
C42   H3    S    
C48   C52   A    
C44   H5    S    
C10   C90   S    
C103  H54   S    
C82   C83   A    
C29   H67   S    
C99   N11   A    
C10   H69   S    
C73   C77   A    
C22   C23   S    
C87   H39   S    
C45   C50   A    
N21   Ni7   S    
C6    C52   S    
N11   Ni7   S    
C19   C94   A    
C56   N31   A    
C21   C105  A    
C2    C75   S    
N10   Ni6   S    
C33   C68   S    
C65   H13   S    
C66   H18   S    
C5    C25   A    
N9    Ni5   S    
