data_mof_unit_68080.cif
_audit_creation_date              2012-12-11T15:26:33-0500
_audit_creation_method            fapswitch 2.2
_symmetry_space_group_name_H-M    P1
_symmetry_Int_Tables_number       1
_space_group_crystal_system       triclinic
_cell_length_a                    7.399253
_cell_length_b                    12.33217
_cell_length_c                    28.621407
_cell_angle_alpha                 89.999591
_cell_angle_beta                  89.999434
_cell_angle_gamma                 90.000295
_cell_volume                      2611.67035567

loop_
_atom_site_label
_atom_site_type_symbol
_atom_type_description
_atom_site_fract_x
_atom_site_fract_y
_atom_site_fract_z
_atom_type_partial_charge
O1    O     O_R   0.647170 0.849180 0.201220 -0.525143
O2    O     O_R   0.352830 0.150820 0.798780 -0.525823
O3    O     O_R   0.352830 0.150820 0.701220 -0.525237
O4    O     O_R   0.647170 0.849180 0.298780 -0.525736
O5    O     O_R   0.147170 0.650820 0.298780 -0.525233
O6    O     O_R   0.852830 0.349180 0.701220 -0.525731
O7    O     O_R   0.852830 0.349180 0.798780 -0.525145
O8    O     O_R   0.147170 0.650820 0.201220 -0.525826
O9    O     O_R   0.317430 0.862210 0.298450 -0.538159
O10   O     O_R   0.682570 0.137790 0.701550 -0.538403
O11   O     O_R   0.682570 0.137790 0.798450 -0.538119
O12   O     O_R   0.317430 0.862210 0.201550 -0.538439
O13   O     O_R   0.817430 0.637790 0.201550 -0.538123
O14   O     O_R   0.182570 0.362210 0.798450 -0.538437
O15   O     O_R   0.182570 0.362210 0.701550 -0.538161
O16   O     O_R   0.817430 0.637790 0.298450 -0.538403
C1    C     C_R   0.485882 0.889451 0.312434 0.757907
C2    C     C_R   0.514117 0.110537 0.687576 0.757533
C3    C     C_R   0.514118 0.110551 0.812436 0.757980
C4    C     C_R   0.485884 0.889468 0.187578 0.757448
C5    C     C_R   0.985882 0.610553 0.187564 0.757986
C6    C     C_R   0.014116 0.389468 0.812422 0.757449
C7    C     C_R   0.014118 0.389451 0.687566 0.757903
C8    C     C_R   0.985881 0.610537 0.312424 0.757529
H1    H     H_    0.040646 0.603720 0.694258 0.140027
H2    H     H_    0.956634 0.396407 0.305812 0.140272
H3    H     H_    0.959893 0.396264 0.194277 0.139983
H4    H     H_    0.043826 0.603583 0.805829 0.140305
H5    H     H_    0.540164 0.896261 0.805727 0.139996
H6    H     H_    0.456145 0.103579 0.194170 0.140309
H7    H     H_    0.459397 0.103722 0.305740 0.140023
H8    H     H_    0.543312 0.896406 0.694191 0.140266
O17   O     O_3   0.480630 0.680630 0.250000 -0.391239
O18   O     O_3   0.519370 0.319370 0.750000 -0.391194
O19   O     O_3   0.980630 0.819370 0.250000 -0.391195
O20   O     O_3   0.019370 0.180630 0.750000 -0.391239
V1    V     V_3+5 0.205800 0.762860 0.250000 1.529155
V2    V     V_3+5 0.794200 0.237140 0.750000 1.529337
V3    V     V_3+5 0.705800 0.737140 0.250000 1.529330
V4    V     V_3+5 0.294200 0.262860 0.750000 1.529156
H9    H     H_    0.144768 0.319309 0.537229 0.213454
H10   H     H_    0.857987 0.680878 0.462610 0.212894
H11   H     H_    0.854633 0.680633 0.037198 0.213557
H12   H     H_    0.141446 0.319062 0.962586 0.212799
H13   H     H_    0.645360 0.180639 0.962800 0.213552
H14   H     H_    0.358536 0.819071 0.037416 0.212795
H15   H     H_    0.355215 0.819306 0.462774 0.213463
H16   H     H_    0.642013 0.180878 0.537387 0.212898
C9    C     C_R   0.993103 0.530349 0.350663 -0.156637
C10   C     C_R   0.006959 0.469639 0.649319 -0.156356
C11   C     C_R   0.006876 0.469654 0.850660 -0.156668
C12   C     C_R   0.993030 0.530362 0.149317 -0.156304
C13   C     C_R   0.493123 0.969655 0.149340 -0.156679
C14   C     C_R   0.506973 0.030361 0.850684 -0.156321
C15   C     C_R   0.506891 0.030349 0.649338 -0.156625
C16   C     C_R   0.493044 0.969638 0.350681 -0.156345
C17   C     C_R   0.983704 0.341853 0.378157 0.133177
C18   C     C_R   0.016085 0.658153 0.621850 0.132990
C19   C     C_R   0.016324 0.658143 0.878163 0.133198
C20   C     C_R   0.983943 0.341843 0.121858 0.132970
C21   C     C_R   0.483691 0.158145 0.121837 0.133187
C22   C     C_R   0.516087 0.841845 0.878146 0.132991
C23   C     C_R   0.516268 0.841853 0.621846 0.133172
C24   C     C_R   0.483904 0.158150 0.378149 0.132991
C25   C     C_R   0.973793 0.420011 0.341891 -0.274561
C26   C     C_R   0.025001 0.580033 0.658141 -0.274562
C27   C     C_R   0.026406 0.579985 0.841900 -0.274567
C28   C     C_R   0.975234 0.419961 0.158151 -0.274564
C29   C     C_R   0.473587 0.079985 0.158100 -0.274547
C30   C     C_R   0.524800 0.919961 0.841852 -0.274598
C31   C     C_R   0.526175 0.920010 0.658111 -0.274547
C32   C     C_R   0.475014 0.080032 0.341858 -0.274564
C33   C     C_R   0.010195 0.566576 0.396189 0.561533
C34   C     C_R   0.991540 0.433376 0.603749 0.562067
C35   C     C_R   0.989472 0.433426 0.896178 0.561424
C36   C     C_R   0.008105 0.566627 0.103738 0.562180
C37   C     C_R   0.510529 0.933430 0.103822 0.561427
C38   C     C_R   0.491887 0.066627 0.896262 0.562192
C39   C     C_R   0.489812 0.066577 0.603811 0.561531
C40   C     C_R   0.508443 0.933374 0.396251 0.562067
C41   C     C_R   0.999131 0.493686 0.434344 -0.074130
C42   C     C_R   0.002615 0.506345 0.565610 -0.074388
C43   C     C_R   0.000515 0.506297 0.934337 -0.074094
C44   C     C_R   0.997018 0.493637 0.065604 -0.074441
C45   C     C_R   0.499486 0.006302 0.065663 -0.074088
C46   C     C_R   0.502979 0.993641 0.934397 -0.074434
C47   C     C_R   0.500862 0.993686 0.565657 -0.074137
C48   C     C_R   0.497369 0.006343 0.434390 -0.074392
C49   C     C_R   0.010581 0.379057 0.425889 -0.078579
C50   C     C_R   0.990286 0.620945 0.574087 -0.078590
C51   C     C_R   0.989235 0.620933 0.925889 -0.078553
C52   C     C_R   0.009524 0.379045 0.074088 -0.078604
C53   C     C_R   0.510774 0.120938 0.074111 -0.078571
C54   C     C_R   0.490484 0.879048 0.925914 -0.078594
C55   C     C_R   0.489403 0.879057 0.574113 -0.078582
C56   C     C_R   0.509699 0.120942 0.425912 -0.078591
C57   C     C_R   0.981538 0.533367 0.481016 0.012263
C58   C     C_R   0.020658 0.466759 0.518927 0.012731
C59   C     C_R   0.018007 0.466592 0.981009 0.012171
C60   C     C_R   0.978878 0.533200 0.018919 0.012833
C61   C     C_R   0.481986 0.966599 0.018992 0.012172
C62   C     C_R   0.521116 0.033206 0.981081 0.012824
C63   C     C_R   0.518451 0.033366 0.518983 0.012271
C64   C     C_R   0.479327 0.966758 0.481073 0.012733
C65   C     C_R   0.079284 0.361830 0.509408 -0.111258
C66   C     C_R   0.922928 0.638310 0.490500 -0.111860
C67   C     C_R   0.920238 0.638125 0.009393 -0.111129
C68   C     C_R   0.076610 0.361643 0.990487 -0.111992
C69   C     C_R   0.579759 0.138131 0.990607 -0.111125
C70   C     C_R   0.423377 0.861651 0.009514 -0.111998
C71   C     C_R   0.420701 0.861828 0.490593 -0.111246
C72   C     C_R   0.577064 0.138309 0.509498 -0.111857
C73   C     C_R   0.050138 0.311135 0.465944 0.117635
C74   C     C_R   0.950840 0.688888 0.534035 0.117867
C75   C     C_R   0.949647 0.688848 0.965945 0.117579
C76   C     C_R   0.048947 0.311093 0.034039 0.117895
C77   C     C_R   0.550358 0.188854 0.034054 0.117596
C78   C     C_R   0.451051 0.811098 0.965964 0.117894
C79   C     C_R   0.449848 0.811134 0.534058 0.117627
C80   C     C_R   0.549146 0.188886 0.465962 0.117861
C81   C     C_3   0.065114 0.187349 0.464671 -0.396977
C82   C     C_3   0.103293 0.129222 0.511021 -0.705940
H17   H     H_    0.228005 0.158933 0.527580 0.274990
H18   H     H_    0.987886 0.138510 0.535515 0.255379
H19   H     H_    0.127237 0.042165 0.504375 0.212682
H20   H     H_    0.935338 0.152425 0.453308 0.190681
H21   H     H_    0.174312 0.164265 0.440734 0.192288
C83   C     C_3   0.933899 0.812572 0.535444 -0.396916
C84   C     C_3   0.894248 0.870741 0.489187 -0.707966
H22   H     H_    0.769764 0.840343 0.472718 0.274722
H23   H     H_    0.009484 0.862222 0.464587 0.254832
H24   H     H_    0.869154 0.957648 0.495935 0.213287
H25   H     H_    0.824407 0.834776 0.559439 0.192496
H26   H     H_    0.063116 0.848234 0.546822 0.190616
C85   C     C_3   0.935070 0.812655 0.964701 -0.396971
C86   C     C_3   0.897168 0.870776 0.011068 -0.705506
H27   H     H_    0.772413 0.841200 0.027646 0.275052
H28   H     H_    0.012605 0.861347 0.035541 0.255485
H29   H     H_    0.873443 0.957863 0.004439 0.212547
H30   H     H_    0.064965 0.847431 0.953344 0.190692
H31   H     H_    0.825944 0.835919 0.940773 0.192247
C87   C     C_3   0.066283 0.187431 0.035479 -0.396902
C88   C     C_3   0.106233 0.129245 0.989244 -0.708365
H32   H     H_    0.230676 0.159777 0.972794 0.274668
H33   H     H_    0.991039 0.137609 0.964622 0.254706
H34   H     H_    0.131548 0.042368 0.996016 0.213406
H35   H     H_    0.175833 0.165410 0.059486 0.192537
H36   H     H_    0.937179 0.151623 0.046864 0.190602
C89   C     C_3   0.564927 0.312661 0.035297 -0.396973
C90   C     C_3   0.602802 0.370779 0.988927 -0.705519
H37   H     H_    0.727560 0.341211 0.972349 0.275049
H38   H     H_    0.487360 0.361332 0.964457 0.255495
H39   H     H_    0.626506 0.457868 0.995552 0.212548
H40   H     H_    0.435035 0.347433 0.046657 0.190690
H41   H     H_    0.674064 0.335930 0.059220 0.192246
C91   C     C_3   0.433718 0.687435 0.964525 -0.396908
C92   C     C_3   0.393747 0.629254 0.010761 -0.708359
H42   H     H_    0.269304 0.659791 0.027208 0.274672
H43   H     H_    0.508935 0.637615 0.035385 0.254711
H44   H     H_    0.368423 0.542377 0.003990 0.213406
H45   H     H_    0.324182 0.665409 0.940515 0.192535
H46   H     H_    0.562828 0.651627 0.953146 0.190602
C93   C     C_3   0.434879 0.687348 0.535332 -0.396965
C94   C     C_3   0.396691 0.629213 0.488985 -0.705923
H47   H     H_    0.271987 0.658927 0.472424 0.274993
H48   H     H_    0.512101 0.638484 0.464492 0.255367
H49   H     H_    0.372726 0.542159 0.495637 0.212675
H50   H     H_    0.564662 0.652430 0.546695 0.190681
H51   H     H_    0.325687 0.664264 0.559271 0.192286
C95   C     C_3   0.566085 0.312569 0.464552 -0.396919
C96   C     C_3   0.605736 0.370740 0.510808 -0.707957
H52   H     H_    0.730221 0.340344 0.527277 0.274722
H53   H     H_    0.490501 0.362220 0.535408 0.254833
H54   H     H_    0.630829 0.457646 0.504058 0.213288
H55   H     H_    0.675574 0.334773 0.440556 0.192497
H56   H     H_    0.436867 0.348230 0.453174 0.190619
C97   C     C_3   0.958475 0.222173 0.365182 -0.333803
C98   C     C_3   0.902242 0.194816 0.315075 -0.777225
H57   H     H_    0.780403 0.240084 0.305151 0.234661
H58   H     H_    0.009951 0.213325 0.289784 0.207548
H59   H     H_    0.872048 0.106785 0.312396 0.232218
H60   H     H_    0.085229 0.177154 0.371124 0.194449
H61   H     H_    0.847723 0.189543 0.386660 0.186315
C99   C     C_3   0.041796 0.777803 0.634813 -0.334130
C100  C     C_3   0.098382 0.805075 0.684902 -0.776690
H62   H     H_    0.989578 0.788356 0.710116 0.207329
H63   H     H_    0.218411 0.758371 0.695073 0.234534
H64   H     H_    0.131579 0.892741 0.687409 0.232347
H65   H     H_    0.152598 0.810193 0.613279 0.186445
H66   H     H_    0.915272 0.823073 0.628902 0.194364
C101  C     C_3   0.041504 0.777830 0.865192 -0.333794
C102  C     C_3   0.097726 0.805214 0.815087 -0.777314
H67   H     H_    0.219827 0.760150 0.805201 0.234688
H68   H     H_    0.990189 0.786465 0.789781 0.207592
H69   H     H_    0.127488 0.893295 0.812389 0.232207
H70   H     H_    0.914717 0.822815 0.871137 0.194469
H71   H     H_    0.152245 0.810482 0.886665 0.186298
C103  C     C_3   0.958127 0.222203 0.134824 -0.334192
C104  C     C_3   0.901475 0.194963 0.184914 -0.776599
H72   H     H_    0.010474 0.211359 0.210111 0.207289
H73   H     H_    0.781788 0.241937 0.195127 0.234513
H74   H     H_    0.867722 0.107370 0.187395 0.232368
H75   H     H_    0.847313 0.189859 0.113282 0.186475
H76   H     H_    0.084598 0.176876 0.128920 0.194343
C105  C     C_3   0.458554 0.277833 0.134811 -0.333753
C106  C     C_3   0.402397 0.305217 0.184919 -0.777328
H77   H     H_    0.280231 0.260219 0.194804 0.234687
H78   H     H_    0.509909 0.286393 0.210222 0.207589
H79   H     H_    0.372765 0.393311 0.187626 0.232199
H80   H     H_    0.585350 0.322804 0.128859 0.194467
H81   H     H_    0.347805 0.310502 0.113344 0.186290
C107  C     C_3   0.541918 0.722205 0.865183 -0.334206
C108  C     C_3   0.598616 0.694964 0.815097 -0.776618
H82   H     H_    0.489659 0.711386 0.789891 0.207301
H83   H     H_    0.718341 0.741921 0.804896 0.234531
H84   H     H_    0.632326 0.607366 0.812616 0.232373
H85   H     H_    0.652716 0.689863 0.886731 0.186479
H86   H     H_    0.415442 0.676876 0.871081 0.194346
C109  C     C_3   0.541488 0.722173 0.634823 -0.333811
C110  C     C_3   0.597709 0.694819 0.684931 -0.777220
H87   H     H_    0.719506 0.740118 0.694863 0.234652
H88   H     H_    0.489965 0.713289 0.710218 0.207534
H89   H     H_    0.627967 0.606797 0.687607 0.232221
H90   H     H_    0.414732 0.677156 0.628881 0.194451
H91   H     H_    0.652243 0.689540 0.613347 0.186314
C111  C     C_3   0.458156 0.277797 0.365186 -0.334144
C112  C     C_3   0.401542 0.305065 0.315098 -0.776684
H92   H     H_    0.510367 0.288399 0.289884 0.207333
H93   H     H_    0.281561 0.258319 0.304923 0.234529
H94   H     H_    0.368255 0.392719 0.312595 0.232349
H95   H     H_    0.347350 0.310172 0.386722 0.186447
H96   H     H_    0.584667 0.323083 0.371095 0.194361
F1    F     F_    0.953386 0.326445 0.597468 -0.712264
F2    F     F_    0.049563 0.673372 0.402414 -0.712208
F3    F     F_    0.046011 0.673584 0.097443 -0.712263
F4    F     F_    0.949888 0.326653 0.902389 -0.712193
F5    F     F_    0.453969 0.173583 0.902556 -0.712261
F6    F     F_    0.550110 0.826658 0.097611 -0.712193
F7    F     F_    0.546584 0.826442 0.402532 -0.712261
F8    F     F_    0.450460 0.173375 0.597585 -0.712209

loop_
_geom_bond_atom_site_label_1
_geom_bond_atom_site_label_2
_ccdc_geom_bond_type
C88   H34   S    
C96   H52   S    
C48   C56   A    
C61   C62   A    
O5    V1    S    
C19   C101  S    
C93   C94   S    
C9    C33   A    
C13   C29   A    
C83   C84   S    
C36   C44   A    
C110  H88   S    
C57   C58   A    
C69   C77   A    
C85   C86   S    
C95   H56   S    
C108  H82   S    
C50   C74   A    
C59   C68   A    
C96   H53   S    
O11   C3    A    
O17   V3    S    
C58   C65   A    
C9    C25   A    
C66   C74   A    
O18   V4    S    
C40   F7    S    
C71   C79   A    
C94   H47   S    
O19   V1    S    
C11   C35   A    
C81   H21   S    
C10   C34   A    
H13   C69   S    
C100  H63   S    
C95   C96   S    
C105  H81   S    
C88   H32   S    
C23   C55   A    
C74   C83   S    
C99   C100  S    
C22   C30   A    
O3    C2    A    
C18   C99   S    
C23   C109  S    
O12   V1    S    
C101  H70   S    
H3    C28   S    
C46   C54   A    
C37   C45   A    
C19   C27   A    
C109  H90   S    
C45   C53   A    
C18   C26   A    
C92   H42   S    
C112  H92   S    
C75   C85   S    
C16   C32   A    
C90   H39   S    
C47   C55   A    
C65   C73   A    
C104  H74   S    
O6    V2    S    
C78   C91   S    
C103  C104  S    
C99   H65   S    
C12   C28   A    
C20   C103  S    
C84   H24   S    
C41   C49   A    
C38   C46   A    
O15   C7    A    
C91   H46   S    
C104  H72   S    
C92   H43   S    
C43   C59   A    
O14   C6    A    
C42   C58   A    
C70   C78   A    
C53   C77   A    
C39   F8    S    
C34   C42   A    
C86   H29   S    
C39   C47   A    
C110  H87   S    
C48   C64   A    
C98   H57   S    
H8    C31   S    
C95   H55   S    
H12   C68   S    
C85   H30   S    
C111  H95   S    
C96   H54   S    
C49   C73   A    
O3    V4    S    
C101  C102  S    
C44   C60   A    
C102  H69   S    
C87   H36   S    
C5    C12   S    
H4    C27   S    
C24   C56   A    
C60   C67   A    
C86   H28   S    
C79   C93   S    
C109  C110  S    
C72   C80   A    
C106  H77   S    
C86   H27   S    
C100  H64   S    
C19   C51   A    
C55   C79   A    
C61   C70   A    
C105  C106  S    
C99   H66   S    
C63   C72   A    
C102  H68   S    
O11   V2    S    
C13   C37   A    
C89   H40   S    
C83   H26   S    
C15   C39   A    
C59   C60   A    
C14   C30   A    
O4    V3    S    
C24   C111  S    
C106  H78   S    
O12   C4    A    
O9    V1    S    
O8    C5    A    
C81   C82   S    
O13   C5    A    
C35   F4    S    
H11   C67   S    
C109  H91   S    
C34   F1    S    
C18   C50   A    
C1    C16   S    
C67   C75   A    
C33   F2    S    
C17   C49   A    
C2    C15   S    
C33   C41   A    
C47   C63   A    
C57   C66   A    
C3    C14   S    
O9    C1    A    
H7    C32   S    
C112  H93   S    
C23   C31   A    
C91   H45   S    
C97   C98   S    
C38   F5    S    
C22   C54   A    
C103  H76   S    
C37   F6    S    
C90   H38   S    
O8    V1    S    
O4    C1    A    
C82   H18   S    
C111  H96   S    
C46   C62   A    
C63   C64   A    
H6    C29   S    
C45   C61   A    
H5    C30   S    
C108  H84   S    
C21   C29   A    
C8    C9    S    
C88   H33   S    
C91   C92   S    
O1    C4    A    
H16   C72   S    
O2    C3    A    
C87   C88   S    
H2    C25   S    
C87   H35   S    
C56   C80   A    
C94   H49   S    
H1    C26   S    
C101  H71   S    
C17   C25   A    
C4    C13   S    
C7    C10   S    
C42   C50   A    
C76   C87   S    
C64   C71   A    
C98   H58   S    
C10   C26   A    
C92   H44   S    
O7    C6    A    
C43   C51   A    
C52   C76   A    
C12   C36   A    
O10   V2    S    
C102  H67   S    
C68   C76   A    
C82   H19   S    
H14   C70   S    
C16   C40   A    
C84   H22   S    
C108  H83   S    
C81   H20   S    
C40   C48   A    
C97   H61   S    
C83   H25   S    
O20   V2    S    
C17   C97   S    
C54   C78   A    
C106  H79   S    
C35   C43   A    
C100  H62   S    
C11   C27   A    
O5    C8    A    
C107  H86   S    
C105  H80   S    
O10   C2    A    
H15   C71   S    
O6    C7    A    
C94   H48   S    
C41   C57   A    
O7    V2    S    
C51   C75   A    
C93   H50   S    
C36   F3    S    
C21   C53   A    
C24   C32   A    
C89   H41   S    
C93   H51   S    
O15   V4    S    
O13   V3    S    
C98   H59   S    
O1    V3    S    
O16   V3    S    
O14   V4    S    
H10   C66   S    
O2    V4    S    
C85   H31   S    
C112  H94   S    
C73   C81   S    
H9    C65   S    
C20   C28   A    
O16   C8    A    
C111  C112  S    
C107  H85   S    
C21   C105  S    
C103  H75   S    
C104  H73   S    
C22   C107  S    
C90   H37   S    
C62   C69   A    
C77   C89   S    
C44   C52   A    
C84   H23   S    
C82   H17   S    
C89   C90   S    
C20   C52   A    
C80   C95   S    
C110  H89   S    
C15   C31   A    
C97   H60   S    
C107  C108  S    
C6    C11   S    
C14   C38   A    
