data_mof_unit_30998.cif
_audit_creation_date              2012-12-11T14:41:09-0500
_audit_creation_method            fapswitch 2.2
_symmetry_space_group_name_H-M    P1
_symmetry_Int_Tables_number       1
_space_group_crystal_system       triclinic
_cell_length_a                    24.705174
_cell_length_b                    17.364093
_cell_length_c                    15.53737
_cell_angle_alpha                 90.449305
_cell_angle_beta                  129.460498
_cell_angle_gamma                 89.834987
_cell_volume                      5145.82801669

loop_
_atom_site_label
_atom_site_type_symbol
_atom_type_description
_atom_site_fract_x
_atom_site_fract_y
_atom_site_fract_z
_atom_type_partial_charge
C1    C     C_R   0.351639 0.357623 0.245478 0.737770
C2    C     C_R   0.657775 0.670161 0.499897 0.140870
C3    C     C_3   0.260367 0.195174 0.853359 -0.861020
C4    C     C_3   0.563167 0.379158 0.208501 -0.940597
C5    C     C_3   0.585375 0.616622 0.234013 -0.944790
C6    C     C_3   0.063168 0.879137 0.208503 -0.940704
C7    C     C_3   0.085351 0.116575 0.233987 -0.944423
C8    C     C_3   0.486142 0.265193 0.743755 -0.780193
C9    C     C_3   0.581475 0.517539 0.932050 -0.807396
C10   C     C_3   0.986224 0.765226 0.744209 -0.779919
C11   C     C_3   0.082062 0.017828 0.932921 -0.808785
C12   C     C_R   0.185165 0.892635 0.496827 0.226819
C13   C     C_R   0.157789 0.170143 0.499902 0.140980
C14   C     C_R   0.315398 0.398704 0.502826 0.088054
C15   C     C_R   0.357781 0.682225 0.503666 -0.052807
C16   C     C_R   0.815394 0.898718 0.502823 0.087815
C17   C     C_R   0.857791 0.182236 0.503662 -0.052674
C18   C     C_3   0.289440 0.338566 0.619710 -0.473317
C19   C     C_3   0.354870 0.780647 0.620913 -0.525876
C20   C     C_3   0.789362 0.838656 0.619655 -0.473216
C21   C     C_R   0.332667 0.604827 0.197491 0.695461
C22   C     C_3   0.854878 0.280660 0.620907 -0.525855
C23   C     C_3   0.753621 0.768201 0.623041 0.631872
C24   C     C_3   0.809826 0.344228 0.616026 0.727202
C25   C     C_3   0.253697 0.268108 0.623077 0.631878
C26   C     C_3   0.309820 0.844216 0.616033 0.727211
C27   C     C_3   0.192024 0.360981 0.415809 1.253686
C28   C     C_3   0.248062 0.701061 0.471298 1.261932
C29   C     C_3   0.692011 0.860948 0.415698 1.253590
C30   C     C_3   0.748073 0.201066 0.471305 1.261867
C31   C     C_3   0.287441 0.262472 0.478307 -0.635408
C32   C     C_R   0.851640 0.857621 0.245484 0.737774
C33   C     C_3   0.294864 0.806561 0.420568 -0.597028
C34   C     C_3   0.787498 0.762475 0.478444 -0.635358
C35   C     C_3   0.794864 0.306569 0.420558 -0.596983
C36   C     C_3   0.271464 0.342503 0.503964 -0.217425
C37   C     C_3   0.315221 0.741600 0.504371 -0.172877
C38   C     C_3   0.771455 0.842521 0.503956 -0.217391
C39   C     C_3   0.815229 0.241609 0.504367 -0.172880
C40   C     C_3   0.698766 0.733733 0.503018 -0.337663
C41   C     C_3   0.734610 0.341359 0.500555 -0.381657
C42   C     C_3   0.198779 0.233713 0.503024 -0.337665
C43   C     C_R   0.832668 0.104828 0.197488 0.695471
C44   C     C_3   0.234607 0.841356 0.500557 -0.381694
C45   C     C_3   0.649976 0.801304 0.425538 0.234491
C46   C     C_3   0.705089 0.258200 0.481315 0.215254
C47   C     C_3   0.149997 0.301326 0.425657 0.234468
C48   C     C_3   0.205079 0.758198 0.481306 0.215229
C49   C     C_R   0.655032 0.365780 0.766843 0.168931
C50   C     C_R   0.667432 0.608336 0.802057 0.149599
C51   C     C_R   0.155006 0.865749 0.766792 0.169011
C52   C     C_R   0.167430 0.108333 0.802061 0.149575
C53   C     C_3   0.738163 0.701504 0.463469 0.748375
C54   C     C_R   0.625220 0.323378 0.802866 0.014126
C55   C     C_3   0.741015 0.360234 0.409483 0.714154
C56   C     C_3   0.238100 0.201511 0.463331 0.748341
C57   C     C_3   0.241020 0.860234 0.409496 0.714196
C58   C     C_2   0.654961 0.255267 0.873745 -0.194452
C59   C     C_2   0.695441 0.653711 0.985634 -0.145785
C60   C     C_2   0.154938 0.755255 0.873717 -0.194256
C61   C     C_2   0.195445 0.153744 0.985614 -0.146818
C62   C     C_2   0.691456 0.203267 0.865329 -0.117774
C63   C     C_2   0.764975 0.641656 0.059159 -0.152692
C64   C     C_2   0.191423 0.703235 0.865303 -0.117803
C65   C     C_R   0.649957 0.624625 0.869195 -0.031764
C66   C     C_2   0.264975 0.141672 0.059147 -0.152757
C67   C     C_2   0.302522 0.646343 0.013929 -0.162803
C68   C     C_2   0.360767 0.234765 0.164445 -0.157321
C69   C     C_2   0.802538 0.146349 0.013937 -0.162859
C70   C     C_2   0.860767 0.734755 0.164461 -0.157365
C71   C     C_2   0.232890 0.647346 0.954059 -0.059577
C72   C     C_2   0.308750 0.196434 0.151892 -0.048156
C73   C     C_2   0.732906 0.147355 0.954056 -0.059550
C74   C     C_2   0.808745 0.696427 0.151898 -0.048245
C75   C     C_R   0.615038 0.402407 0.404607 0.099064
C76   C     C_R   0.125177 0.823341 0.802788 0.014109
C77   C     C_R   0.599936 0.632557 0.407023 0.161816
C78   C     C_R   0.115036 0.902403 0.404606 0.099083
C79   C     C_R   0.099944 0.132551 0.407026 0.161759
C80   C     C_R   0.384633 0.409826 0.592773 0.703958
C81   C     C_R   0.409801 0.639188 0.594272 0.799974
C82   C     C_R   0.884633 0.909828 0.592774 0.703938
C83   C     C_R   0.909813 0.139200 0.594267 0.799896
C84   C     C_R   0.690236 0.405902 0.589428 -0.052247
C85   C     C_R   0.676308 0.629618 0.591584 -0.056465
C86   C     C_R   0.190235 0.905904 0.589427 -0.052220
C87   C     C_R   0.149960 0.124598 0.869210 -0.030783
C88   C     C_R   0.176315 0.129607 0.591586 -0.056430
C89   C     C_R   0.310683 0.408212 0.410356 -0.115292
C90   C     C_R   0.336247 0.641713 0.409180 -0.128604
C91   C     C_R   0.810683 0.908217 0.410356 -0.115104
C92   C     C_R   0.836252 0.141717 0.409178 -0.128666
C93   C     C_R   0.563604 0.361416 0.764178 0.119409
C94   C     C_R   0.580267 0.602688 0.807327 0.206349
C95   C     C_R   0.063569 0.861398 0.764117 0.118966
C96   C     C_R   0.080275 0.102628 0.807360 0.206190
C97   C     C_R   0.444369 0.352025 0.251810 -0.236719
C98   C     C_R   0.685166 0.392636 0.496827 0.226802
C99   C     C_R   0.420067 0.602623 0.191959 -0.249473
C100  C     C_R   0.944369 0.852021 0.251815 -0.236737
C101  C     C_R   0.920073 0.102628 0.191965 -0.249477
C102  C     C_R   0.385334 0.310918 0.220263 -0.055812
C103  C     C_R   0.349739 0.620646 0.130459 -0.039209
C104  C     C_R   0.885334 0.810914 0.220271 -0.055779
C105  C     C_R   0.849745 0.120648 0.130463 -0.039203
C106  C     C_3   0.775728 0.390693 0.926516 -0.890758
C107  C     C_3   0.760441 0.695094 0.853440 -0.860684
C108  C     C_3   0.275696 0.890704 0.926435 -0.890697
F1    F     F_    0.288264 0.345619 0.218073 -0.725377
F2    F     F_    0.265996 0.638202 0.539545 -0.589388
F3    F     F_    0.678563 0.934900 0.432160 -0.578123
F4    F     F_    0.766015 0.138209 0.539557 -0.589468
F5    F     F_    0.619379 0.835610 0.466257 -0.630025
F6    F     F_    0.705716 0.237292 0.568094 -0.644950
F7    F     F_    0.119470 0.335607 0.466507 -0.630015
F8    F     F_    0.205698 0.737289 0.568078 -0.644935
F9    F     F_    0.775223 0.635203 0.520515 -0.569615
F10   F     F_    0.759166 0.436718 0.415447 -0.586980
F11   F     F_    0.275136 0.135169 0.520252 -0.569582
F12   F     F_    0.267347 0.594895 0.163684 -0.716959
F13   F     F_    0.259186 0.936715 0.415480 -0.586894
F14   F     F_    0.170304 0.356549 0.308765 -0.725815
F15   F     F_    0.206875 0.674377 0.362009 -0.709132
F16   F     F_    0.670349 0.856447 0.308694 -0.725845
F17   F     F_    0.706885 0.174378 0.362017 -0.709120
F18   F     F_    0.407202 0.436875 0.692941 -0.683808
F19   F     F_    0.437926 0.649820 0.701205 -0.721702
F20   F     F_    0.907200 0.936892 0.692936 -0.683264
F21   F     F_    0.937975 0.149865 0.701211 -0.722071
F22   F     F_    0.788267 0.845617 0.218088 -0.725325
F23   F     F_    0.767346 0.094899 0.163673 -0.716949
F24   F     F_    0.805289 0.714846 0.694452 -0.666532
F25   F     F_    0.840561 0.415733 0.634556 -0.589718
F26   F     F_    0.305352 0.214706 0.694374 -0.666423
F27   F     F_    0.340562 0.915720 0.634580 -0.589710
F28   F     F_    0.178633 0.434922 0.432402 -0.578077
H1    H     H_    0.346451 0.332862 0.688859 0.256649
H2    H     H_    0.771932 0.282968 0.336897 0.184308
H3    H     H_    0.962644 0.759316 0.655286 0.228956
H4    H     H_    0.045602 0.129579 0.893875 0.224173
H5    H     H_    0.040616 0.984812 0.924752 0.277034
H6    H     H_    0.120920 0.038337 0.020536 0.231038
H7    H     H_    0.109302 0.978929 0.914469 0.223753
H8    H     H_    0.282003 0.263485 0.401469 0.211449
H9    H     H_    0.271930 0.782961 0.336905 0.184311
H10   H     H_    0.342330 0.245808 0.547687 0.252870
H11   H     H_    0.342494 0.839720 0.450233 0.268065
H12   H     H_    0.842389 0.745856 0.547892 0.252825
H13   H     H_    0.842490 0.339735 0.450220 0.268069
H14   H     H_    0.700885 0.687206 0.374103 0.033002
H15   H     H_    0.691009 0.349384 0.326192 0.041030
H16   H     H_    0.200777 0.187280 0.373947 0.032969
H17   H     H_    0.406148 0.804392 0.651176 0.250072
H18   H     H_    0.191016 0.849397 0.326200 0.041044
H19   H     H_    0.607132 0.781246 0.340420 0.102263
H20   H     H_    0.649627 0.255042 0.403648 0.110275
H21   H     H_    0.107109 0.281310 0.340533 0.102208
H22   H     H_    0.149618 0.755044 0.403636 0.110272
H23   H     H_    0.207646 0.619817 0.982392 0.224425
H24   H     H_    0.289571 0.214990 0.194853 0.201631
H25   H     H_    0.707655 0.119818 0.982373 0.224411
H26   H     H_    0.789560 0.714989 0.194848 0.201671
H27   H     H_    0.697457 0.207385 0.802247 0.174832
H28   H     H_    0.846367 0.832992 0.688863 0.256696
H29   H     H_    0.790502 0.602346 0.040868 0.153362
H30   H     H_    0.197391 0.707313 0.802179 0.174839
H31   H     H_    0.290498 0.102338 0.040872 0.153431
H32   H     H_    0.325947 0.674896 0.982547 0.157750
H33   H     H_    0.379808 0.214577 0.121601 0.154944
H34   H     H_    0.825971 0.174910 0.982572 0.157737
H35   H     H_    0.879815 0.714561 0.121630 0.154940
H36   H     H_    0.649006 0.249224 0.936951 0.158923
H37   H     H_    0.671396 0.692534 0.007878 0.164902
H38   H     H_    0.149026 0.749257 0.936977 0.158857
H39   H     H_    0.906155 0.304408 0.651167 0.250102
H40   H     H_    0.171399 0.192588 0.007833 0.165140
H41   H     H_    0.737926 0.414432 0.673664 0.128490
H42   H     H_    0.725054 0.632401 0.673735 0.214957
H43   H     H_    0.237925 0.914434 0.673665 0.128529
H44   H     H_    0.225062 0.132386 0.673738 0.214859
H45   H     H_    0.263182 0.412263 0.325108 0.274784
H46   H     H_    0.293494 0.655708 0.323701 0.231803
H47   H     H_    0.763184 0.912293 0.325110 0.274809
H48   H     H_    0.793497 0.155710 0.323698 0.231805
H49   H     H_    0.483865 0.329342 0.249699 0.180159
H50   H     H_    0.227545 0.286040 0.657318 0.087975
H51   H     H_    0.444558 0.593507 0.155027 0.169233
H52   H     H_    0.983865 0.829336 0.249705 0.180171
H53   H     H_    0.944565 0.093514 0.155037 0.169214
H54   H     H_    0.272152 0.392095 0.635788 0.233358
H55   H     H_    0.364735 0.738281 0.682541 0.246984
H56   H     H_    0.772026 0.892196 0.635624 0.233323
H57   H     H_    0.864749 0.238293 0.682540 0.246954
H58   H     H_    0.741406 0.314243 0.796946 0.189228
H59   H     H_    0.828215 0.397213 0.949581 0.267275
H60   H     H_    0.779604 0.348490 0.983567 0.260806
H61   H     H_    0.308940 0.833393 0.685485 0.053474
H62   H     H_    0.759430 0.447474 0.936629 0.242051
H63   H     H_    0.771074 0.575751 0.886366 0.171184
H64   H     H_    0.809562 0.696312 0.864892 0.292143
H65   H     H_    0.771449 0.720204 0.928476 0.256659
H66   H     H_    0.720679 0.732054 0.782112 0.251127
H67   H     H_    0.241384 0.814160 0.796965 0.189252
H68   H     H_    0.328188 0.897181 0.949506 0.267269
H69   H     H_    0.279559 0.848560 0.983534 0.260786
H70   H     H_    0.259402 0.947517 0.936467 0.242076
H71   H     H_    0.271093 0.075842 0.886367 0.171198
H72   H     H_    0.727414 0.786155 0.657186 0.087997
H73   H     H_    0.309455 0.196446 0.864718 0.292063
H74   H     H_    0.271416 0.220264 0.928437 0.256782
H75   H     H_    0.220554 0.232114 0.782045 0.251175
H76   H     H_    0.560963 0.479581 0.276907 0.202340
H77   H     H_    0.505756 0.388306 0.144159 0.254380
H78   H     H_    0.573091 0.318108 0.235154 0.251436
H79   H     H_    0.586406 0.391216 0.167995 0.271536
H80   H     H_    0.527812 0.694144 0.257190 0.187601
H81   H     H_    0.598032 0.663640 0.201325 0.267830
H82   H     H_    0.542109 0.582307 0.161496 0.257688
H83   H     H_    0.808952 0.333409 0.685484 0.053458
H84   H     H_    0.631873 0.578887 0.288844 0.295339
H85   H     H_    0.060941 0.979555 0.276888 0.202321
H86   H     H_    0.005757 0.888278 0.144153 0.254373
H87   H     H_    0.073095 0.818089 0.235164 0.251464
H88   H     H_    0.086409 0.891194 0.168000 0.271519
H89   H     H_    0.027830 0.194151 0.257193 0.187523
H90   H     H_    0.097983 0.163564 0.201229 0.267788
H91   H     H_    0.042075 0.082244 0.161511 0.257583
H92   H     H_    0.131857 0.078851 0.288823 0.295385
H93   H     H_    0.542279 0.346063 0.870315 0.184245
H94   H     H_    0.782107 0.763446 0.401646 0.211433
H95   H     H_    0.444592 0.257927 0.750918 0.277361
H96   H     H_    0.524886 0.218470 0.791975 0.253864
H97   H     H_    0.462506 0.259541 0.654781 0.228809
H98   H     H_    0.545907 0.629730 0.894303 0.223455
H99   H     H_    0.539511 0.483853 0.921533 0.278225
H100  H     H_    0.619290 0.537548 0.020116 0.230701
H101  H     H_    0.609812 0.479409 0.914869 0.223062
H102  H     H_    0.042267 0.846428 0.870363 0.184689
H103  H     H_    0.944633 0.758105 0.751303 0.277335
H104  H     H_    0.024993 0.718574 0.792725 0.253722
N1    N     N_R   0.389430 0.421450 0.294590 -0.107004
N2    N     N_R   0.581780 0.577610 0.443390 -0.073596
N3    N     N_R   0.081780 0.922390 0.443390 -0.073491
N4    N     N_R   0.081780 0.077610 0.443390 -0.073584
N5    N     N_R   0.419850 0.423100 0.556610 -0.126867
N6    N     N_R   0.419850 0.576900 0.556610 -0.115075
N7    N     N_R   0.919850 0.923100 0.556610 -0.126885
N8    N     N_R   0.919850 0.076900 0.556610 -0.115071
N9    N     N_R   0.627410 0.423100 0.556610 -0.069107
N10   N     N_R   0.627410 0.576900 0.556610 -0.078979
N11   N     N_R   0.127410 0.923100 0.556610 -0.069115
N12   N     N_R   0.389430 0.578550 0.294590 -0.112376
N13   N     N_R   0.127410 0.076900 0.556610 -0.078977
N14   N     N_R   0.374220 0.422390 0.443390 -0.111500
N15   N     N_R   0.374220 0.577610 0.443390 -0.090283
N16   N     N_R   0.874220 0.922390 0.443390 -0.111532
N17   N     N_R   0.874220 0.077610 0.443390 -0.090301
N18   N     N_R   0.555000 0.424040 0.705410 -0.079333
N19   N     N_R   0.555000 0.575960 0.705410 -0.091045
N20   N     N_R   0.055000 0.924040 0.705410 -0.079415
N21   N     N_R   0.055000 0.075960 0.705410 -0.091107
N22   N     N_R   0.446630 0.421450 0.294590 -0.078717
N23   N     N_R   0.889430 0.921450 0.294590 -0.107018
N24   N     N_R   0.446630 0.578550 0.294590 -0.077344
N25   N     N_R   0.946630 0.921450 0.294590 -0.078724
N26   N     N_R   0.946630 0.078550 0.294590 -0.077342
N27   N     N_2   0.726195 0.364156 0.812281 -0.119944
N28   N     N_2   0.734694 0.616566 0.832707 -0.123961
N29   N     N_2   0.226168 0.864101 0.812232 -0.119941
N30   N     N_2   0.234680 0.116624 0.832682 -0.123944
N31   N     N_2   0.592573 0.432141 0.301274 -0.100627
N32   N     N_2   0.562960 0.649230 0.292786 -0.137099
N33   N     N_2   0.092565 0.932128 0.301266 -0.100622
N34   N     N_R   0.889430 0.078550 0.294590 -0.112386
N35   N     N_2   0.062974 0.149234 0.292790 -0.137144
N36   N     N_2   0.518591 0.340131 0.787067 -0.091368
N37   N     N_2   0.550445 0.582981 0.857908 -0.045864
N38   N     N_2   0.018609 0.840228 0.787158 -0.091115
N39   N     N_2   0.050463 0.082787 0.857927 -0.045875
N40   N     N_R   0.612200 0.424040 0.705410 -0.088901
N41   N     N_R   0.612200 0.575960 0.705410 -0.093540
N42   N     N_R   0.112200 0.924040 0.705410 -0.088894
N43   N     N_R   0.112200 0.075960 0.705410 -0.093560
N44   N     N_R   0.581780 0.422390 0.443390 -0.073481
Ni1   Ni    Ni4+2 0.382890 0.500000 0.370170 0.300577
Ni2   Ni    Ni4+2 0.882890 0.000000 0.370170 0.300551
Ni3   Ni    Ni4+2 0.618740 0.500000 0.629830 0.212996
Ni4   Ni    Ni4+2 0.118740 0.000000 0.629830 0.213001
Ni5   Ni    Ni4+2 0.514090 0.500000 0.370170 0.200423
Ni6   Ni    Ni4+2 0.014090 0.000000 0.370170 0.200407
Ni7   Ni    Ni4+2 0.487550 0.500000 0.629830 0.293288
Ni8   Ni    Ni4+2 0.987550 0.000000 0.629830 0.293595

loop_
_geom_bond_atom_site_label_1
_geom_bond_atom_site_label_2
_ccdc_geom_bond_type
C24   F25   S    
N41   Ni3   S    
C99   C103  A    
C101  N26   A    
N20   Ni8   S    
H93   N36   S    
C58   C62   D    
C96   N21   A    
N9    N44   A    
C91   H47   S    
C23   H72   S    
C9    H99   S    
N23   Ni2   S    
C60   H38   S    
N11   Ni4   S    
C58   H36   S    
N1    Ni1   S    
C90   N15   A    
N12   Ni1   S    
C21   N12   A    
C99   H51   S    
C92   N17   A    
C28   F15   S    
C26   C44   S    
C15   C81   A    
C43   N34   A    
N5    Ni7   S    
C32   N23   A    
C47   F7    S    
C17   C92   A    
C4    N31   S    
C106  N27   S    
C3    N30   S    
C75   N31   S    
C66   H31   S    
C80   N5    A    
C67   H32   S    
C27   F28   S    
C28   C37   S    
H102  N38   S    
C6    H86   S    
C108  N29   S    
C100  H52   S    
C68   C102  S    
C107  H65   S    
C21   F12   S    
C7    N35   S    
C35   H2    S    
C14   C36   S    
C107  H64   S    
C8    H95   S    
C70   C104  S    
C41   C46   S    
C5    H84   S    
C16   C38   S    
C7    H92   S    
C97   H49   S    
C49   C54   A    
C20   H28   S    
C29   F16   S    
C32   F22   S    
C100  C104  A    
C13   C79   A    
C2    C85   A    
C43   C105  A    
C64   C71   S    
C31   H8    S    
C19   C26   S    
C26   H61   S    
C17   C39   S    
C15   C37   S    
C54   C93   A    
C64   H30   S    
C26   F27   S    
C33   H11   S    
C42   C56   S    
N21   N43   A    
C31   H10   S    
C34   H12   S    
C61   C66   D    
C5    H81   S    
C90   H46   S    
C66   C72   S    
C85   H42   S    
C12   C78   A    
N7    Ni8   S    
C70   C74   D    
C73   H25   S    
N10   Ni3   S    
C32   C104  A    
N18   Ni7   S    
H85   N33   S    
N42   Ni4   S    
C45   H19   S    
C14   C80   A    
C31   C56   S    
C56   H16   S    
C19   C37   S    
N9    Ni3   S    
C67   C71   D    
C97   C102  A    
C48   F8    S    
C1    F1    S    
C8    H97   S    
C3    H74   S    
C84   N9    A    
C30   F17   S    
C85   N10   A    
C95   N38   S    
C81   F19   S    
C51   N42   A    
C101  C105  A    
C24   C41   S    
H89   N35   S    
H4    N39   S    
C9    N37   S    
C34   H94   S    
C61   H40   S    
C83   F21   S    
C21   C103  A    
C11   N39   S    
C13   C42   S    
C50   C65   A    
C27   F14   S    
C29   F3    S    
C22   H39   S    
C6    H88   S    
C49   N27   S    
C3    H75   S    
C95   N20   A    
C50   N28   S    
N6    Ni7   S    
N13   Ni4   S    
C91   N16   A    
C4    H78   S    
C46   F6    S    
C50   N41   A    
C35   C55   S    
C77   N2    A    
N2    N10   A    
N19   N41   A    
C29   C38   S    
N3    N11   A    
C51   C76   A    
C107  H66   S    
C108  H70   S    
C92   H48   S    
C74   H26   S    
C23   C40   S    
C69   C105  S    
N6    N15   A    
N2    Ni5   S    
C106  H60   S    
H76   N31   S    
C62   H27   S    
C67   C103  S    
C48   H22   S    
C75   N44   A    
C60   C76   S    
C75   C98   A    
C33   C37   S    
C93   N18   A    
N21   Ni8   S    
C29   C45   S    
C17   C83   A    
C89   H45   S    
C83   N8    A    
C18   H1    S    
C35   C39   S    
C70   H35   S    
C14   C89   A    
C88   H44   S    
C45   F5    S    
C62   C73   S    
C20   C38   S    
C68   H33   S    
C5    H82   S    
C20   C23   S    
N19   Ni7   S    
C44   C57   S    
C68   C72   D    
C87   C96   A    
C18   C36   S    
C22   H57   S    
C16   C82   A    
C77   N32   S    
N16   Ni2   S    
N26   Ni6   S    
C79   N4    A    
C10   N38   S    
C69   C73   D    
C25   F26   S    
C11   H5    S    
C10   H104  S    
C82   F20   S    
C8    N36   S    
C33   H9    S    
C97   N22   A    
C93   N36   S    
N34   Ni2   S    
C82   N7    A    
C34   C53   S    
N4    Ni6   S    
C65   C94   A    
C7    H90   S    
C47   H21   S    
N44   Ni5   S    
C88   N13   A    
N4    N13   A    
C51   N29   S    
C9    H101  S    
C53   H14   S    
C19   H17   S    
N8    Ni8   S    
C22   C24   S    
N7    N16   A    
C10   H3    S    
C6    N33   S    
C94   N19   A    
C71   H23   S    
C61   C87   S    
C6    H87   S    
C54   C58   S    
N14   Ni1   S    
C27   C47   S    
C86   N11   A    
N23   N25   A    
C18   H54   S    
C5    N32   S    
C79   N35   S    
C4    H77   S    
N26   N34   A    
N43   Ni4   S    
C34   C38   S    
C96   N39   S    
C59   C63   D    
C81   N6    A    
C30   C46   S    
C52   C87   A    
H58   N27   S    
C78   N3    A    
C108  H69   S    
C59   H37   S    
C72   H24   S    
C25   C42   S    
C20   H56   S    
N20   N42   A    
C23   F24   S    
C55   H15   S    
H63   N28   S    
C63   C74   S    
C33   C57   S    
C27   C36   S    
C7    H91   S    
C46   H20   S    
N5    N14   A    
N15   Ni1   S    
C101  H53   S    
H67   N29   S    
C49   N40   A    
N22   Ni5   S    
C12   C86   A    
C89   N14   A    
C60   C64   D    
C28   F2    S    
C43   F23   S    
C106  H62   S    
C106  H59   S    
C84   C98   A    
C76   C95   A    
C2    C77   A    
C1    N1    A    
N1    N22   A    
C59   C65   S    
C94   N37   S    
N18   N40   A    
C8    H96   S    
C52   N30   S    
C15   C90   A    
C99   N24   A    
N25   Ni6   S    
C80   F18   S    
C3    H73   S    
N3    Ni6   S    
C41   C55   S    
C22   C39   S    
C13   C88   A    
C86   H43   S    
C56   F11   S    
C28   C48   S    
C30   C39   S    
C53   F9    S    
N24   Ni5   S    
C84   H41   S    
C11   H6    S    
C18   C25   S    
N40   Ni3   S    
C25   H50   S    
N12   N24   A    
C63   H29   S    
C57   F13   S    
N8    N17   A    
H71   N30   S    
C24   H83   S    
C2    C40   S    
C10   H103  S    
C42   C47   S    
N17   Ni2   S    
C40   C45   S    
C16   C91   A    
C108  H68   S    
C40   C53   S    
C100  N25   A    
C30   F4    S    
C107  N28   S    
C4    H79   S    
C9    H100  S    
C31   C36   S    
C12   C44   S    
C69   H34   S    
C35   H13   S    
C78   N33   S    
H98   N37   S    
C57   H18   S    
C11   H7    S    
C1    C102  A    
H80   N32   S    
C41   C98   S    
C44   C48   S    
C19   H55   S    
C52   N43   A    
C55   F10   S    
