data_mof_unit_58054.cif
_audit_creation_date              2012-12-10T18:54:28-0500
_audit_creation_method            fapswitch 2.2
_symmetry_space_group_name_H-M    P1
_symmetry_Int_Tables_number       1
_space_group_crystal_system       triclinic
_cell_length_a                    10.724361
_cell_length_b                    10.027873
_cell_length_c                    23.467921
_cell_angle_alpha                 90.00138
_cell_angle_beta                  99.286626
_cell_angle_gamma                 90.014081
_cell_volume                      2490.72111671

loop_
_atom_site_label
_atom_site_type_symbol
_atom_type_description
_atom_site_fract_x
_atom_site_fract_y
_atom_site_fract_z
_atom_type_partial_charge
C1    C     C_R   0.260452 0.500170 0.500350 0.954960
C2    C     C_R   0.546735 0.391275 0.704513 -0.220443
C3    C     C_R   0.447275 0.386022 0.236513 -0.120220
C4    C     C_R   0.549408 0.385568 0.763505 -0.083477
C5    C     C_R   0.494561 0.491190 0.207750 0.263589
C6    C     C_R   0.501593 0.490983 0.791943 0.201799
C7    C     C_R   0.064151 0.380146 0.501507 -0.133197
C8    C     C_R   0.936406 0.622848 0.500763 -0.052898
C9    C     C_R   0.935897 0.380153 0.498732 -0.133879
C10   C     C_R   0.063801 0.622847 0.499639 -0.053733
C11   C     C_R   0.872374 0.501117 0.499801 -0.066837
C12   C     C_R   0.739596 0.500179 0.499777 0.957715
C13   C     C_R   0.127737 0.501108 0.500478 -0.066863
C14   C     C_R   0.587402 0.072616 0.539404 0.279070
C15   C     C_R   0.414039 0.926773 0.459860 0.301654
C16   C     C_R   0.412576 0.072564 0.460605 0.278883
C17   C     C_R   0.585948 0.926824 0.540145 0.299388
C18   C     C_R   0.505446 0.500191 0.389904 0.974146
C19   C     C_R   0.494722 0.500174 0.610081 0.971425
C20   C     C_R   0.613837 0.486012 0.889566 0.517902
C21   C     C_R   0.382634 0.475587 0.110017 0.530390
C22   C     C_R   0.388863 0.463232 0.871935 0.503842
C23   C     C_R   0.549817 0.602518 0.238337 0.036056
C24   C     C_R   0.608651 0.473750 0.127639 0.537673
C25   C     C_R   0.384963 0.461954 0.931105 -0.020663
C26   C     C_R   0.612533 0.472796 0.068487 -0.023828
C27   C     C_R   0.499413 0.469553 0.969923 -0.016860
C28   C     C_R   0.497908 0.469571 0.029680 -0.018923
C29   C     C_R   0.615316 0.478205 0.949127 -0.021122
C30   C     C_R   0.381778 0.467487 0.050477 -0.023802
C31   C     C_R   0.269839 0.455202 0.952219 -0.139779
C32   C     C_R   0.727793 0.476633 0.047388 -0.139967
C33   C     C_R   0.268176 0.459481 0.011411 -0.146339
C34   C     C_R   0.448490 0.603210 0.760980 0.036519
C35   C     C_R   0.729129 0.480815 0.988189 -0.146796
C36   C     C_R   0.567763 0.602565 0.299333 0.353424
C37   C     C_R   0.433096 0.603193 0.700367 0.406186
C38   C     C_R   0.509585 0.499509 0.327620 -0.200993
C39   C     C_R   0.490428 0.499519 0.672280 -0.229203
C40   C     C_R   0.451752 0.391736 0.295568 -0.223474
H1    H     H_    0.180697 0.449349 0.923108 0.202879
H2    H     H_    0.888271 0.717696 0.501381 0.215663
H3    H     H_    0.887078 0.285769 0.495720 0.228248
H4    H     H_    0.111996 0.717699 0.499079 0.215276
H5    H     H_    0.680915 0.713282 0.205780 0.257214
H6    H     H_    0.557732 0.802859 0.224555 0.254596
H7    H     H_    0.340481 0.693133 0.813617 0.225557
H8    H     H_    0.491353 0.749092 0.820629 0.204162
H9    H     H_    0.840999 0.713965 0.296423 0.376975
H10   H     H_    0.170631 0.711236 0.711069 0.370535
H11   H     H_    0.801014 0.341120 0.622720 0.368623
H12   H     H_    0.817092 0.479122 0.076499 0.202889
H13   H     H_    0.229230 0.656528 0.363203 0.367233
H14   H     H_    0.198790 0.341019 0.377467 0.368209
H15   H     H_    0.770514 0.656635 0.636840 0.368101
H16   H     H_    0.177824 0.456725 0.026400 0.192520
H17   H     H_    0.819367 0.486348 0.973191 0.192748
H18   H     H_    0.410691 0.310110 0.316209 0.248746
H19   H     H_    0.587819 0.309364 0.684062 0.248259
H20   H     H_    0.406091 0.299756 0.212812 0.185033
H21   H     H_    0.589874 0.299339 0.787450 0.182324
H22   H     H_    0.112907 0.285755 0.504434 0.228366
N1    N     N_R   0.501549 0.480466 0.852576 -0.350225
N2    N     N_R   0.495002 0.480156 0.147062 -0.337555
N3    N     N_R   0.500000 0.857200 0.500000 -0.222133
N4    N     N_R   0.500000 0.142800 0.500000 -0.230167
N5    N     N_3   0.583753 0.714465 0.205977 -0.420869
N6    N     N_3   0.413215 0.718403 0.790963 -0.364155
O1    O     O_R   0.316770 0.614620 0.500000 -0.555252
O2    O     O_2   0.272467 0.480401 0.130784 -0.538348
O3    O     O_2   0.281076 0.448308 0.833878 -0.539867
O4    O     O_2   0.717449 0.468568 0.165616 -0.547016
O5    O     O_2   0.606959 0.827750 0.362917 -0.210368
O6    O     O_2   0.753686 0.643783 0.388438 -0.359063
O7    O     O_3   0.777532 0.784375 0.299345 -0.517110
O8    O     O_2   0.392147 0.827910 0.636509 -0.204316
O9    O     O_2   0.243359 0.644507 0.612896 -0.365510
O10   O     O_3   0.227309 0.784816 0.703377 -0.469082
O11   O     O_2   0.722757 0.103660 0.648062 -0.216074
O12   O     O_R   0.683230 0.385380 0.500000 -0.582142
O13   O     O_2   0.834690 0.127023 0.565958 -0.278237
O14   O     O_3   0.717388 0.322346 0.599322 -0.553972
O15   O     O_2   0.175416 0.893832 0.398206 -0.203283
O16   O     O_2   0.353996 0.868666 0.346478 -0.228084
O17   O     O_3   0.281718 0.675612 0.401085 -0.551392
O18   O     O_2   0.276801 0.103524 0.352009 -0.217846
O19   O     O_2   0.165272 0.126908 0.434232 -0.278381
O20   O     O_3   0.282532 0.322217 0.400744 -0.554397
O21   O     O_2   0.824424 0.894104 0.602017 -0.202022
O22   O     O_2   0.645521 0.868578 0.653516 -0.221805
O23   O     O_R   0.683230 0.614620 0.500000 -0.553209
O24   O     O_3   0.718275 0.675766 0.598905 -0.551782
O25   O     O_R   0.316770 0.385380 0.500000 -0.581218
O26   O     O_R   0.499970 0.614690 0.416160 -0.512196
O27   O     O_R   0.500030 0.385310 0.583840 -0.571722
O28   O     O_R   0.500030 0.614690 0.583840 -0.516881
O29   O     O_R   0.499970 0.385310 0.416160 -0.574425
O30   O     O_2   0.723192 0.500225 0.868668 -0.537366
S1    S     S_3+6 0.676772 0.716593 0.339118 0.049048
S2    S     S_3+6 0.323599 0.717156 0.661314 0.082913
S3    S     S_3+6 0.714035 0.157948 0.588025 0.105532
S4    S     S_3+6 0.306899 0.839926 0.402147 0.137247
S5    S     S_3+6 0.285815 0.157828 0.412057 0.104637
S6    S     S_3+6 0.692944 0.840033 0.597907 0.138392
Zn1   Zn    Zn3+2 0.500000 0.653120 0.500000 1.169912
Zn2   Zn    Zn3+2 0.500000 0.346880 0.500000 1.104311

loop_
_geom_bond_atom_site_label_1
_geom_bond_atom_site_label_2
_ccdc_geom_bond_type
C25   C31   A    
H14   O20   S    
O28   Zn1   S    
O26   Zn1   S    
C26   C32   A    
O15   S4    D    
C27   C29   A    
C34   C37   A    
O16   S4    D    
O23   Zn1   S    
C12   O23   A    
O13   S3    D    
C17   S6    S    
C8    H2    S    
C15   C16   A    
C15   N3    A    
O12   Zn2   S    
O9    S2    D    
C7    C9    A    
C23   N5    S    
C32   H12   S    
C21   N2    A    
C22   N1    A    
C2    C39   A    
C22   C25   A    
O7    S1    S    
H5    N5    S    
H9    O7    S    
C18   O29   A    
C3    H20   S    
C33   H16   S    
C24   N2    A    
C14   C17   A    
N4    Zn2   S    
O18   S5    D    
H10   O10   S    
N3    Zn1   S    
C20   C29   A    
C9    H3    S    
C40   H18   S    
C22   O3    S    
C10   H4    S    
C32   C35   A    
O8    S2    D    
C4    C6    A    
C34   N6    S    
O1    Zn1   S    
C2    H19   S    
C14   S3    S    
C4    H21   S    
O17   S4    S    
C1    O1    A    
C6    C34   A    
C5    N2    S    
C6    N1    S    
C2    C4    A    
C7    H22   S    
H15   O24   S    
O27   Zn2   S    
O25   Zn2   S    
C16   S5    S    
C5    C23   A    
C31   C33   A    
C14   N4    A    
H8    N6    S    
C9    C11   A    
H11   O14   S    
O22   S6    D    
C16   N4    A    
C19   C39   S    
O19   S5    D    
O29   Zn2   S    
C8    C10   A    
C3    C40   A    
O21   S6    D    
O10   S2    S    
C18   O26   A    
C1    C13   S    
H7    N6    S    
O20   S5    S    
C19   O27   A    
C24   O4    S    
O5    S1    D    
C31   H1    S    
C30   C33   A    
C17   N3    A    
C24   C26   A    
C3    C5    A    
C10   C13   A    
C11   C12   S    
O6    S1    D    
C25   C27   A    
C21   C30   A    
C29   C35   A    
C26   C28   A    
C21   O2    S    
C35   H17   S    
C20   N1    A    
C36   C38   A    
C18   C38   S    
H6    N5    S    
C37   C39   A    
C38   C40   A    
C8    C11   A    
C12   O12   A    
C28   C30   A    
O14   S3    S    
C36   S1    S    
C15   S4    S    
O24   S6    S    
C7    C13   A    
C20   O30   S    
C1    O25   A    
C23   C36   A    
C27   C28   A    
O11   S3    D    
H13   O17   S    
C37   S2    S    
C19   O28   A    
