data_mof_unit_13208.cif
_audit_creation_date              2012-12-11T16:04:56-0500
_audit_creation_method            fapswitch 2.2
_symmetry_space_group_name_H-M    P1
_symmetry_Int_Tables_number       1
_space_group_crystal_system       triclinic
_cell_length_a                    10.641537
_cell_length_b                    10.682064
_cell_length_c                    16.872789
_cell_angle_alpha                 99.02347
_cell_angle_beta                  98.95677
_cell_angle_gamma                 61.406767
_cell_volume                      1656.02468707

loop_
_atom_site_label
_atom_site_type_symbol
_atom_type_description
_atom_site_fract_x
_atom_site_fract_y
_atom_site_fract_z
_atom_type_partial_charge
C1    C     C_R   0.382933 0.705829 0.386765 0.562199
C2    C     C_3   0.742104 0.374234 0.252222 -0.117452
C3    C     C_3   0.846857 0.333149 0.328415 0.057920
C4    C     C_3   0.942828 0.186838 0.286570 -0.134495
C5    C     C_3   0.029192 0.253702 0.259631 -0.147939
C6    C     C_3   0.931820 0.400425 0.303182 -0.115623
C7    C     C_3   0.827009 0.441864 0.226500 -0.115693
C8    C     C_3   0.923324 0.296452 0.183943 0.052343
C9    C     C_3   0.426234 0.675229 0.184727 -0.147002
C10   C     C_3   0.304147 0.695366 0.232761 -0.131792
C11   C     C_3   0.373189 0.747548 0.307680 0.051823
C12   C     C_R   0.369699 0.346124 0.359063 0.536703
C13   C     C_3   0.496173 0.726945 0.261785 -0.131349
C14   C     C_3   0.406583 0.883810 0.240921 -0.119017
C15   C     C_3   0.285492 0.903161 0.288866 -0.112863
C16   C     C_3   0.215141 0.851868 0.213331 -0.101509
C17   C     C_3   0.337308 0.831086 0.165728 0.058126
C18   C     C_3   0.464688 0.276059 0.781755 -0.132705
C19   C     C_3   0.395587 0.417383 0.741808 -0.130502
C20   C     C_3   0.346881 0.342730 0.667218 0.044992
C21   C     C_3   0.417350 0.202787 0.705860 -0.084743
C22   C     C_3   0.273047 0.249547 0.738033 0.074674
C23   C     C_R   0.783190 0.373271 0.404425 0.542565
C24   C     C_3   0.203359 0.391184 0.699012 -0.110041
C25   C     C_3   0.250827 0.464655 0.775888 -0.138764
C26   C     C_3   0.320607 0.322618 0.814063 0.052086
C27   C     C_1   0.832085 0.336709 0.707944 -0.014598
C28   C     C_1   0.876375 0.302560 0.774906 -0.008843
C29   C     C_1   0.362594 0.755508 0.715689 -0.023557
C30   C     C_1   0.331388 0.801537 0.783887 -0.016751
C31   C     C_R   0.961478 0.283547 0.102596 0.562120
C32   C     C_R   0.319598 0.299846 0.120144 0.535174
C33   C     C_R   0.296297 0.888515 0.087868 0.537570
C34   C     C_R   0.381234 0.712446 0.631391 0.565586
C35   C     C_R   0.934959 0.278781 0.855638 0.583874
C36   C     C_R   0.308225 0.293577 0.891953 0.555777
C37   C     C_R   0.284528 0.876282 0.860880 0.560112
C38   C     C_R   0.370692 0.348982 0.587541 0.552162
C39   C     C_R   0.774033 0.380214 0.629710 0.550925
C40   C     C_1   0.343283 0.335500 0.275262 -0.066982
C41   C     C_1   0.331924 0.325851 0.203930 -0.062835
C42   C     C_3   0.838865 0.228258 0.209069 -0.103896
Cr1   Cr    Cr6+3 0.608340 0.611040 0.520430 1.029085
Cr2   Cr    Cr6+3 0.287650 0.601120 0.489350 1.021439
Cr3   Cr    Cr6+3 0.604040 0.287870 0.490280 1.029211
Cr4   Cr    Cr6+3 0.054020 0.052700 0.970850 1.026193
Cr5   Cr    Cr6+3 0.059230 0.375120 0.993390 1.022024
Cr6   Cr    Cr6+3 0.374950 0.061200 0.992340 1.027911
H1    H     H_    0.623849 0.420193 0.251379 0.106909
H2    H     H_    0.448368 0.961596 0.242321 0.131421
H3    H     H_    0.233537 0.992569 0.335380 0.127899
H4    H     H_    0.098430 0.903381 0.193291 0.132919
H5    H     H_    0.450522 0.482595 0.740656 0.098910
H6    H     H_    0.571425 0.229956 0.817036 0.139726
H7    H     H_    0.183834 0.571655 0.806585 0.136349
H8    H     H_    0.800653 0.157938 0.169095 0.133294
H9    H     H_    0.984316 0.084867 0.313948 0.121301
H10   H     H_    0.147607 0.204876 0.259906 0.101759
H11   H     H_    0.970031 0.470592 0.343336 0.132432
H12   H     H_    0.781393 0.545303 0.199943 0.132574
H13   H     H_    0.260102 0.619669 0.231392 0.121193
H14   H     H_    0.483659 0.583769 0.140261 0.117383
H15   H     H_    0.609085 0.680842 0.288392 0.129390
O1    O     O_R   0.751220 0.499230 0.435170 -0.531041
O2    O     O_R   0.297880 0.469080 0.560050 -0.520135
O3    O     O_R   0.489720 0.254590 0.564810 -0.512722
O4    O     O_R   0.725220 0.304230 0.585080 -0.489930
O5    O     O_3   0.500010 0.500010 0.500020 -0.307434
O6    O     O_R   0.171830 0.913880 0.057510 -0.532468
O7    O     O_R   0.940690 0.186050 0.054730 -0.501258
O8    O     O_R   0.920470 0.405720 0.075010 -0.513312
O9    O     O_R   0.196690 0.370460 0.084120 -0.515330
O10   O     O_R   0.412990 0.180750 0.091610 -0.511968
O11   O     O_R   0.366620 0.943130 0.065760 -0.506006
O12   O     O_R   0.477220 0.727600 0.436870 -0.488290
O13   O     O_R   0.160510 0.906330 0.879210 -0.507093
O14   O     O_R   0.930190 0.179050 0.889450 -0.484199
O15   O     O_R   0.909140 0.398170 0.896710 -0.505309
O16   O     O_R   0.186190 0.363460 0.918830 -0.509951
O17   O     O_R   0.401670 0.173200 0.913310 -0.504876
O18   O     O_R   0.356120 0.936130 0.900470 -0.481709
O19   O     O_3   0.162740 0.163010 0.985530 -0.289244
O20   O     O_R   0.258650 0.745120 0.411470 -0.505188
O21   O     O_R   0.297070 0.467240 0.395960 -0.520926
O22   O     O_R   0.488830 0.252610 0.387790 -0.503100
O23   O     O_R   0.724400 0.302390 0.420980 -0.496435
O24   O     O_R   0.752100 0.501210 0.612190 -0.518874
O25   O     O_R   0.478040 0.729440 0.600970 -0.472027
O26   O     O_R   0.259530 0.747110 0.588490 -0.472908
H16   H     H_    0.485401 0.095264 0.675945 0.156451
I1    I     I_    0.186317 0.107095 0.701304 -0.385592
H17   H     H_    0.097075 0.437511 0.663277 0.143774

loop_
_geom_bond_atom_site_label_1
_geom_bond_atom_site_label_2
_ccdc_geom_bond_type
C18   C21   S    
C3    C23   S    
C2    C7    S    
C1    C11   S    
Cr5   O16   S    
C3    C6    S    
Cr4   O13   S    
C7    C8    S    
C32   O9    A    
C12   O22   A    
Cr1   O25   S    
C8    C42   S    
C5    C6    S    
C15   C16   S    
Cr6   O18   S    
C12   O21   A    
C18   C19   S    
Cr5   O19   S    
C9    C13   S    
Cr4   O6    S    
C42   H8    S    
Cr4   O19   S    
C11   C15   S    
C31   O7    A    
C38   O3    A    
C28   C35   S    
C27   C39   S    
Cr1   O5    S    
C23   O23   A    
C18   C26   S    
C4    H9    S    
Cr3   O4    S    
C32   C41   S    
C15   H3    S    
C9    C10   S    
C33   O6    A    
Cr2   O20   S    
C31   O8    A    
C21   C22   S    
C14   C17   S    
C37   O18   A    
Cr2   O2    S    
C17   C33   S    
C24   H17   S    
Cr1   O1    S    
C21   H16   S    
Cr1   O12   S    
C9    H14   S    
C1    O12   A    
Cr6   O11   S    
C24   C25   S    
C36   O17   A    
C32   O10   A    
C16   C17   S    
C25   C26   S    
C29   C34   S    
C35   O14   A    
C30   C37   S    
C12   C40   S    
Cr3   O22   S    
C29   C30   T    
C2    H1    S    
C5    C8    S    
C20   C38   S    
C13   H15   S    
C38   O2    A    
C22   I1    S    
Cr3   O5    S    
C34   O25   A    
Cr5   O8    S    
C5    H10   S    
C26   C36   S    
C23   O1    A    
C37   O13   A    
C22   C24   S    
Cr2   O5    S    
C10   H13   S    
C3    C4    S    
C7    H12   S    
Cr3   O3    S    
Cr6   O19   S    
C9    C17   S    
C40   C41   T    
C8    C31   S    
C39   O4    A    
Cr6   O10   S    
C16   H4    S    
C4    C5    S    
Cr2   O21   S    
C36   O16   A    
Cr4   O14   S    
C6    C7    S    
C1    O20   A    
C35   O15   A    
Cr1   O24   S    
Cr6   O17   S    
C19   C20   S    
C2    C3    S    
C34   O26   A    
C10   C16   S    
C11   C13   S    
C19   H5    S    
C14   H2    S    
C4    C42   S    
C2    C42   S    
C39   O24   A    
C6    H11   S    
C25   H7    S    
Cr3   O23   S    
C19   C25   S    
Cr5   O9    S    
Cr4   O7    S    
C10   C11   S    
C18   H6    S    
C33   O11   A    
C20   C21   S    
C22   C26   S    
C27   C28   T    
C14   C15   S    
Cr5   O15   S    
C13   C14   S    
C20   C24   S    
Cr2   O26   S    
