data_mof_unit_39447.cif
_audit_creation_date              2012-12-11T16:19:52-0500
_audit_creation_method            fapswitch 2.2
_symmetry_space_group_name_H-M    P1
_symmetry_Int_Tables_number       1
_space_group_crystal_system       triclinic
_cell_length_a                    13.479807
_cell_length_b                    13.985139
_cell_length_c                    30.035884
_cell_angle_alpha                 97.554903
_cell_angle_beta                  90.124052
_cell_angle_gamma                 118.457046
_cell_volume                      4921.24906678

loop_
_atom_site_label
_atom_site_type_symbol
_atom_type_description
_atom_site_fract_x
_atom_site_fract_y
_atom_site_fract_z
_atom_type_partial_charge
C1    C     C_R   0.667326 0.069391 0.572289 0.561924
C2    C     C_R   0.332300 0.642906 0.670656 0.040720
C3    C     C_R   0.271802 0.697166 0.660649 0.272630
C4    C     C_R   0.285675 0.738741 0.620206 -0.108436
C5    C     C_R   0.189977 0.540931 0.813023 -0.089341
C6    C     C_R   0.173139 0.524007 0.857678 -0.132046
C7    C     C_R   0.352764 0.524074 0.864063 -0.113055
C8    C     C_R   0.369679 0.541768 0.819513 -0.130067
C9    C     C_R   0.288585 0.550746 0.794150 0.012576
C10   C     C_1   0.308823 0.576937 0.749633 0.047630
C11   C     C_1   0.322209 0.603988 0.712966 0.097983
C12   C     C_R   0.383590 0.788481 0.551165 0.535924
C13   C     C_R   0.255366 0.517412 0.883887 0.018346
C14   C     C_3   0.274380 0.045668 0.714135 -0.160277
C15   C     C_3   0.246037 0.211029 0.712237 -0.203260
C16   C     C_3   0.242847 0.228745 0.764366 -0.210377
C17   C     C_1   0.293464 0.203553 0.875871 0.032267
C18   C     C_3   0.324326 0.161014 0.699149 -0.003920
C19   C     C_3   0.253497 0.052268 0.765230 0.168183
C20   C     C_3   0.304943 0.175589 0.786756 0.032736
C21   C     C_3   0.431135 0.236750 0.776244 -0.269240
C22   C     C_3   0.440914 0.237020 0.724976 -0.235487
C23   C     C_R   0.396799 0.119233 0.568934 0.537968
C24   C     C_1   0.299105 0.187895 0.835863 -0.015988
C25   C     C_1   0.339211 0.151296 0.650675 -0.055492
C26   C     C_1   0.360911 0.139145 0.612233 0.003768
C27   C     C_3   0.713891 0.201327 0.734471 -0.211615
C28   C     C_3   0.881600 0.168557 0.717112 0.132550
C29   C     C_3   0.910462 0.178331 0.768228 -0.208309
C30   C     C_1   0.882109 0.196967 0.881584 0.046077
C31   C     C_3   0.751346 0.122218 0.708145 0.008748
C32   C     C_3   0.758742 0.230023 0.784667 -0.258192
C33   C     C_3   0.804876 0.152413 0.795477 0.015354
C34   C     C_R   0.720188 0.095322 0.442609 0.557148
C35   C     C_3   0.708978 0.031455 0.779396 0.117307
C36   C     C_3   0.690326 0.011165 0.726998 -0.241535
C37   C     C_1   0.840808 0.175369 0.843655 0.002844
C38   C     C_1   0.719781 0.104245 0.659620 -0.014172
C39   C     C_1   0.696251 0.089809 0.619732 0.032646
C40   C     C_3   0.464065 0.713283 0.271801 -0.222613
C41   C     C_3   0.302789 0.756675 0.270720 -0.205536
C42   C     C_3   0.294613 0.737739 0.218343 0.110320
C43   C     C_1   0.306934 0.604754 0.111138 0.110174
C44   C     C_3   0.346559 0.684631 0.289599 -0.012195
C45   C     C_R   0.382289 0.784167 0.424962 0.549312
C46   C     C_3   0.455968 0.692524 0.219617 -0.185584
C47   C     C_3   0.332849 0.650495 0.200741 0.011868
C48   C     C_3   0.251914 0.541380 0.219867 0.111626
C49   C     C_3   0.263076 0.562585 0.272325 -0.208848
C50   C     C_1   0.323067 0.630118 0.151319 0.071956
C51   C     C_1   0.355915 0.706873 0.338944 -0.066743
C52   C     C_1   0.366025 0.735339 0.378945 -0.011687
C53   C     C_R   0.357060 0.134584 0.401273 0.021364
C54   C     C_R   0.416955 0.237738 0.386845 -0.123184
C55   C     C_R   0.400774 0.248884 0.342427 -0.119720
C56   C     C_R   0.396149 0.114974 0.443092 0.542469
C57   C     C_R   0.324447 0.157325 0.312383 0.032930
C58   C     C_R   0.257608 0.056795 0.327313 -0.103190
C59   C     C_R   0.273229 0.045489 0.371770 -0.132981
C60   C     C_R   0.230963 0.100795 0.150926 -0.024387
C61   C     C_R   0.223696 0.117463 0.106707 -0.085949
C62   C     C_R   0.414451 0.271859 0.117630 -0.058723
C63   C     C_R   0.421765 0.254270 0.161850 -0.034019
C64   C     C_R   0.328123 0.171902 0.178871 0.087766
C65   C     C_1   0.326888 0.166934 0.225890 0.074778
C66   C     C_1   0.324479 0.163096 0.265438 0.023321
C67   C     C_R   0.361570 0.730396 0.590199 -0.027032
C68   C     C_R   0.313239 0.206714 0.090395 0.028437
C69   C     C_R   0.784603 0.135293 0.403310 0.020265
C70   C     C_R   0.816372 0.067793 0.374929 -0.129641
C71   C     C_R   0.855614 0.095216 0.333049 -0.108285
C72   C     C_R   0.864264 0.190534 0.319355 0.028520
C73   C     C_R   0.840537 0.262095 0.348596 -0.118718
C74   C     C_R   0.801322 0.234932 0.390503 -0.120145
C75   C     C_R   0.891050 0.297684 0.168499 -0.126511
C76   C     C_R   0.893110 0.301112 0.122296 0.214339
C77   C     C_R   0.862897 0.113005 0.109613 0.203747
C78   C     C_R   0.422065 0.676668 0.600386 -0.138055
C79   C     C_R   0.872931 0.114329 0.156683 0.251402
C80   C     C_R   0.887470 0.208532 0.185804 -0.029750
C81   C     C_1   0.886657 0.210480 0.233681 0.061962
C82   C     C_1   0.880598 0.205497 0.273250 0.007535
C83   C     C_R   0.893164 0.213168 0.092829 -0.030843
C84   C     C_R   0.283133 0.233642 0.922187 0.537269
C85   C     C_R   0.236815 0.496902 0.930750 0.541176
C86   C     C_R   0.943566 0.221399 0.924016 0.550842
C87   C     C_R   0.292276 0.242792 0.049274 0.562261
C88   C     C_R   0.274923 0.558424 0.064915 0.581860
C89   C     C_R   0.406416 0.631902 0.640380 -0.146861
C90   C     C_R   0.951228 0.231759 0.050004 0.596685
Cr1   Cr    Cr6+3 0.583400 0.162540 0.509180 1.046840
Cr2   Cr    Cr6+3 0.584070 0.916690 0.495550 1.029154
Cr3   Cr    Cr6+3 0.332550 0.920810 0.495240 1.031194
Cr4   Cr    Cr6+3 0.086700 0.177000 0.983690 1.135278
Cr5   Cr    Cr6+3 0.336880 0.419130 0.994740 1.066722
Cr6   Cr    Cr6+3 0.084850 0.422220 0.995960 1.134883
H1    H     H_    0.096051 0.516114 0.871662 0.141456
H2    H     H_    0.195387 0.987707 0.692980 0.215206
H3    H     H_    0.277805 0.291253 0.699702 0.157853
H4    H     H_    0.159212 0.155592 0.696233 0.190068
H5    H     H_    0.153871 0.194405 0.773548 0.168209
H6    H     H_    0.284773 0.318448 0.777041 0.107079
H7    H     H_    0.502431 0.209935 0.713321 0.117487
H8    H     H_    0.477065 0.195985 0.788684 0.112021
H9    H     H_    0.334487 0.012629 0.707805 0.118985
H10   H     H_    0.298261 0.015343 0.781722 0.145292
H11   H     H_    0.126725 0.547681 0.793433 0.185854
H12   H     H_    0.472821 0.323222 0.793822 0.136302
H13   H     H_    0.741003 0.277289 0.719141 0.197401
H14   H     H_    0.905578 0.109241 0.698486 0.139071
H15   H     H_    0.979627 0.262078 0.781740 0.120900
H16   H     H_    0.943690 0.121386 0.773294 0.184254
H17   H     H_    0.597872 0.968985 0.717156 0.111810
H18   H     H_    0.629335 0.023645 0.793271 0.113281
H19   H     H_    0.620291 0.158255 0.732987 0.090987
H20   H     H_    0.514591 0.769209 0.206656 0.222869
H21   H     H_    0.525456 0.801138 0.283956 0.145637
H22   H     H_    0.359500 0.844575 0.284593 0.160450
H23   H     H_    0.241306 0.782971 0.613122 0.174050
H24   H     H_    0.178420 0.540233 0.285059 0.098714
H25   H     H_    0.497222 0.662547 0.285095 0.148230
H26   H     H_    0.485587 0.632630 0.207703 0.191080
H27   H     H_    0.163289 0.517700 0.208748 0.118289
H28   H     H_    0.144733 0.065427 0.086519 0.175348
H29   H     H_    0.198371 0.985650 0.304007 0.145580
H30   H     H_    0.481557 0.307839 0.408954 0.133264
H31   H     H_    0.482011 0.670600 0.577802 0.141688
H32   H     H_    0.497584 0.309060 0.183498 0.145663
H33   H     H_    0.484795 0.340835 0.105902 0.160526
H34   H     H_    0.452447 0.327032 0.330896 0.122140
H35   H     H_    0.893834 0.365899 0.191341 0.169363
H36   H     H_    0.804550 0.990665 0.383837 0.137438
H37   H     H_    0.446086 0.549131 0.804985 0.142576
H38   H     H_    0.873031 0.038949 0.310363 0.157924
H39   H     H_    0.416426 0.516390 0.882972 0.154842
O1    O     O_R   0.494060 0.188820 0.559230 -0.509491
O2    O     O_R   0.480140 0.824500 0.445020 -0.494795
O3    O     O_R   0.308480 0.808690 0.440220 -0.505828
O4    O     O_R   0.340970 0.020670 0.455610 -0.499182
O5    O     O_3   0.500010 0.000010 0.499990 -0.276545
O6    O     O_R   0.969690 0.151000 0.934080 -0.451470
O7    O     O_R   0.187530 0.180840 0.938210 -0.475411
O8    O     O_R   0.358160 0.327300 0.941250 -0.525882
O9    O     O_R   0.323950 0.507710 0.953980 -0.493734
O10   O     O_R   0.170530 0.527770 0.952070 -0.490661
O11   O     O_R   0.987720 0.318450 0.945940 -0.527068
O12   O     O_R   0.678470 0.153390 0.554100 -0.465851
O13   O     O_R   0.976400 0.159230 0.032040 -0.452048
O14   O     O_R   0.193740 0.188470 0.029020 -0.498359
O15   O     O_R   0.364860 0.335530 0.039220 -0.494721
O16   O     O_R   0.330170 0.515340 0.044800 -0.486661
O17   O     O_R   0.177230 0.536000 0.050040 -0.443987
O18   O     O_R   0.993930 0.326080 0.036750 -0.434054
O19   O     O_3   0.169480 0.339450 0.991460 -0.310289
O20   O     O_R   0.697870 0.003940 0.549410 -0.492444
O21   O     O_R   0.480980 0.827230 0.535590 -0.517268
O22   O     O_R   0.309390 0.811640 0.537920 -0.506793
O23   O     O_R   0.341810 0.023400 0.546180 -0.494690
O24   O     O_R   0.493150 0.185870 0.461540 -0.517135
O25   O     O_R   0.677630 0.150660 0.463530 -0.494761
O26   O     O_R   0.696960 0.000990 0.451710 -0.508792
H40   H     H_    0.473897 0.322482 0.717551 0.144782
H41   H     H_    0.826438 0.317265 0.791950 0.172837
S1    S     S_3+6 0.966636 0.298588 0.697292 0.009365
O27   O     O_2   0.932126 0.292902 0.649023 -0.206077
O28   O     O_2   0.954302 0.388608 0.725575 -0.295619
O29   O     O_3   0.103193 0.329366 0.700678 -0.524337
H42   H     H_    0.126836 0.349492 0.733251 0.321929
H43   H     H_    0.722870 0.955583 0.711751 0.181520
S2    S     S_3+6 0.185068 0.721752 0.699416 0.021317
O30   O     O_2   0.257947 0.796593 0.740507 -0.302780
O31   O     O_2   0.124940 0.774210 0.678883 -0.275993
O32   O     O_3   0.088789 0.602253 0.714332 -0.444431
H44   H     H_    0.044091 0.622306 0.736031 0.381478
H45   H     H_    0.689133 0.221864 0.806393 0.110979
S3    S     S_3+6 0.727059 0.924041 0.799171 0.024654
O33   O     O_2   0.833117 0.925346 0.783392 -0.181950
O34   O     O_2   0.732176 0.937311 0.849731 -0.236654
O35   O     O_3   0.616097 0.801667 0.778470 -0.511801
H46   H     H_    0.548925 0.805275 0.789941 0.341194
H47   H     H_    0.217693 0.736041 0.282609 0.103010
S4    S     S_3+6 0.368410 0.868127 0.197516 -0.000805
O36   O     O_2   0.371962 0.851521 0.147226 -0.211151
O37   O     O_2   0.305128 0.930998 0.209191 -0.315476
O38   O     O_3   0.501741 0.942548 0.221190 -0.530725
H48   H     H_    0.499144 0.994786 0.246241 0.344741
H49   H     H_    0.204103 0.703172 0.206450 0.130168
H50   H     H_    0.293214 0.510448 0.286384 0.164132
S5    S     S_3+6 0.268488 0.422232 0.199705 -0.041841
O39   O     O_2   0.260629 0.400910 0.149161 -0.275282
O40   O     O_2   0.380285 0.437558 0.217437 -0.339084
O41   O     O_3   0.163745 0.311246 0.217704 -0.500151
H51   H     H_    0.189218 0.313251 0.248928 0.345092
H52   H     H_    0.158555 0.036407 0.164002 0.187899
H53   H     H_    0.225945 0.965022 0.381918 0.135687
S6    S     S_3+6 0.884702 0.411993 0.103519 0.035862
O42   O     O_2   0.001735 0.507423 0.104437 -0.256988
O43   O     O_2   0.828617 0.378675 0.056614 -0.255330
O44   O     O_3   0.808481 0.450708 0.138368 -0.535456
H54   H     H_    0.808977 0.513765 0.126520 0.382068
H55   H     H_    0.846303 0.335655 0.338051 0.114328
H56   H     H_    0.777903 0.288800 0.411668 0.134082
S7    S     S_3+6 0.872245 0.002443 0.179732 0.078084
O45   O     O_2   0.904216 0.934129 0.146205 -0.183957
O46   O     O_2   0.955563 0.044983 0.220214 -0.311872
O47   O     O_3   0.742096 0.922058 0.195441 -0.460737
H57   H     H_    0.732416 0.966511 0.221851 0.341725
S8    S     S_3+6 0.794578 0.986178 0.072036 0.103943
O48   O     O_2   0.741779 0.000913 0.031126 -0.255565
O49   O     O_2   0.879430 0.949609 0.057539 -0.233154
O50   O     O_3   0.692074 0.888794 0.097412 -0.425386
H58   H     H_    0.661396 0.820898 0.075037 0.369925
H59   H     H_    0.454073 0.591252 0.648227 0.137013
S9    S     S_3+6 0.104483 0.970528 0.773445 0.039889
O51   O     O_2   0.076841 0.006427 0.818943 -0.246925
O52   O     O_2   0.033591 0.980987 0.737650 -0.298156
O53   O     O_3   0.072450 0.837979 0.769998 -0.439136
H60   H     H_    0.989173 0.797096 0.771028 0.386266

loop_
_geom_bond_atom_site_label_1
_geom_bond_atom_site_label_2
_ccdc_geom_bond_type
Cr2   O26   S    
C42   H49   S    
C15   C18   S    
S7    O45   D    
C32   H41   S    
Cr5   O8    S    
S5    O41   S    
C41   C42   S    
C14   C18   S    
C29   H16   S    
C35   C36   S    
C57   C66   S    
C34   O26   A    
C48   H27   S    
Cr1   O12   S    
C81   C82   T    
C53   C59   A    
C60   H52   S    
C7    C8    A    
C53   C54   A    
C42   S4    S    
Cr4   O14   S    
C40   C46   S    
Cr6   O10   S    
C54   H30   S    
C36   H43   S    
C23   O1    A    
C61   H28   S    
Cr3   O4    S    
C35   S3    S    
C28   C29   S    
C85   O10   A    
C56   O24   A    
C69   C70   A    
C5    H11   S    
C5    C6    A    
C22   H40   S    
S9    O52   D    
C49   H24   S    
S2    O30   D    
C36   H17   S    
C15   C16   S    
Cr6   O17   S    
C23   O23   A    
C29   C33   S    
S6    O42   D    
C78   H31   S    
C85   O9    A    
C35   H18   S    
S5    O40   D    
C32   C33   S    
C73   C74   A    
C23   C26   S    
C1    O20   A    
S4    O36   D    
C90   O13   A    
Cr3   O3    S    
C76   S6    S    
C33   C35   S    
C46   C47   S    
C21   H8    S    
S3    O35   S    
Cr6   O19   S    
Cr1   O1    S    
C20   C24   S    
C8    C9    A    
C87   O15   A    
C47   C48   S    
C4    H23   S    
C70   C71   A    
C41   H22   S    
C30   C86   S    
C75   C80   A    
C15   H4    S    
Cr1   O24   S    
C63   H32   S    
C16   C20   S    
C72   C73   A    
C7    C13   A    
S3    O34   D    
C40   H21   S    
C27   C32   S    
Cr5   O9    S    
C21   C22   S    
C88   O17   A    
C62   H33   S    
C41   H47   S    
S5    O39   D    
C18   C25   S    
C12   O21   A    
S6    O44   S    
Cr2   O2    S    
C86   O11   A    
C76   C83   A    
C45   O2    A    
C32   H45   S    
C75   H35   S    
C14   H2    S    
C47   C50   S    
C77   C79   A    
C78   C89   A    
Cr4   O13   S    
C12   C67   S    
C17   C24   T    
C27   C31   S    
C51   C52   T    
Cr4   O7    S    
C6    H1    S    
S7    O47   S    
S6    O43   D    
C10   C11   T    
C77   S8    S    
O29   H42   S    
C56   O4    A    
O47   H57   S    
S8    O48   D    
C74   H56   S    
C84   O8    A    
C28   H14   S    
C25   C26   T    
O32   H44   S    
C73   H55   S    
C44   C49   S    
C33   C37   S    
C22   H7    S    
C63   C64   A    
C30   C37   T    
C60   C61   A    
S4    O38   S    
C2    C89   A    
C75   C76   A    
C7    H39   S    
C62   C63   A    
C40   H25   S    
S7    O46   D    
O50   H58   S    
C84   O7    A    
Cr4   O19   S    
C55   H34   S    
C70   H36   S    
C48   S5    S    
C69   C74   A    
Cr2   O21   S    
Cr5   O15   S    
C90   O18   A    
Cr3   O22   S    
Cr1   O5    S    
C34   C69   S    
Cr1   O25   S    
C44   C51   S    
C16   H6    S    
S3    O33   D    
O53   H60   S    
C79   S7    S    
C55   C57   A    
C3    S2    S    
C12   O22   A    
C88   O16   A    
C1    O12   A    
Cr5   O16   S    
C43   C88   S    
C3    C4    A    
Cr2   O5    S    
C28   S1    S    
C89   H59   S    
C9    C10   S    
C53   C56   S    
C83   C90   S    
C54   C55   A    
S1    O27   D    
C8    H37   S    
C18   C22   S    
Cr4   O6    S    
C14   C19   S    
C29   H15   S    
C28   C31   S    
C15   H3    S    
C80   C81   S    
S9    O53   S    
C4    C67   A    
C43   C50   T    
Cr6   O18   S    
C62   C68   A    
O35   H46   S    
Cr6   O11   S    
O38   H48   S    
C45   C52   S    
C31   C38   S    
C46   H20   S    
C60   C64   A    
C17   C84   S    
C59   H53   S    
O41   H51   S    
Cr5   O19   S    
C19   C20   S    
S1    O28   D    
C2    C3    A    
C58   C59   A    
C71   C72   A    
Cr3   O5    S    
C64   C65   S    
C71   H38   S    
C61   C68   A    
C57   C58   A    
C38   C39   T    
C49   H50   S    
S2    O31   D    
S8    O50   S    
C48   C49   S    
S9    O51   D    
C45   O3    A    
C41   C44   S    
Cr2   O20   S    
O44   H54   S    
C42   C47   S    
S1    O29   S    
Cr3   O23   S    
S4    O37   D    
C21   H12   S    
C67   C78   A    
C1    C39   S    
C79   C80   A    
C19   H10   S    
C16   H5    S    
C40   C44   S    
C20   C21   S    
C27   H13   S    
C58   H29   S    
S8    O49   D    
C65   C66   T    
C87   O14   A    
C13   C85   S    
C68   C87   S    
C77   C83   A    
C31   C36   S    
C46   H26   S    
C2    C11   S    
C5    C9    A    
C14   H9    S    
C19   S9    S    
C72   C82   S    
C86   O6    A    
C34   O25   A    
C6    C13   A    
S2    O32   S    
C27   H19   S    
