data_mof_unit_15462.cif
_audit_creation_date              2012-10-26T21:07:30-0400
_audit_creation_method            fapswitch 2.2
_symmetry_space_group_name_H-M    P1
_symmetry_Int_Tables_number       1
_space_group_crystal_system       triclinic
_cell_length_a                    9.895757
_cell_length_b                    10.927653
_cell_length_c                    17.333256
_cell_angle_alpha                 93.997659
_cell_angle_beta                  86.308295
_cell_angle_gamma                 90.084131
_cell_volume                      1865.92413315

loop_
_atom_site_label
_atom_site_type_symbol
_atom_type_description
_atom_site_fract_x
_atom_site_fract_y
_atom_site_fract_z
_atom_type_partial_charge
C1    C     C_R   0.500004 0.734184 0.503792 0.567556
C2    C     C_R   0.526840 0.491550 0.267466 0.049544
C3    C     C_2   0.607077 0.060328 0.473655 0.266986
C4    C     C_R   0.482728 0.498252 0.649684 0.533418
C5    C     C_2   0.496663 0.132499 0.483157 -0.052568
C6    C     C_2   0.585330 0.925534 0.460279 0.255530
C7    C     C_2   0.503906 0.868572 0.512120 0.232097
C8    C     C_2   0.071345 0.574791 0.543138 0.486834
C9    C     C_2   0.923009 0.590531 0.527286 0.475830
C10   C     C_R   0.500135 0.265562 0.495701 0.550342
C11   C     C_R   0.517601 0.499221 0.351140 0.570594
C12   C     C_R   0.352605 0.468983 0.775130 -0.199903
C13   C     C_R   0.474941 0.498093 0.734925 0.017892
C14   C     C_R   0.589264 0.526962 0.777498 0.262266
C15   C     C_R   0.574419 0.543016 0.857866 -0.081414
C16   C     C_R   0.452023 0.514850 0.897532 0.021801
C17   C     C_R   0.341429 0.476390 0.855846 -0.144810
C18   C     C_3   0.784798 0.425401 0.742682 -0.107387
C19   C     C_3   0.824104 0.046519 0.512806 -0.102654
C20   C     C_3   0.680194 0.921729 0.333518 -0.121629
C21   C     C_3   0.344949 0.875521 0.618931 -0.108727
C22   C     C_3   0.093050 0.597801 0.672783 -0.162019
C23   C     C_R   0.512419 0.590308 0.148353 -0.125833
C24   C     C_3   0.161312 0.348420 0.406851 0.014064
C25   C     C_3   0.833881 0.752334 0.605951 -0.123434
C26   C     C_3   0.869737 0.343783 0.412755 0.034534
C27   C     C_3   0.708319 0.225781 0.242539 -0.158564
C28   C     C_3   0.768892 0.425096 0.001421 -0.150746
C29   C     C_3   0.295295 0.685566 0.000818 -0.147269
C30   C     C_R   0.505517 0.597003 0.228798 -0.169338
C31   C     C_R   0.557437 0.378896 0.226252 0.247958
C32   C     C_R   0.556083 0.371434 0.145294 -0.099934
C33   C     C_R   0.534748 0.476919 0.106295 0.025702
C34   C     C_2   0.442333 0.521128 0.983292 0.282042
C35   C     C_2   0.540569 0.468278 0.020711 0.276178
Cu1   Cu    Cu3+1 0.361370 0.499980 0.499980 1.011561
Cu2   Cu    Cu3+1 0.638630 0.500020 0.500020 1.064325
H1    H     H_    0.246899 0.451670 0.885775 0.138928
H2    H     H_    0.396761 0.091331 0.480232 0.073865
H3    H     H_    0.771817 0.979023 0.340455 0.149823
H4    H     H_    0.591745 0.977972 0.320497 0.114723
H5    H     H_    0.702276 0.855676 0.282743 0.131575
H6    H     H_    0.383032 0.791634 0.643347 0.140512
H7    H     H_    0.259644 0.854886 0.581454 0.183544
H8    H     H_    0.304965 0.937527 0.668512 0.132569
H9    H     H_    0.105985 0.496316 0.669028 0.109446
H10   H     H_    0.988503 0.621504 0.695216 0.116963
H11   H     H_    0.161931 0.638032 0.715683 0.141201
H12   H     H_    0.266538 0.437248 0.744360 0.121865
H13   H     H_    0.133138 0.284613 0.452552 0.126466
H14   H     H_    0.268476 0.337473 0.389413 0.174950
H15   H     H_    0.116271 0.315957 0.352309 0.052861
H16   H     H_    0.786519 0.680441 0.640750 0.174588
H17   H     H_    0.756200 0.824825 0.604244 0.136006
H18   H     H_    0.921135 0.795492 0.634269 0.129117
H19   H     H_    0.906910 0.407391 0.368779 0.125144
H20   H     H_    0.763878 0.328688 0.402373 0.199213
H21   H     H_    0.915933 0.251853 0.399485 0.090792
H22   H     H_    0.485096 0.684387 0.260926 0.128645
H23   H     H_    0.722589 0.346262 0.721585 0.141483
H24   H     H_    0.787667 0.297271 0.234763 0.101439
H25   H     H_    0.702732 0.165306 0.188630 0.117437
H26   H     H_    0.740681 0.168762 0.288321 0.125584
H27   H     H_    0.789728 0.382036 0.055584 0.125892
H28   H     H_    0.784720 0.526158 0.008413 0.100494
H29   H     H_    0.844156 0.387969 0.955585 0.137748
H30   H     H_    0.500116 0.673417 0.118968 0.129774
H31   H     H_    0.243138 0.676351 0.945895 0.122306
H32   H     H_    0.386184 0.745256 0.994485 0.097633
H33   H     H_    0.224086 0.732269 0.045407 0.144909
H34   H     H_    0.816539 0.411769 0.801884 0.117736
H35   H     H_    0.660746 0.573599 0.889292 0.127868
H36   H     H_    0.876951 0.426003 0.703005 0.120883
H37   H     H_    0.571949 0.283864 0.112721 0.137977
H38   H     H_    0.850502 0.955432 0.483264 0.182882
H39   H     H_    0.780958 0.037195 0.573015 0.121475
H40   H     H_    0.919622 0.099132 0.516939 0.137183
N1    N     N_2   0.152990 0.501340 0.500850 -0.039102
N2    N     N_2   0.846850 0.501370 0.500880 -0.052032
O1    O     O_R   0.382960 0.678040 0.499990 -0.497584
O2    O     O_3   0.735712 0.111641 0.469830 -0.581564
O3    O     O_3   0.653230 0.854935 0.399407 -0.566626
O4    O     O_3   0.449683 0.936694 0.578410 -0.647679
O5    O     O_3   0.124722 0.648821 0.601391 -0.603473
O6    O     O_3   0.116196 0.470429 0.428348 -0.489545
O7    O     O_3   0.872755 0.709093 0.529328 -0.565083
O8    O     O_3   0.899453 0.387635 0.489124 -0.502681
O9    O     O_3   0.579880 0.276256 0.266420 -0.588158
O10   O     O_3   0.637969 0.394671 0.978313 -0.601352
O11   O     O_3   0.327774 0.569415 0.025579 -0.588429
O12   O     O_R   0.617100 0.678080 0.500010 -0.445392
O13   O     O_R   0.369350 0.500000 0.613580 -0.508831
O14   O     O_R   0.603500 0.500040 0.613610 -0.474312
O15   O     O_R   0.382900 0.321920 0.499990 -0.558627
O16   O     O_R   0.617040 0.321960 0.500010 -0.450343
O17   O     O_R   0.396500 0.499960 0.386390 -0.498364
O18   O     O_R   0.630650 0.500000 0.386420 -0.519687
O19   O     O_3   0.716522 0.538605 0.741376 -0.595463

loop_
_geom_bond_atom_site_label_1
_geom_bond_atom_site_label_2
_ccdc_geom_bond_type
C11   O17   A    
C24   H15   S    
C7    O4    S    
C6    O3    S    
C20   O3    S    
C22   H11   S    
C3    C6    S    
Cu2   O18   S    
C12   H12   S    
C15   H35   S    
Cu2   N2    S    
C10   O16   A    
C19   H39   S    
C25   H16   S    
C32   H37   S    
C20   H3    S    
C10   O15   A    
C15   C16   A    
C21   H7    S    
Cu2   O16   S    
C34   C35   D    
C9    N2    D    
C23   H30   S    
C4    C13   S    
C19   H40   S    
C27   H24   S    
C16   C34   S    
C21   H6    S    
C21   O4    S    
C8    C9    S    
C23   C33   A    
C12   C17   A    
C3    O2    S    
C14   O19   S    
C28   O10   S    
C24   O6    S    
C29   H32   S    
Cu1   O13   S    
C24   H14   S    
C22   H10   S    
C1    O12   A    
C8    O5    S    
C13   C14   A    
C8    N1    D    
C2    C11   S    
N2    O8    S    
C29   O11   S    
C20   H4    S    
C21   H8    S    
C24   H13   S    
Cu2   O12   S    
C23   C30   A    
C25   H17   S    
Cu1   O1    S    
C16   C17   A    
C2    C31   A    
C22   O5    S    
C28   H29   S    
C34   O11   S    
C27   H25   S    
C9    O7    S    
C29   H31   S    
Cu1   O17   S    
C31   C32   A    
C30   H22   S    
Cu2   O14   S    
C26   H21   S    
C27   H26   S    
C35   O10   S    
N1    O6    S    
C18   H23   S    
C22   H9    S    
C18   H36   S    
C5    H2    S    
C28   H27   S    
C29   H33   S    
C18   H34   S    
Cu1   Cu2   S    
C31   O9    S    
C1    C7    S    
C25   H18   S    
C3    C5    D    
C26   H19   S    
C20   H5    S    
C6    C7    D    
C2    C30   A    
C11   O18   A    
C32   C33   A    
C19   H38   S    
C28   H28   S    
C5    C10   S    
Cu1   N1    S    
C26   O8    S    
C25   O7    S    
C33   C35   S    
C17   H1    S    
C27   O9    S    
C26   H20   S    
C4    O14   A    
Cu1   O15   S    
C12   C13   A    
C1    O1    A    
C14   C15   A    
C18   O19   S    
C19   O2    S    
C4    O13   A    
