data_mof_unit_27053.cif
_audit_creation_date              2013-03-05T16:48:17-0500
_audit_creation_method            fapswitch 2.2
_symmetry_space_group_name_H-M    P1
_symmetry_Int_Tables_number       1
_space_group_crystal_system       triclinic
_cell_length_a                    23.564651
_cell_length_b                    8.921579
_cell_length_c                    8.076795
_cell_angle_alpha                 89.905859
_cell_angle_beta                  89.950004
_cell_angle_gamma                 89.993505
_cell_volume                      1698.0131269

loop_
_atom_site_label
_atom_site_type_symbol
_atom_site_description
_atom_site_fract_x
_atom_site_fract_y
_atom_site_fract_z
_atom_type_partial_charge
O1    O     O_R   0.500000 0.285350 0.636850 -0.616471
O2    O     O_R   0.500000 0.714650 0.363150 -0.611882
O3    O     O_R   0.500000 0.714650 0.636850 -0.614441
O4    O     O_R   0.500000 0.285350 0.363150 -0.618678
H1    H     H_    0.949378 0.124709 0.565501 0.191722
H2    H     H_    0.049681 0.875772 0.427882 0.191405
H3    H     H_    0.946586 0.871866 0.417259 0.194006
H4    H     H_    0.052422 0.125376 0.549651 0.193091
C1    C     C_R   0.500008 0.217896 0.500089 0.929539
C2    C     C_R   0.499826 0.782097 0.499911 0.931655
O5    O     O_R   0.416160 0.500000 0.636910 -0.633326
O6    O     O_R   0.583840 0.500000 0.363090 -0.616380
O7    O     O_R   0.583840 0.500000 0.636910 -0.631631
O8    O     O_R   0.416160 0.500000 0.363090 -0.585688
C3    C     C_R   0.207030 0.504626 0.493783 0.054481
C4    C     C_R   0.792062 0.495897 0.498802 0.050308
C5    C     C_R   0.388746 0.500591 0.500323 0.903184
C6    C     C_R   0.611031 0.499660 0.499999 0.890425
Zn1   Zn    Zn3+2 0.500000 0.500000 0.682780 0.965801
Zn2   Zn    Zn3+2 0.500000 0.500000 0.317220 0.983156
C7    C     C_R   0.296944 0.556460 0.357625 0.139707
C8    C     C_R   0.702922 0.420365 0.373301 0.139914
C9    C     C_R   0.294808 0.453686 0.640766 0.120965
C10   C     C_R   0.703681 0.576137 0.624702 0.133477
C11   C     C_R   0.326014 0.504290 0.500516 -0.202659
C12   C     C_R   0.673351 0.497848 0.500033 -0.220320
C13   C     C_R   0.880311 0.627828 0.461223 0.488534
C14   C     C_R   0.118536 0.368525 0.499775 0.490844
C15   C     C_R   0.881342 0.366333 0.528296 0.489475
C16   C     C_R   0.117559 0.636137 0.478654 0.494622
N1    N     N_R   0.852718 0.496619 0.496304 -0.372331
N2    N     N_R   0.146266 0.503093 0.489947 -0.371397
C17   C     C_R   0.940486 0.363607 0.520736 -0.014049
C18   C     C_R   0.058420 0.636728 0.470637 -0.015776
C19   C     C_R   0.939472 0.632717 0.463125 -0.015324
C20   C     C_R   0.059399 0.364839 0.507035 -0.014577
C21   C     C_R   0.969663 0.498756 0.490782 -0.022865
C22   C     C_R   0.029214 0.500071 0.489200 -0.022858
C23   C     C_R   0.970967 0.229860 0.542535 -0.156005
C24   C     C_R   0.027987 0.769989 0.445241 -0.155871
C25   C     C_R   0.968971 0.767655 0.438891 -0.154838
C26   C     C_R   0.029952 0.230134 0.533106 -0.155327
C27   C     C_1   0.499922 0.065182 0.500138 -0.198180
C28   C     C_1   0.499852 0.934803 0.499881 -0.204601
C29   C     C_R   0.237265 0.549742 0.351696 -0.006968
C30   C     C_R   0.762531 0.423685 0.370062 0.008528
C31   C     C_R   0.235283 0.461261 0.639852 0.014963
C32   C     C_R   0.763189 0.567272 0.629755 0.004763
N3    N     N_1   0.500000 0.500000 0.073640 -0.043380
N4    N     N_1   0.500000 0.500000 0.926360 -0.046622
O9    O     O_2   0.850368 0.752980 0.426457 -0.514865
O10   O     O_2   0.148315 0.239306 0.504500 -0.517660
O11   O     O_2   0.852448 0.240192 0.566169 -0.518763
O12   O     O_2   0.146333 0.766942 0.474921 -0.512910
C33   C     C_2   0.204885 0.588202 0.198857 0.517474
H5    H     H_    0.165412 0.530461 0.172144 0.067070
O13   O     O_2   0.220106 0.688032 0.105401 -0.572112
C34   C     C_2   0.795297 0.350991 0.233956 0.534712
H6    H     H_    0.836962 0.393118 0.200512 0.043355
O14   O     O_2   0.777258 0.241003 0.161325 -0.514532
C35   C     C_2   0.201296 0.427458 0.791782 0.530953
H7    H     H_    0.158505 0.470949 0.804028 0.045368
O15   O     O_2   0.219839 0.349718 0.903852 -0.559526
C36   C     C_2   0.796372 0.629106 0.772272 0.504222
H8    H     H_    0.841876 0.612404 0.779267 0.055951
O16   O     O_2   0.773763 0.697094 0.885612 -0.538814
N5    N     N_2   0.328313 0.611405 0.219047 -0.275230
H9    H     H_    0.314116 0.578217 0.104271 0.259311
C37   C     C_3   0.344083 0.767964 0.228806 -0.627398
H10   H     H_    0.305708 0.840197 0.227636 0.272381
H11   H     H_    0.371194 0.797612 0.121125 0.221442
H12   H     H_    0.368562 0.789956 0.343725 0.213017
N6    N     N_2   0.673165 0.337009 0.250009 -0.255452
H13   H     H_    0.638908 0.274098 0.288653 0.232878
C38   C     C_3   0.667365 0.406990 0.088692 -0.625629
H14   H     H_    0.678398 0.324467 0.991194 0.251393
H15   H     H_    0.695769 0.505807 0.075147 0.245990
H16   H     H_    0.622880 0.443569 0.068960 0.220226
N7    N     N_2   0.322241 0.394609 0.783923 -0.264017
H17   H     H_    0.349223 0.465713 0.846003 0.243745
C39   C     C_3   0.340407 0.240035 0.772042 -0.606109
H18   H     H_    0.374474 0.227624 0.678085 0.205924
H19   H     H_    0.304000 0.167339 0.737710 0.263852
H20   H     H_    0.356912 0.202211 0.893849 0.226085
N8    N     N_2   0.675325 0.670659 0.740495 -0.260659
H21   H     H_    0.646256 0.620075 0.817457 0.246367
C40   C     C_3   0.658642 0.815904 0.677348 -0.614664
H22   H     H_    0.625609 0.803828 0.580404 0.197821
H23   H     H_    0.696014 0.875127 0.624595 0.265247
H24   H     H_    0.641185 0.884730 0.779844 0.231436

loop_
_geom_bond_atom_site_label_1
_geom_bond_atom_site_label_2
_geom_bond_distance
_ccdc_geom_bond_type
C33   H5    1.085342 S    
N6    H13   1.031115 S    
C20   C26   1.403293 A    
C6    C12   1.468639 S    
C2    C28   1.362380 S    
C3    C31   1.408765 A    
C40   H22   1.109948 S    
C4    C32   1.409939 A    
C39   H18   1.109862 S    
C3    N2    1.432296 S    
N8    H21   1.028442 S    
C4    N1    1.429480 S    
C16   O12   1.350021 S    
O5    Zn1   2.010417 S    
Zn2   N3    1.967346 S    
O7    C6    1.277550 A    
C18   C24   1.403247 A    
C19   C21   1.408417 A    
H4    C26   1.082273 S    
C32   C36   1.498153 S    
C34   O14   1.220706 D    
C15   C17   1.395203 A    
C37   H11   1.110338 S    
C35   O15   1.220589 D    
O3    Zn1   1.950018 S    
C10   N8    1.426055 S    
C9    C11   1.422917 A    
C7    N5    1.426983 S    
N6    C38   1.450408 S    
O8    C5    1.282447 A    
C35   H7    1.084898 S    
C39   H19   1.111149 S    
C13   O9    1.350024 S    
C23   C26   1.391977 A    
C7    C29   1.408467 A    
N8    C40   1.446334 S    
C1    C27   1.362449 S    
C9    C31   1.404326 A    
O7    Zn1   2.009780 S    
C13   N1    1.368253 A    
N5    H9    1.029767 S    
C10   C32   1.405153 A    
O8    Zn2   2.009782 S    
C14   N2    1.369090 A    
O1    C1    1.258756 A    
C4    C30   1.408572 A    
N7    C39   1.447228 S    
C16   C18   1.395161 A    
C13   C19   1.394885 A    
C34   H6    1.085103 S    
O1    Zn1   1.951215 S    
O2    Zn2   1.951215 S    
C17   C21   1.408548 A    
N5    C37   1.447673 S    
C36   O16   1.220924 D    
C37   H12   1.110994 S    
C38   H14   1.109618 S    
C21   C22   1.403382 A    
O6    Zn2   2.010415 S    
C17   C23   1.403587 A    
C38   H15   1.112141 S    
C14   C20   1.395121 A    
C24   C25   1.391846 A    
C8    C30   1.405203 A    
H1    C23   1.082889 S    
C27   C28   1.163190 T    
H2    C24   1.082218 S    
C3    C29   1.408462 A    
O2    C2    1.258731 A    
C39   H20   1.110215 S    
C7    C11   1.420346 A    
O5    C5    1.278901 A    
C18   C22   1.407829 A    
C10   C12   1.419939 A    
C31   C35   1.495089 S    
C5    C11   1.478622 S    
C36   H8    1.084093 S    
C33   O13   1.220256 D    
C15   N1    1.368197 A    
O3    C2    1.258258 A    
C16   N2    1.369084 A    
C14   O10   1.350049 S    
Zn1   N4    1.967346 S    
C15   O11   1.349931 S    
C20   C22   1.407738 A    
H3    C25   1.082913 S    
C37   H10   1.110399 S    
C19   C25   1.403559 A    
C38   H16   1.109440 S    
N7    H17   1.029458 S    
O4    Zn2   1.950019 S    
C29   C33   1.491311 S    
N3    N4    1.189550 T    
C8    C12   1.418492 A    
C40   H24   1.110224 S    
O6    C6    1.278501 A    
C40   H23   1.111299 S    
C8    N6    1.428332 S    
C9    N7    1.425414 S    
O4    C1    1.258282 A    
C30   C34   1.491978 S    
