data_mof_unit_12018.cif
_audit_creation_date              2012-12-11T16:08:27-0500
_audit_creation_method            fapswitch 2.2
_symmetry_space_group_name_H-M    P1
_symmetry_Int_Tables_number       1
_space_group_crystal_system       triclinic
_cell_length_a                    19.868466
_cell_length_b                    19.907437
_cell_length_c                    19.905815
_cell_angle_alpha                 110.694604
_cell_angle_beta                  107.088483
_cell_angle_gamma                 110.744299
_cell_volume                      6046.3728952

loop_
_atom_site_label
_atom_site_type_symbol
_atom_type_description
_atom_site_fract_x
_atom_site_fract_y
_atom_site_fract_z
_atom_type_partial_charge
C1    C     C_R   0.667106 0.930153 0.960386 -0.190055
C2    C     C_3   0.548432 0.543040 0.009979 -0.360638
C3    C     C_3   0.664708 0.633856 0.127245 -0.333139
C4    C     C_3   0.511030 0.501183 0.052284 -0.358123
C5    C     C_1   0.544665 0.728553 0.046665 -0.045099
C6    C     C_1   0.568814 0.358688 0.070026 -0.049192
C7    C     C_3   0.546568 0.587305 0.126184 0.678379
C8    C     C_3   0.628771 0.546846 0.053186 0.682196
C9    C     C_3   0.583166 0.629237 0.084529 0.040914
C10   C     C_3   0.592068 0.504839 0.094747 0.045144
C11   C     C_1   0.566485 0.687976 0.068346 0.039382
C12   C     C_R   0.343453 0.071310 0.072854 -0.186556
C13   C     C_1   0.585083 0.427933 0.086981 0.041603
C14   C     C_3   0.485262 0.011167 0.522237 -0.150534
C15   C     C_3   0.340842 0.992693 0.436708 -0.152684
C16   C     C_R   0.501331 0.070213 0.229188 -0.123392
C17   C     C_R   0.467679 0.931371 0.763393 -0.116450
C18   C     C_3   0.419596 0.938331 0.435214 -0.153999
C19   C     C_3   0.407068 0.065892 0.525221 -0.154354
C20   C     C_1   0.432667 0.000956 0.290634 -0.034525
C21   C     C_1   0.455006 0.002270 0.684075 -0.033588
C22   C     C_3   0.474788 0.074571 0.499826 -0.151474
C23   C     C_R   0.458127 0.000576 0.231618 0.086456
C24   C     C_3   0.351721 0.929155 0.460225 -0.149602
C25   C     C_3   0.409152 0.001709 0.413262 0.208651
C26   C     C_3   0.417621 0.002236 0.546620 0.207961
C27   C     C_1   0.416500 0.001295 0.343600 -0.071491
C28   C     C_1   0.433618 0.002412 0.621806 -0.066261
C29   C     C_3   0.938807 0.604663 0.440438 0.267850
C30   C     C_3   0.003067 0.538864 0.516999 0.263465
C31   C     C_3   0.957026 0.624562 0.528703 0.382283
C32   C     C_3   0.986095 0.519560 0.430248 0.311507
C33   C     C_1   0.182733 0.725754 0.680870 -0.019560
C34   C     C_R   0.484426 0.001759 0.757325 0.087972
C35   C     C_1   0.778356 0.365659 0.286492 -0.060529
C36   C     C_3   0.023350 0.612987 0.458416 0.257803
C37   C     C_3   0.919729 0.530749 0.499798 0.262301
C38   C     C_3   0.041686 0.632907 0.546241 -0.195483
C39   C     C_3   0.900863 0.510538 0.411650 -0.237890
C40   C     C_R   0.723582 0.233966 0.154730 0.633097
C41   C     C_R   0.262946 0.794479 0.832374 0.549691
C42   C     C_1   0.119533 0.688194 0.619575 0.200062
C43   C     C_1   0.829877 0.434889 0.340995 0.170719
C44   C     C_3   0.043661 0.969229 0.140814 -0.350275
C45   C     C_R   0.724523 0.279738 0.226996 -0.117391
C46   C     C_3   0.007498 0.035555 0.047110 -0.352364
C47   C     C_3   0.033995 0.047694 0.168691 -0.351766
C48   C     C_3   0.016094 0.957606 0.019324 -0.355002
C49   C     C_1   0.817577 0.998207 0.041573 -0.038664
C50   C     C_1   0.218318 0.005783 0.082594 -0.035195
C51   C     C_3   0.966079 0.924465 0.057852 0.688777
C52   C     C_3   0.084328 0.080517 0.129646 0.688213
C53   C     C_3   0.956781 0.001020 0.085014 0.045209
C54   C     C_3   0.093864 0.004094 0.102598 0.043453
C55   C     C_1   0.880198 0.998743 0.064712 0.032024
C56   C     C_R   0.255530 0.765943 0.754843 -0.098657
C57   C     C_1   0.165473 0.006018 0.098876 0.034560
C58   C     C_R   0.466027 0.800516 0.037222 -0.120548
C59   C     C_R   0.570110 0.229128 0.000785 -0.094335
C60   C     C_R   0.656168 0.229853 0.226995 -0.200006
C61   C     C_R   0.332983 0.792232 0.763078 -0.202180
C62   C     C_R   0.531946 0.795337 0.963257 -0.125106
C63   C     C_R   0.499187 0.228121 0.069434 -0.124984
C64   C     C_R   0.430314 0.930595 0.159171 -0.116219
C65   C     C_R   0.533693 0.071273 0.834580 -0.123607
C66   C     C_R   0.736811 0.069279 0.034258 0.532134
C67   C     C_R   0.515052 0.772278 0.016708 0.085667
C68   C     C_R   0.276293 0.932660 0.010017 0.622580
C69   C     C_R   0.744461 0.999435 0.012402 -0.079073
C70   C     C_R   0.274212 0.002995 0.052980 -0.110237
C71   C     C_3   0.692704 0.562357 0.974316 0.178248
C72   C     C_3   0.641587 0.499766 0.882189 -0.283572
C73   C     C_3   0.663994 0.540055 0.833589 -1.015760
C74   C     C_3   0.469474 0.560493 0.191572 0.172618
C75   C     C_3   0.375986 0.512021 0.140864 -0.273393
C76   C     C_3   0.335484 0.454903 0.169165 -1.022032
C77   C     C_3   0.866639 0.663383 0.554694 0.239628
C78   C     C_R   0.542772 0.273982 0.043439 0.074742
C79   C     C_3   0.857223 0.718672 0.623034 -0.295196
C80   C     C_3   0.769026 0.699713 0.593631 -1.020993
C81   C     C_3   0.081089 0.489814 0.404102 0.233602
C82   C     C_3   0.092209 0.417455 0.360559 -0.303502
C83   C     C_3   0.182742 0.446630 0.388079 -1.029315
C84   C     C_3   0.126837 0.221647 0.184894 0.176206
C85   C     C_3   0.132927 0.258586 0.129862 -0.272432
C86   C     C_3   0.110667 0.326547 0.148932 -1.028533
C87   C     C_3   0.921626 0.782638 0.995622 0.172242
C88   C     C_3   0.881964 0.733504 0.902261 -0.281530
C89   C     C_3   0.627109 0.590738 0.169869 -0.335714
C90   C     C_3   0.902142 0.664927 0.872910 -1.033159
C91   C     C_3   0.837620 0.329742 0.158382 0.218864
C92   C     C_3   0.847006 0.409903 0.159413 -0.289463
C93   C     C_3   0.936819 0.476500 0.198640 -0.980086
C94   C     C_3   0.138660 0.704859 0.815256 0.201437
C95   C     C_3   0.055275 0.696384 0.775314 -0.311003
C96   C     C_3   0.985402 0.606082 0.730535 -0.889338
H1    H     H_    0.652831 0.866823 0.926680 0.133314
H2    H     H_    0.525276 0.134157 0.514843 0.121142
H3    H     H_    0.039978 0.085461 0.228902 0.151323
H4    H     H_    0.010248 0.920813 0.958892 0.148436
H5    H     H_    0.059241 0.941098 0.177802 0.150419
H6    H     H_    0.991643 0.062784 0.009229 0.149355
H7    H     H_    0.520711 0.134053 0.270721 0.101798
H8    H     H_    0.436837 0.868433 0.713136 0.099090
H9    H     H_    0.440541 0.791456 0.076472 0.110350
H10   H     H_    0.616260 0.252886 0.983682 0.123985
H11   H     H_    0.632306 0.250231 0.267557 0.137600
H12   H     H_    0.367205 0.135757 0.116927 0.137765
H13   H     H_    0.347406 0.773617 0.714033 0.134608
H14   H     H_    0.562686 0.775898 0.931033 0.098479
H15   H     H_    0.480052 0.250301 0.114114 0.100124
H16   H     H_    0.384288 0.867317 0.136864 0.119391
H17   H     H_    0.559161 0.136031 0.851079 0.104482
H18   H     H_    0.726899 0.688625 0.156035 0.157250
H19   H     H_    0.448652 0.446313 0.022549 0.150575
H20   H     H_    0.758611 0.586170 0.992005 0.130129
H21   H     H_    0.684677 0.617683 0.989290 0.086052
H22   H     H_    0.652153 0.446324 0.867535 0.212297
H23   H     H_    0.657713 0.607990 0.234730 0.159855
H24   H     H_    0.575443 0.475155 0.863399 0.192567
H25   H     H_    0.654684 0.594237 0.847731 0.268587
H26   H     H_    0.624498 0.493630 0.767109 0.274262
H27   H     H_    0.728924 0.561283 0.848535 0.275100
H28   H     H_    0.487058 0.600109 0.256522 0.130867
H29   H     H_    0.491654 0.515904 0.189859 0.081288
H30   H     H_    0.353952 0.556859 0.146530 0.210831
H31   H     H_    0.357480 0.473537 0.075393 0.193851
H32   H     H_    0.355146 0.408207 0.162246 0.267625
H33   H     H_    0.267856 0.421141 0.131314 0.277452
H34   H     H_    0.516685 0.525236 0.945077 0.149626
H35   H     H_    0.351933 0.492143 0.234205 0.271458
H36   H     H_    0.824179 0.596901 0.532814 0.151888
H37   H     H_    0.849543 0.675442 0.503548 0.129273
H38   H     H_    0.875477 0.708072 0.675070 0.210481
H39   H     H_    0.898347 0.785479 0.645084 0.211223
H40   H     H_    0.749847 0.711098 0.542366 0.270376
H41   H     H_    0.764425 0.741015 0.644636 0.275467
H42   H     H_    0.727033 0.633620 0.572926 0.272571
H43   H     H_    0.116381 0.517178 0.471354 0.141710
H44   H     H_    0.106122 0.537953 0.388188 0.138570
H45   H     H_    0.424847 0.886033 0.397240 0.122468
H46   H     H_    0.065843 0.367892 0.374437 0.211831
H47   H     H_    0.059038 0.390442 0.293327 0.204576
H48   H     H_    0.209593 0.493949 0.371932 0.270816
H49   H     H_    0.189236 0.392610 0.357211 0.266716
H50   H     H_    0.217082 0.474178 0.455235 0.275590
H51   H     H_    0.942470 0.698127 0.430966 0.332742
H52   H     H_    0.000561 0.443895 0.522655 0.327854
H53   H     H_    0.854028 0.429105 0.493845 0.323178
H54   H     H_    0.047202 0.638030 0.380741 0.332707
H55   H     H_    0.169758 0.272432 0.249562 0.130801
H56   H     H_    0.401992 0.118033 0.563709 0.120445
H57   H     H_    0.063945 0.197328 0.178566 0.076789
H58   H     H_    0.196520 0.285738 0.138863 0.216168
H59   H     H_    0.090819 0.208371 0.064782 0.192742
H60   H     H_    0.047473 0.301000 0.141010 0.266182
H61   H     H_    0.113620 0.350442 0.106594 0.272759
H62   H     H_    0.154513 0.379402 0.212636 0.280876
H63   H     H_    0.897971 0.738779 0.016449 0.125364
H64   H     H_    0.989242 0.808622 0.022934 0.080653
H65   H     H_    0.814383 0.704839 0.875573 0.215091
H66   H     H_    0.904089 0.776394 0.880062 0.193210
H67   H     H_    0.544773 0.018725 0.558217 0.121494
H68   H     H_    0.969354 0.692718 0.896676 0.272570
H69   H     H_    0.871250 0.629557 0.805034 0.281718
H70   H     H_    0.880413 0.620862 0.894080 0.267459
H71   H     H_    0.869857 0.308265 0.126624 0.157916
H72   H     H_    0.868831 0.341809 0.221342 0.118948
H73   H     H_    0.815028 0.395238 0.095557 0.214065
H74   H     H_    0.817970 0.435062 0.193245 0.217100
H75   H     H_    0.969955 0.493592 0.262898 0.291930
H76   H     H_    0.941050 0.533358 0.197951 0.274369
H77   H     H_    0.966483 0.453296 0.164321 0.260058
H78   H     H_    0.281698 0.985173 0.399906 0.121327
H79   H     H_    0.141819 0.689301 0.864075 0.141058
H80   H     H_    0.144030 0.657905 0.769306 0.090926
H81   H     H_    0.046286 0.736543 0.822959 0.204352
H82   H     H_    0.053774 0.718306 0.731110 0.244432
H83   H     H_    0.993284 0.565033 0.682517 0.307744
H84   H     H_    0.926145 0.602068 0.700855 0.283073
H85   H     H_    0.983777 0.583818 0.774246 0.247441
H86   H     H_    0.851757 0.153086 0.098141 0.296567
H87   H     H_    0.192584 0.854825 0.018904 0.298381
H88   H     H_    0.301481 0.869676 0.445650 0.131753
N1    N     N_R   0.613530 0.956740 0.956480 -0.071973
N2    N     N_R   0.386500 0.842990 0.843230 -0.069720
N3    N     N_R   0.499770 0.842990 0.956480 -0.044267
N4    N     N_R   0.500230 0.157010 0.043520 -0.045008
N5    N     N_R   0.456470 0.956710 0.113500 -0.047614
N6    N     N_R   0.543530 0.043290 0.886500 -0.045297
N7    N     N_R   0.656800 0.043290 0.999750 -0.076332
N8    N     N_R   0.343200 0.956710 0.000250 -0.076854
N9    N     N_R   0.386470 0.043260 0.043520 -0.076106
N10   N     N_R   0.499750 0.043260 0.156770 -0.045828
N11   N     N_R   0.500250 0.956740 0.843230 -0.044880
N12   N     N_R   0.656790 0.157020 0.113500 -0.086963
N13   N     N_R   0.343210 0.842980 0.886500 -0.091192
N14   N     N_R   0.456490 0.842980 0.999750 -0.049813
N15   N     N_R   0.543510 0.157020 0.000250 -0.047440
N16   N     N_R   0.613500 0.157010 0.156770 -0.074517
Ni1   Ni    Ni4+2 0.500010 0.900760 0.900750 0.200307
Ni2   Ni    Ni4+2 0.499990 0.099240 0.099250 0.192870
Ni3   Ni    Ni4+2 0.599260 0.099260 0.000000 0.271497
Ni4   Ni    Ni4+2 0.400740 0.900740 0.000000 0.257287
O1    O     O_3   0.673168 0.521224 0.016940 -0.669112
O2    O     O_3   0.898725 0.843169 0.020223 -0.670140
O3    O     O_3   0.753579 0.267069 0.111939 -0.659215
O4    O     O_3   0.200983 0.789029 0.852191 -0.647923
O5    O     O_3   0.798774 0.151416 0.081386 -0.786964
O6    O     O_3   0.236383 0.856711 0.004076 -0.759938
O7    O     O_3   0.504096 0.614102 0.164599 -0.668329
O8    O     O_3   0.948985 0.683471 0.585747 -0.654828
O9    O     O_3   0.996763 0.459752 0.377439 -0.670431
O10   O     O_3   0.903795 0.636882 0.398304 -0.736674
O11   O     O_3   0.037327 0.505355 0.558091 -0.746540
O12   O     O_3   0.865739 0.487312 0.521303 -0.743267
O13   O     O_3   0.078889 0.658444 0.439551 -0.745903
O14   O     O_3   0.151724 0.161953 0.168068 -0.668418

loop_
_geom_bond_atom_site_label_1
_geom_bond_atom_site_label_2
_ccdc_geom_bond_type
C81   H44   S    
C74   H28   S    
C87   C88   S    
C93   H76   S    
C22   H2    S    
C24   H88   S    
C12   N9    A    
C14   C18   S    
C4    H19   S    
C2    C4    S    
C95   C96   S    
C96   H85   S    
C82   H46   S    
H51   O10   S    
C61   H13   S    
C64   N5    A    
C29   O10   S    
C51   O2    S    
C45   C60   A    
C85   C86   S    
H87   O6    S    
C48   C54   S    
C46   H6    S    
C29   C36   S    
C77   H37   S    
C62   C67   A    
C18   C24   S    
C33   C42   T    
C32   C36   S    
C91   H71   S    
C17   H8    S    
C24   C26   S    
C38   C42   S    
C41   C56   A    
C83   H48   S    
C76   H35   S    
C88   H66   S    
N6    Ni3   S    
C64   H16   S    
C66   C69   A    
C68   N8    A    
C88   H65   S    
N10   Ni2   S    
C46   C52   S    
C47   H3    S    
C87   H64   S    
C30   C38   S    
N13   Ni4   S    
C81   H43   S    
C85   H59   S    
C32   C39   S    
N1    Ni1   S    
C14   H67   S    
C19   C26   S    
C86   H60   S    
C92   C93   S    
C16   H7    S    
C77   O8    S    
C30   O11   S    
C83   H49   S    
N5    N10   A    
C95   H81   S    
C48   C51   S    
C81   O9    S    
C31   O8    S    
C89   H23   S    
C10   C89   S    
C92   H74   S    
C73   H27   S    
C22   C25   S    
N2    N13   A    
C30   C32   S    
C35   C43   T    
C37   O12   S    
C44   C47   S    
C5    C67   S    
C94   H79   S    
C47   C53   S    
C33   C56   S    
C77   C79   S    
C40   O3    S    
C68   O6    S    
C49   C69   S    
C90   H70   S    
N15   Ni3   S    
C72   H24   S    
C8    O1    S    
C18   C25   S    
N7    Ni3   S    
C4    C7    S    
C59   C78   A    
C26   C28   S    
C93   H77   S    
C52   C54   S    
N1    N7    A    
C53   C55   S    
N5    Ni4   S    
C40   C45   A    
C48   H4    S    
C46   C48   S    
C59   H10   S    
C74   C75   S    
C71   H21   S    
N3    N14   A    
C23   C64   A    
C91   H72   S    
C19   C22   S    
C94   O4    S    
C84   C85   S    
C41   N13   A    
C3    C8    S    
C1    H1    S    
C91   C92   S    
C12   H12   S    
C82   H47   S    
C39   C43   S    
C21   C34   S    
N4    N15   A    
C49   C55   T    
C10   C13   S    
H86   O5    S    
C81   C82   S    
N9    Ni2   S    
C31   C37   S    
C30   C37   S    
C90   H68   S    
C66   O5    S    
C77   H36   S    
C15   C19   S    
C75   C76   S    
C87   O2    S    
C3    C9    S    
C83   H50   S    
C9    C11   S    
C84   H57   S    
C95   H82   S    
C7    O7    S    
C62   H14   S    
C20   C23   S    
C71   O1    S    
C92   H73   S    
C66   N7    A    
C29   C39   S    
C76   H33   S    
C19   H56   S    
N8    Ni4   S    
N12   N16   A    
C14   C26   S    
N12   Ni3   S    
C86   H62   S    
C60   H11   S    
C84   O14   S    
N6    N11   A    
C32   O9    S    
C44   C51   S    
N16   Ni2   S    
C15   C24   S    
C21   C28   T    
C88   C90   S    
C73   H26   S    
C16   C23   A    
C73   H25   S    
C90   H69   S    
C34   C65   A    
C76   H32   S    
C17   N11   A    
C17   C34   A    
C4    C10   S    
C35   C45   S    
H52   O11   S    
C7    C89   S    
C40   N12   A    
C7    C9    S    
C79   H38   S    
C12   C70   A    
C58   N14   A    
C15   H78   S    
C50   C57   T    
C65   H17   S    
C18   H45   S    
C2    C8    S    
C72   C73   S    
C3    H18   S    
C36   O13   S    
C91   O3    S    
C44   H5    S    
C5    C11   T    
C47   C52   S    
N11   Ni1   S    
C20   C27   T    
C1    N1    A    
C25   C27   S    
C79   H39   S    
C6    C78   S    
C52   O14   S    
C80   H40   S    
C31   C38   S    
C74   O7    S    
C3    C89   S    
C58   H9    S    
N8    N9    A    
C96   H84   S    
C41   O4    S    
C36   C38   S    
C50   C70   S    
H53   O12   S    
C59   N15   A    
C71   C72   S    
C29   C31   S    
C6    C13   T    
N14   Ni4   S    
C14   C22   S    
N3    Ni1   S    
C80   H42   S    
C46   C53   S    
N4    Ni2   S    
C61   N2    A    
C2    H34   S    
H54   O13   S    
C87   H63   S    
C71   H20   S    
C75   H31   S    
C85   H58   S    
C96   H83   S    
C63   H15   S    
C94   C95   S    
C86   H61   S    
C1    C69   A    
C16   N10   A    
C60   N16   A    
C51   C53   S    
C79   C80   S    
C74   H29   S    
C84   H55   S    
C44   C54   S    
C58   C67   A    
C37   C39   S    
C75   H30   S    
C65   N6    A    
N2    Ni1   S    
C15   C25   S    
C8    C10   S    
C63   N4    A    
C72   H22   S    
C68   C70   A    
C56   C61   A    
C82   C83   S    
C2    C9    S    
C54   C57   S    
C80   H41   S    
C94   H80   S    
C62   N3    A    
C63   C78   A    
C93   H75   S    
