data_mof_unit_18131.cif
_audit_creation_date              2012-12-10T17:18:13-0500
_audit_creation_method            fapswitch 2.2
_symmetry_space_group_name_H-M    P1
_symmetry_Int_Tables_number       1
_space_group_crystal_system       triclinic
_cell_length_a                    10.140645
_cell_length_b                    10.897264
_cell_length_c                    14.986888
_cell_angle_alpha                 89.873091
_cell_angle_beta                  80.961057
_cell_angle_gamma                 96.129394
_cell_volume                      1625.90999339

loop_
_atom_site_label
_atom_site_type_symbol
_atom_type_description
_atom_site_fract_x
_atom_site_fract_y
_atom_site_fract_z
_atom_type_partial_charge
C1    C     C_R   0.557691 0.732676 0.494038 0.900230
C2    C     C_2   0.069384 0.476717 0.504488 -0.058043
C3    C     C_R   0.499268 0.496478 0.672995 0.922645
C4    C     C_R   0.500698 0.503476 0.326997 0.916234
C5    C     C_R   0.566570 0.420361 0.180033 -0.239398
C6    C     C_R   0.433314 0.579414 0.819963 -0.237116
C7    C     C_R   0.501525 0.508854 0.231244 -0.127905
C8    C     C_R   0.498223 0.490863 0.768755 -0.134890
C9    C     C_R   0.434731 0.596900 0.191846 -0.084380
C10   C     C_R   0.564382 0.402362 0.808183 -0.081657
C11   C     C_R   0.434176 0.593854 0.098158 0.029732
C12   C     C_R   0.442345 0.267485 0.504822 0.899581
C13   C     C_R   0.564938 0.405358 0.901891 0.034061
C14   C     C_R   0.499438 0.502114 0.046698 0.068689
C15   C     C_R   0.499829 0.497196 0.953347 0.067389
C16   C     C_R   0.565031 0.415469 0.088324 0.117419
C17   C     C_R   0.434442 0.583993 0.911710 0.115878
C18   C     C_R   0.372591 0.681046 0.054134 -0.165704
C19   C     C_R   0.626420 0.318105 0.945938 -0.165822
C20   C     C_2   0.370261 0.692811 0.248367 0.936115
C21   C     C_2   0.628057 0.306051 0.751631 0.918528
C22   C     C_2   0.262506 0.084118 0.532737 0.918798
C23   C     C_R   0.372027 0.675390 0.961915 -0.187562
C24   C     C_2   0.737029 0.915906 0.457808 0.954187
C25   C     C_2   0.121839 0.657946 0.586298 1.039626
C26   C     C_2   0.893071 0.401475 0.377092 1.032584
C27   C     C_R   0.627277 0.323958 0.038133 -0.190426
C28   C     C_2   0.594382 0.865293 0.487584 -0.215697
C29   C     C_2   0.405558 0.135130 0.506928 -0.202949
C30   C     C_2   0.493152 0.935383 0.507059 -0.190717
C31   C     C_2   0.506159 0.065266 0.484445 -0.190605
C32   C     C_2   0.922127 0.488973 0.518599 -0.058825
H1    H     H_    0.615824 0.352853 0.212458 0.184527
H2    H     H_    0.394562 0.893872 0.537992 0.231872
H3    H     H_    0.109050 0.964935 0.504738 0.363239
H4    H     H_    0.889748 0.044727 0.473447 0.354185
H5    H     H_    0.105328 0.399543 0.465873 0.173178
H6    H     H_    0.877742 0.530950 0.579989 0.185891
H7    H     H_    0.005026 0.797343 0.605882 0.343071
H8    H     H_    0.036277 0.413281 0.266363 0.346946
H9    H     H_    0.384402 0.647161 0.787514 0.186374
H10   H     H_    0.392068 0.832488 0.334689 0.368675
H11   H     H_    0.605213 0.167006 0.664883 0.365757
H12   H     H_    0.324912 0.754688 0.089906 0.183954
H13   H     H_    0.673946 0.244367 0.910191 0.185984
H14   H     H_    0.323110 0.743119 0.929688 0.167333
H15   H     H_    0.676280 0.256290 0.070357 0.166843
H16   H     H_    0.604320 0.107518 0.453520 0.235318
N1    N     N_2   0.842700 0.448880 0.462930 -0.169466
N2    N     N_2   0.157300 0.551120 0.537070 -0.168425
O1    O     O_R   0.431060 0.692470 0.507460 -0.603931
O2    O     O_R   0.447166 0.772157 0.298140 -0.799252
O3    O     O_2   0.748164 0.297508 0.747378 -0.608106
O4    O     O_R   0.550661 0.227580 0.701589 -0.792763
O5    O     O_2   0.190448 0.130896 0.593502 -0.578553
O6    O     O_R   0.208892 0.986586 0.484363 -0.788425
O7    O     O_2   0.807311 0.864394 0.398756 -0.549012
O8    O     O_R   0.792220 0.019405 0.499646 -0.799861
O9    O     O_2   0.185523 0.694227 0.645652 -0.621977
O10   O     O_R   0.021462 0.725716 0.564022 -0.809332
O11   O     O_2   0.825292 0.318502 0.345093 -0.626788
O12   O     O_R   0.568940 0.307530 0.492540 -0.594789
O13   O     O_R   0.013949 0.454324 0.326696 -0.785713
O14   O     O_R   0.651120 0.659650 0.483670 -0.583555
O15   O     O_R   0.348880 0.340350 0.516330 -0.606612
O16   O     O_R   0.389960 0.516440 0.644050 -0.583486
O17   O     O_R   0.610040 0.483560 0.355950 -0.596174
O18   O     O_R   0.610030 0.483620 0.620260 -0.633566
O19   O     O_R   0.389970 0.516380 0.379740 -0.612389
O20   O     O_2   0.249948 0.700372 0.252721 -0.562727
Zn1   Zn    Zn3+2 0.353060 0.521920 0.515880 1.043820
Zn2   Zn    Zn3+2 0.646940 0.478080 0.484120 1.047935

loop_
_geom_bond_atom_site_label_1
_geom_bond_atom_site_label_2
_ccdc_geom_bond_type
C1    C28   S    
C22   O6    S    
N2    Zn1   S    
C19   H13   S    
C11   C18   A    
C22   O5    D    
C25   N2    S    
C25   O10   S    
C32   H6    S    
C12   C29   S    
C4    O17   A    
C9    C11   A    
C12   O15   A    
C9    C20   S    
C13   C15   A    
O16   Zn1   S    
C14   C15   A    
C26   O13   S    
C21   O4    S    
O18   Zn2   S    
C16   C27   A    
C28   C30   D    
O12   Zn2   S    
C29   C31   D    
C23   H14   S    
H11   O4    S    
C21   O3    D    
C1    O1    A    
C2    H5    S    
C20   O20   D    
C17   C23   A    
H8    O13   S    
O1    Zn1   S    
C4    C7    S    
H7    O10   S    
C2    C32   S    
C4    O19   A    
C22   C29   S    
C26   O11   D    
N1    Zn2   S    
C3    C8    S    
H4    O8    S    
C31   H16   S    
O14   Zn2   S    
C10   C21   S    
C30   C31   S    
C11   C14   A    
C14   C16   A    
C32   N1    D    
C3    O16   A    
O19   Zn1   S    
C30   H2    S    
C18   C23   A    
C24   O8    S    
C7    C9    A    
C18   H12   S    
C12   O12   A    
C24   C28   S    
C20   O2    S    
O17   Zn2   S    
C26   N1    S    
C27   H15   S    
C2    N2    D    
C15   C17   A    
C6    C17   A    
C13   C19   A    
C5    C7    A    
C24   O7    D    
C5    C16   A    
C6    C8    A    
C25   O9    D    
H3    O6    S    
O15   Zn1   S    
C1    O14   A    
C6    H9    S    
C8    C10   A    
C3    O18   A    
H10   O2    S    
C19   C27   A    
C10   C13   A    
C5    H1    S    
