data_mof_unit_57652.cif
_audit_creation_date              2012-12-11T15:27:08-0500
_audit_creation_method            fapswitch 2.2
_symmetry_space_group_name_H-M    P1
_symmetry_Int_Tables_number       1
_space_group_crystal_system       triclinic
_cell_length_a                    13.802969
_cell_length_b                    13.970791
_cell_length_c                    27.48881
_cell_angle_alpha                 90.244895
_cell_angle_beta                  89.926173
_cell_angle_gamma                 119.878378
_cell_volume                      4596.28396066

loop_
_atom_site_label
_atom_site_type_symbol
_atom_type_description
_atom_site_fract_x
_atom_site_fract_y
_atom_site_fract_z
_atom_type_partial_charge
C1    C     C_R   0.233753 0.787310 0.568508 0.541858
C2    C     C_R   0.212349 0.446657 0.568604 0.543513
C3    C     C_R   0.552747 0.765428 0.568822 0.542003
C4    C     C_3   0.668034 0.736046 0.788248 -0.232576
C5    C     C_3   0.245978 0.952947 0.782821 -0.232552
C6    C     C_3   0.038949 0.292509 0.782778 -0.231949
C7    C     C_3   0.646424 0.723207 0.732583 -0.219271
C8    C     C_3   0.262811 0.938762 0.728107 -0.219548
C9    C     C_3   0.055040 0.325814 0.728252 -0.218697
C10   C     C_1   0.706239 0.860050 0.858866 -0.065276
C11   C     C_1   0.116469 0.877085 0.851964 -0.067762
C12   C     C_1   0.117137 0.238219 0.851625 -0.066865
C13   C     C_1   0.627955 0.813709 0.658577 -0.074275
C14   C     C_1   0.179059 0.819308 0.656048 -0.075021
C15   C     C_1   0.177077 0.361233 0.656181 -0.074911
C16   C     C_1   0.600686 0.796137 0.616433 -0.017897
C17   C     C_1   0.199889 0.806405 0.614898 -0.017777
C18   C     C_1   0.192148 0.394646 0.615051 -0.017645
C19   C     C_R   0.071192 0.163529 0.941450 0.529458
C20   C     C_R   0.779919 0.886788 0.948845 0.528548
C21   C     C_R   0.091707 0.927934 0.941657 0.528192
C22   C     C_R   0.582120 0.784770 0.378567 0.010787
C23   C     C_R   0.201931 0.803314 0.382928 0.014744
C24   C     C_R   0.192193 0.390333 0.384493 0.015598
C25   C     C_R   0.577318 0.869818 0.353682 -0.138522
C26   C     C_R   0.092040 0.741974 0.365828 -0.138933
C27   C     C_R   0.243959 0.329234 0.371876 -0.134069
C28   C     C_R   0.585378 0.875419 0.303256 -0.139098
C29   C     C_R   0.068529 0.751143 0.317361 -0.134597
C30   C     C_R   0.228728 0.283425 0.325425 -0.133300
C31   C     C_R   0.597036 0.795636 0.277122 0.020494
C32   C     C_R   0.155074 0.819827 0.285643 0.029708
C33   C     C_R   0.163894 0.300820 0.291236 0.025438
C34   C     C_R   0.234007 0.786488 0.431095 0.541054
C35   C     C_R   0.212694 0.446720 0.431175 0.543829
C36   C     C_R   0.547723 0.762401 0.429586 0.543730
C37   C     C_R   0.601257 0.709277 0.301661 -0.006153
C38   C     C_R   0.267396 0.878676 0.302683 -0.003014
C39   C     C_R   0.116543 0.367455 0.303210 -0.007696
C40   C     C_R   0.595851 0.705995 0.352191 -0.127026
C41   C     C_R   0.288059 0.871159 0.351276 -0.123630
C42   C     C_R   0.128766 0.408880 0.350089 -0.126444
C43   C     C_R   0.751087 0.854051 0.221288 -0.148245
C44   C     C_R   0.182196 0.941663 0.217324 -0.135674
C45   C     C_R   0.030028 0.187140 0.228213 -0.130756
C46   C     C_R   0.797615 0.874857 0.175376 0.007958
C47   C     C_R   0.202060 0.957200 0.168004 0.041395
C48   C     C_R   0.004384 0.169378 0.178964 0.025442
C49   C     C_R   0.618577 0.837173 0.141371 -0.165197
C50   C     C_R   0.064851 0.762784 0.154821 -0.154836
C51   C     C_R   0.203002 0.242699 0.162244 -0.161602
C52   C     C_R   0.571821 0.811327 0.187901 -0.132093
C53   C     C_R   0.066376 0.744919 0.204701 -0.146321
C54   C     C_R   0.227535 0.271780 0.210986 -0.158811
C55   C     C_R   0.639267 0.821779 0.227691 0.019802
C56   C     C_R   0.128207 0.834957 0.235800 -0.001021
C57   C     C_R   0.140898 0.246413 0.243706 0.017265
C58   C     C_R   0.731516 0.869335 0.134746 0.056848
C59   C     C_R   0.134506 0.868616 0.135740 0.057773
C60   C     C_R   0.092024 0.192754 0.145314 0.063755
C61   C     C_R   0.068326 0.157973 0.094104 0.650554
C62   C     C_R   0.776490 0.883856 0.085636 0.584609
C63   C     C_R   0.117789 0.894039 0.085848 0.601125
C64   C     C_3   0.556970 0.842529 0.736795 -0.205861
C65   C     C_3   0.147831 0.732088 0.737036 -0.205878
C66   C     C_3   0.263906 0.414824 0.737625 -0.206854
C67   C     C_3   0.764142 0.929228 0.722817 -0.220179
C68   C     C_3   0.054899 0.842086 0.714690 -0.218279
C69   C     C_3   0.150175 0.214269 0.713986 -0.217823
C70   C     C_3   0.785249 0.940044 0.778494 -0.213604
C71   C     C_3   0.039258 0.859574 0.769193 -0.215232
C72   C     C_3   0.130688 0.180133 0.768161 -0.216286
C73   C     C_1   0.733991 0.871503 0.900944 -0.021775
C74   C     C_1   0.104890 0.898393 0.893255 -0.018950
C75   C     C_1   0.098940 0.205518 0.892933 -0.021638
C76   C     C_3   0.649022 0.827261 0.711308 0.059218
C77   C     C_3   0.161130 0.832741 0.707636 0.059231
C78   C     C_3   0.161673 0.329404 0.707670 0.059113
C79   C     C_3   0.573768 0.850191 0.793117 -0.074585
C80   C     C_3   0.133102 0.747352 0.792393 -0.073623
C81   C     C_3   0.247219 0.384372 0.792739 -0.072994
C82   C     C_3   0.683167 0.848287 0.806239 0.070167
C83   C     C_3   0.131575 0.857617 0.800635 0.069426
C84   C     C_3   0.134969 0.273421 0.800388 0.069584
Cr1   Cr    Cr6+3 0.164410 0.584450 0.499910 1.018156
Cr2   Cr    Cr6+3 0.415550 0.579960 0.499910 1.018444
Cr3   Cr    Cr6+3 0.420040 0.835590 0.499910 1.015557
Cr4   Cr    Cr6+3 0.156760 0.076070 0.017830 1.064333
Cr5   Cr    Cr6+3 0.923930 0.080690 0.017830 1.074926
Cr6   Cr    Cr6+3 0.919310 0.843240 0.017830 1.035641
H1    H     H_    0.473144 0.771148 0.727973 0.095473
H2    H     H_    0.223384 0.723763 0.731919 0.095298
H3    H     H_    0.274269 0.498582 0.732891 0.095018
H4    H     H_    0.503375 0.772387 0.808018 0.093682
H5    H     H_    0.210518 0.758828 0.810459 0.095738
H6    H     H_    0.235954 0.449616 0.810993 0.096657
H7    H     H_    0.743942 0.730487 0.796707 0.117854
H8    H     H_    0.251520 0.034051 0.788941 0.111816
H9    H     H_    0.956712 0.216281 0.787718 0.110589
H10   H     H_    0.565708 0.931015 0.373044 0.127782
H11   H     H_    0.025038 0.687093 0.389782 0.119502
H12   H     H_    0.295127 0.316445 0.397962 0.119818
H13   H     H_    0.801955 0.861194 0.252716 0.098686
H14   H     H_    0.225566 0.011445 0.241850 0.106327
H15   H     H_    0.963747 0.167274 0.254371 0.098126
H16   H     H_    0.587665 0.944752 0.284753 0.136565
H17   H     H_    0.982858 0.705751 0.304710 0.103771
H18   H     H_    0.266179 0.233511 0.316274 0.110428
H19   H     H_    0.483567 0.781336 0.192819 0.106669
H20   H     H_    0.020997 0.661915 0.218908 0.127477
H21   H     H_    0.313775 0.317910 0.222760 0.111875
H22   H     H_    0.566168 0.828576 0.110473 0.102594
H23   H     H_    0.011509 0.694404 0.131153 0.112457
H24   H     H_    0.271562 0.263007 0.137469 0.132230
H25   H     H_    0.557431 0.916623 0.721923 0.115153
H26   H     H_    0.076683 0.654961 0.722165 0.115664
H27   H     H_    0.341405 0.419839 0.722971 0.115095
H28   H     H_    0.597950 0.638668 0.370672 0.136476
H29   H     H_    0.373988 0.914789 0.363772 0.131719
H30   H     H_    0.092814 0.460374 0.358969 0.135546
H31   H     H_    0.831567 0.921177 0.704334 0.110781
H32   H     H_    0.061827 0.912688 0.693269 0.111756
H33   H     H_    0.078793 0.151966 0.691899 0.111811
H34   H     H_    0.767624 0.005411 0.708739 0.106906
H35   H     H_    0.980243 0.766200 0.700986 0.107383
H36   H     H_    0.226684 0.215109 0.700608 0.107061
H37   H     H_    0.805585 0.023217 0.791463 0.112575
H38   H     H_    0.954712 0.797004 0.781740 0.112687
H39   H     H_    0.192469 0.157234 0.780680 0.111083
H40   H     H_    0.860395 0.932879 0.786400 0.099721
H41   H     H_    0.043754 0.940548 0.773681 0.098042
H42   H     H_    0.047030 0.105285 0.771865 0.099009
H43   H     H_    0.563770 0.648798 0.725272 0.117325
H44   H     H_    0.340598 0.934333 0.723256 0.118484
H45   H     H_    0.061608 0.408133 0.724348 0.118044
H46   H     H_    0.711077 0.709901 0.714577 0.115454
H47   H     H_    0.273787 0.012290 0.707795 0.115740
H48   H     H_    0.980402 0.265414 0.707216 0.116259
H49   H     H_    0.596904 0.666522 0.807469 0.124271
H50   H     H_    0.315171 0.954334 0.804078 0.132362
H51   H     H_    0.036862 0.358396 0.804904 0.125129
O1    O     O_R   0.137310 0.468260 0.552980 -0.510166
O2    O     O_R   0.531740 0.669050 0.552980 -0.509151
O3    O     O_R   0.330950 0.862690 0.552980 -0.508477
O4    O     O_R   0.180530 0.983530 0.965090 -0.510709
O5    O     O_R   0.016470 0.197000 0.965090 -0.494522
O6    O     O_R   0.803000 0.819470 0.965090 -0.523073
O7    O     O_R   0.174120 0.688790 0.549730 -0.500013
O8    O     O_R   0.311210 0.485330 0.549730 -0.499929
O9    O     O_R   0.514670 0.825880 0.549730 -0.496403
O10   O     O_R   0.139940 0.470480 0.446230 -0.521953
O11   O     O_R   0.529520 0.669460 0.446230 -0.522208
O12   O     O_R   0.330540 0.860060 0.446230 -0.526536
O13   O     O_R   0.176560 0.690850 0.450770 -0.503616
O14   O     O_R   0.309150 0.485710 0.450770 -0.501078
O15   O     O_R   0.514290 0.823440 0.450770 -0.505026
O16   O     O_3   0.333333 0.666667 0.499990 -0.265186
O17   O     O_3   1.000000 0.000000 0.017910 -0.284129
O18   O     O_R   0.149710 0.171070 0.967700 -0.496581
O19   O     O_R   0.828930 0.978640 0.967700 -0.522297
O20   O     O_R   0.021360 0.850290 0.967700 -0.491116
O21   O     O_R   0.178510 0.985930 0.071830 -0.458793
O22   O     O_R   0.014070 0.192580 0.071830 -0.445247
O23   O     O_R   0.807420 0.821490 0.071830 -0.488071
O24   O     O_R   0.147830 0.173300 0.066650 -0.502557
O25   O     O_R   0.826700 0.974530 0.066650 -0.461867
O26   O     O_R   0.025470 0.852170 0.066650 -0.464209
C85   C     C_R   0.565312 0.945453 0.816185 0.031931
C86   C     C_R   0.627181 0.054512 0.798791 -0.093210
C87   C     C_R   0.619336 0.140049 0.821538 -0.124668
C88   C     C_R   0.549006 0.118044 0.861537 -0.107614
C89   C     C_R   0.486055 0.010314 0.878794 -0.110933
C90   C     C_R   0.493966 0.924516 0.856328 -0.109905
H52   H     H_    0.680799 0.074073 0.767389 0.093003
H53   H     H_    0.667821 0.223502 0.808017 0.093973
H54   H     H_    0.543088 0.184379 0.879119 0.115733
H55   H     H_    0.431070 0.993196 0.909646 0.130368
H56   H     H_    0.444811 0.841745 0.870591 0.089714
C91   C     C_R   0.035223 0.645396 0.815244 0.033170
C92   C     C_R   0.927622 0.591909 0.794244 -0.094449
C93   C     C_R   0.840876 0.497002 0.815436 -0.123999
C94   C     C_R   0.859998 0.453935 0.857719 -0.109832
C95   C     C_R   0.965987 0.505760 0.878930 -0.105507
C96   C     C_R   0.053054 0.600732 0.857913 -0.099263
H57   H     H_    0.910499 0.621479 0.760943 0.093366
H58   H     H_    0.758900 0.456349 0.798791 0.098796
H59   H     H_    0.792800 0.380223 0.873969 0.105959
H60   H     H_    0.980857 0.472166 0.911652 0.121451
H61   H     H_    0.134569 0.639303 0.875029 0.093728
C97   C     C_R   0.349637 0.388227 0.815895 0.032140
C98   C     C_R   0.402321 0.333524 0.795131 -0.094318
C99   C     C_R   0.497570 0.341126 0.816630 -0.125929
C100  C     C_R   0.541486 0.402893 0.859112 -0.109022
C101  C     C_R   0.490431 0.457656 0.880095 -0.104221
C102  C     C_R   0.395284 0.450607 0.858679 -0.100692
H62   H     H_    0.371906 0.286814 0.761775 0.093532
H63   H     H_    0.537740 0.299616 0.800047 0.097229
H64   H     H_    0.615228 0.408592 0.875704 0.107071
H65   H     H_    0.524757 0.505906 0.912936 0.117310
H66   H     H_    0.357294 0.494007 0.875601 0.094750
C103  C     C_2   0.915639 0.903242 0.172959 0.192636
H67   H     H_    0.953907 0.886345 0.203703 0.111324
O27   O     O_2   0.973021 0.949822 0.137920 -0.532637
C104  C     C_2   0.300517 0.063936 0.153643 0.250589
H68   H     H_    0.326450 0.136573 0.176197 0.088370
O28   O     O_2   0.360304 0.069532 0.119721 -0.500474
C105  C     C_2   0.885876 0.131504 0.166360 0.235399
H69   H     H_    0.821015 0.084558 0.192831 0.091012
O29   O     O_2   0.859088 0.159299 0.129100 -0.482884
C106  C     C_R   0.616903 0.625051 0.275225 0.037008
C107  C     C_R   0.706683 0.608805 0.287090 -0.107354
C108  C     C_R   0.723813 0.532239 0.261181 -0.121104
C109  C     C_R   0.651144 0.470747 0.223498 -0.103689
C110  C     C_R   0.561313 0.485967 0.211616 -0.110432
C111  C     C_R   0.544047 0.562771 0.237342 -0.079330
H70   H     H_    0.764450 0.656767 0.315819 0.095085
H71   H     H_    0.793817 0.521157 0.270249 0.102505
H72   H     H_    0.664499 0.411493 0.203434 0.105288
H73   H     H_    0.505235 0.438442 0.182365 0.105206
H74   H     H_    0.474067 0.573706 0.227784 0.104893
C112  C     C_R   0.366096 0.949508 0.271566 0.016999
C113  C     C_R   0.440263 0.059531 0.285457 -0.126324
C114  C     C_R   0.530366 0.128415 0.255711 -0.136320
C115  C     C_R   0.547048 0.088670 0.211675 -0.091337
C116  C     C_R   0.473989 0.979786 0.197504 -0.084046
C117  C     C_R   0.385125 0.909577 0.227669 -0.095024
H75   H     H_    0.427063 0.092618 0.318922 0.105033
H76   H     H_    0.586415 0.213034 0.266553 0.104577
H77   H     H_    0.616039 0.142451 0.188361 0.136818
H78   H     H_    0.485650 0.950202 0.162804 0.136495
H79   H     H_    0.329458 0.825267 0.216222 0.111664
C118  C     C_R   0.055253 0.396219 0.267211 0.029382
C119  C     C_R   0.941265 0.359934 0.274005 -0.114228
C120  C     C_R   0.880930 0.378410 0.238100 -0.119643
C121  C     C_R   0.934284 0.435068 0.195698 -0.090702
C122  C     C_R   0.048260 0.473500 0.189142 -0.099410
C123  C     C_R   0.108724 0.454174 0.224724 -0.077427
H80   H     H_    0.898509 0.314310 0.306334 0.102644
H81   H     H_    0.792571 0.347906 0.242997 0.093650
H82   H     H_    0.887412 0.449514 0.168005 0.114284
H83   H     H_    0.089588 0.517718 0.156362 0.112490
H84   H     H_    0.196613 0.482853 0.218932 0.107642

loop_
_geom_bond_atom_site_label_1
_geom_bond_atom_site_label_2
_ccdc_geom_bond_type
C70   H37   S    
C58   C62   S    
C65   H2    S    
C40   H28   S    
C88   C89   A    
C97   C98   A    
Cr6   O26   S    
C2    C18   S    
C24   C42   A    
C103  H67   S    
C15   C18   T    
C114  C115  A    
Cr3   O15   S    
C24   C27   A    
C119  H80   S    
C67   H34   S    
C6    C9    S    
C24   C35   S    
C44   H14   S    
C72   H39   S    
C109  C110  A    
C92   C93   A    
C25   C28   A    
C9    C78   S    
C45   C57   A    
C33   C39   A    
C63   O21   A    
C35   O10   A    
C123  H84   S    
C5    H50   S    
C50   C59   A    
C113  H75   S    
C38   C112  S    
C35   O14   A    
C102  H66   S    
C37   C40   A    
C110  H73   S    
C4    C7    S    
C26   H11   S    
C5    C83   S    
C10   C73   T    
C23   C26   A    
C15   C78   S    
C108  H71   S    
C69   H33   S    
C117  H79   S    
C70   H40   S    
C122  C123  A    
C12   C84   S    
C86   C87   A    
Cr4   O18   S    
C94   C95   A    
C120  H81   S    
C98   H62   S    
C90   H56   S    
C46   C103  S    
C62   O23   A    
C101  H65   S    
C28   H16   S    
C66   H27   S    
C20   C73   S    
C95   H60   S    
C86   H52   S    
Cr3   O12   S    
C72   H42   S    
C37   C106  S    
C99   C100  A    
C32   C38   A    
C79   C85   S    
C119  C120  A    
C47   C104  S    
C100  C101  A    
C44   C47   A    
C94   H59   S    
C49   C52   A    
C2    O8    A    
C63   O26   A    
C107  H70   S    
C108  C109  A    
C64   H25   S    
C61   O22   A    
C4    H7    S    
C46   C58   A    
C27   C30   A    
C103  O27   D    
C14   C17   T    
C65   C80   S    
C69   C78   S    
Cr5   O5    S    
Cr1   O16   S    
Cr3   O3    S    
C80   C83   S    
C67   H31   S    
Cr2   O16   S    
C45   H15   S    
Cr2   O2    S    
C48   C60   A    
C39   C42   A    
C71   C83   S    
C87   H53   S    
C34   O13   A    
C85   C90   A    
C66   C78   S    
C50   C53   A    
C21   O20   A    
Cr6   O20   S    
C8    H44   S    
C98   C99   A    
C51   H24   S    
C80   C91   S    
Cr5   O17   S    
C93   H58   S    
C6    C84   S    
C38   C41   A    
C92   H57   S    
Cr2   O8    S    
C68   H32   S    
C14   C77   S    
C81   H6    S    
C110  C111  A    
C36   O11   A    
C115  C116  A    
C11   C83   S    
C93   C94   A    
C47   C59   A    
C112  C117  A    
C10   C82   S    
C41   H29   S    
C49   C58   A    
C31   C37   A    
Cr6   O23   S    
C60   C61   S    
C80   H5    S    
C21   O4    A    
C122  H83   S    
Cr6   O17   S    
C69   C72   S    
Cr2   O14   S    
Cr1   O10   S    
C95   C96   A    
Cr6   O6    S    
Cr2   O11   S    
C5    C8    S    
C112  C113  A    
C9    H48   S    
C44   C56   A    
C25   H10   S    
C107  C108  A    
C13   C76   S    
C121  C122  A    
C23   C34   S    
C22   C40   A    
C116  C117  A    
C64   C76   S    
C20   O6    A    
C3    O2    A    
C99   H63   S    
C104  H68   S    
C6    H51   S    
C72   C84   S    
C97   C102  A    
C79   H4    S    
C66   H3    S    
C9    H45   S    
C43   C55   A    
C85   C86   A    
C62   O25   A    
C22   C25   A    
C104  O28   D    
C69   H36   S    
Cr4   O24   S    
Cr4   O17   S    
C49   H22   S    
C20   O19   A    
Cr4   O4    S    
C2    O1    A    
C64   C79   S    
C71   H38   S    
C13   C16   T    
C120  C121  A    
C81   C84   S    
C89   C90   A    
C36   O15   A    
Cr5   O19   S    
C91   C96   A    
C45   C48   A    
C68   C77   S    
C19   O5    A    
C3    O9    A    
C33   C57   S    
C65   C77   S    
C30   C33   A    
C30   H18   S    
C114  H76   S    
C59   C63   S    
C8    H47   S    
C28   C31   A    
C11   C74   T    
Cr1   O1    S    
C79   C82   S    
C109  H72   S    
C52   C55   A    
C7    H43   S    
C7    C76   S    
C51   C60   A    
C29   C32   A    
C22   C36   S    
C88   H54   S    
C27   H12   S    
C1    C17   S    
C116  H78   S    
C23   C41   A    
C51   C54   A    
C19   O18   A    
C81   C97   S    
C50   H23   S    
C19   C75   S    
C39   C118  S    
C1    O3    A    
C115  H77   S    
C6    H9    S    
C66   C81   S    
Cr3   O9    S    
C42   H30   S    
C8    C77   S    
C52   H19   S    
C68   C71   S    
Cr4   O21   S    
C21   C74   S    
C48   C105  S    
C118  C119  A    
C65   H26   S    
C32   C56   S    
C54   H21   S    
C101  C102  A    
C61   O24   A    
Cr1   O13   S    
C89   H55   S    
C113  C114  A    
C70   C82   S    
C43   C46   A    
C43   H13   S    
Cr5   O25   S    
C34   O12   A    
C118  C123  A    
C53   H20   S    
C71   H41   S    
C91   C92   A    
C67   C70   S    
Cr3   O16   S    
C7    H46   S    
C4    C82   S    
C5    H8    S    
C26   C29   A    
C106  C107  A    
C87   C88   A    
C12   C75   T    
C53   C56   A    
C105  O29   D    
C105  H69   S    
C96   H61   S    
C29   H17   S    
C1    O7    A    
Cr1   O7    S    
C67   C76   S    
C64   H1    S    
C31   C55   S    
C111  H74   S    
C68   H35   S    
Cr5   O22   S    
C121  H82   S    
C100  H64   S    
C3    C16   S    
C106  C111  A    
C4    H49   S    
C54   C57   A    
