data_mof_unit_60873.cif
_audit_creation_date              2012-12-10T21:36:32-0500
_audit_creation_method            fapswitch 2.2
_symmetry_space_group_name_H-M    P1
_symmetry_Int_Tables_number       1
_space_group_crystal_system       triclinic
_cell_length_a                    10.536702
_cell_length_b                    16.229132
_cell_length_c                    16.674686
_cell_angle_alpha                 86.460888
_cell_angle_beta                  91.481712
_cell_angle_gamma                 91.660133
_cell_volume                      2843.93628265

loop_
_atom_site_label
_atom_site_type_symbol
_atom_type_description
_atom_site_fract_x
_atom_site_fract_y
_atom_site_fract_z
_atom_type_partial_charge
C1    C     C_R   0.500291 0.487892 0.652938 1.064587
C2    C     C_R   0.567385 0.237054 0.538168 0.380172
C3    C     C_R   0.427398 0.849631 0.466360 0.209811
C4    C     C_R   0.572601 0.150369 0.533640 0.209810
C5    C     C_R   0.512362 0.890245 0.519035 -0.008934
C6    C     C_R   0.487638 0.109755 0.480965 -0.008933
C7    C     C_R   0.596801 0.841754 0.566416 0.535205
C8    C     C_R   0.403199 0.158246 0.433584 0.535205
C9    C     C_R   0.597990 0.755679 0.560754 0.314271
C10   C     C_R   0.402010 0.244321 0.439245 0.314271
C11   C     C_R   0.742225 0.499374 0.500130 1.115150
C12   C     C_R   0.499709 0.512108 0.347062 1.064588
C13   C     C_R   0.257774 0.500626 0.499870 1.115148
C14   C     C_3   0.957273 0.422554 0.490713 0.516409
C15   C     C_3   0.042727 0.577445 0.509286 0.516409
C16   C     C_3   0.043048 0.449844 0.560646 0.480955
C17   C     C_3   0.956952 0.550156 0.439354 0.480955
C18   C     C_3   0.123604 0.501697 0.500003 -0.672633
C19   C     C_3   0.876396 0.498303 0.499997 -0.672633
C20   C     C_3   0.038324 0.474458 0.430094 0.490452
C21   C     C_3   0.961676 0.525542 0.569906 0.490452
C22   C     C_R   0.506398 0.476876 0.739542 -0.471396
C23   C     C_R   0.513573 0.460662 0.906345 -0.044931
C24   C     C_R   0.493603 0.523124 0.260458 -0.471395
C25   C     C_R   0.606160 0.514225 0.782016 0.563253
C26   C     C_R   0.393841 0.485775 0.217984 0.563252
C27   C     C_R   0.611225 0.505428 0.865340 0.286595
C28   C     C_R   0.388776 0.494572 0.134660 0.286596
C29   C     C_R   0.486429 0.539337 0.093655 -0.044932
C30   C     C_R   0.420682 0.416720 0.863328 0.304764
C31   C     C_R   0.579321 0.583278 0.136673 0.304765
C32   C     C_R   0.416848 0.425228 0.779751 0.541353
C33   C     C_R   0.583154 0.574771 0.220249 0.541352
C34   C     C_R   0.432615 0.762946 0.461832 0.380171
Cl1   Cl    Cl    0.708409 0.699341 0.620309 -0.231517
Cl2   Cl    Cl    0.307964 0.903871 0.410411 -0.259886
Cl3   Cl    Cl    0.291591 0.300659 0.379691 -0.231518
Cl4   Cl    Cl    0.257528 0.451297 0.083178 -0.256251
Cl5   Cl    Cl    0.742474 0.548702 0.916821 -0.256250
Cl6   Cl    Cl    0.305166 0.353589 0.913080 -0.247546
Cl7   Cl    Cl    0.694838 0.646409 0.086920 -0.247546
Cl8   Cl    Cl    0.669731 0.285790 0.606836 -0.327458
Cl9   Cl    Cl    0.330269 0.714210 0.393164 -0.327458
Cl10  Cl    Cl    0.692036 0.096129 0.589589 -0.259885
F1    F     F_    0.090672 0.398631 0.622921 -0.473676
F2    F     F_    0.700260 0.557045 0.742429 -0.491576
F3    F     F_    0.323563 0.385746 0.737908 -0.511818
F4    F     F_    0.676438 0.614253 0.262092 -0.511818
F5    F     F_    0.909328 0.601369 0.377079 -0.473675
F6    F     F_    0.678503 0.878513 0.618423 -0.495626
F7    F     F_    0.321497 0.121487 0.381577 -0.495626
F8    F     F_    0.911351 0.343015 0.481042 -0.493257
F9    F     F_    0.088649 0.656985 0.518958 -0.493257
F10   F     F_    0.080565 0.448771 0.358191 -0.461383
F11   F     F_    0.919434 0.551229 0.641809 -0.461383
F12   F     F_    0.299740 0.442955 0.257571 -0.491576
N1    N     N_2   0.502775 0.463753 0.989923 -0.012917
N2    N     N_2   0.497228 0.536246 0.010077 -0.012918
N3    N     N_R   0.515540 0.716920 0.509720 -0.234971
N4    N     N_R   0.484460 0.283080 0.490280 -0.234971
N5    N     N_2   0.511212 0.977247 0.530886 0.020113
N6    N     N_2   0.488787 0.022753 0.469114 0.020113
O1    O     O_R   0.494440 0.422540 0.612660 -0.566762
O2    O     O_R   0.505560 0.577460 0.387340 -0.566762
O3    O     O_R   0.504420 0.561850 0.618900 -0.584604
O4    O     O_R   0.495580 0.438150 0.381100 -0.584605
O5    O     O_R   0.681060 0.430360 0.496900 -0.574323
O6    O     O_R   0.318940 0.569640 0.503100 -0.574323
O7    O     O_R   0.691040 0.569670 0.503140 -0.552610
O8    O     O_R   0.308960 0.430330 0.496860 -0.552609
Zn1   Zn    Zn3+2 0.493340 0.406980 0.495830 1.150985
Zn2   Zn    Zn3+2 0.506660 0.593020 0.504170 1.150985

loop_
_geom_bond_atom_site_label_1
_geom_bond_atom_site_label_2
_ccdc_geom_bond_type
C15   C18   S    
C16   C21   S    
C2    C4    A    
C11   C19   S    
C22   C32   A    
C13   C18   S    
C10   Cl3   S    
C15   F9    S    
C28   C29   A    
C19   C21   S    
C24   C26   A    
C12   O2    A    
C2    N4    A    
C13   O8    A    
C17   C20   S    
C23   N1    S    
C14   F8    S    
C27   Cl5   S    
C22   C25   A    
C1    O3    A    
C31   C33   A    
O8    Zn1   S    
C23   C27   A    
C18   C20   S    
N3    Zn2   S    
C1    C22   S    
C1    O1    A    
C11   O5    A    
C5    N5    S    
C23   C30   A    
C14   C20   S    
C4    C6    A    
C17   F5    S    
C5    C7    A    
C6    C8    A    
C4    Cl10  S    
C3    C34   A    
C12   O4    A    
C9    N3    A    
O7    Zn2   S    
C10   N4    A    
O4    Zn1   S    
C28   Cl4   S    
O6    Zn2   S    
C30   Cl6   S    
C8    F7    S    
C20   F10   S    
O1    Zn1   S    
C34   N3    A    
C32   F3    S    
C14   C16   S    
C21   F11   S    
C15   C17   S    
C31   Cl7   S    
C14   C19   S    
C8    C10   A    
C34   Cl9   S    
C7    F6    S    
C3    C5    A    
C26   F12   S    
C16   F1    S    
C11   O7    A    
C25   C27   A    
O3    Zn2   S    
C12   C24   S    
C26   C28   A    
C24   C33   A    
N4    Zn1   S    
C6    N6    S    
C29   C31   A    
C30   C32   A    
N1    N2    D    
C3    Cl2   S    
C2    Cl8   S    
C17   C19   S    
O5    Zn1   S    
O2    Zn2   S    
N5    N6    D    
C7    C9    A    
C15   C21   S    
C29   N2    S    
C16   C18   S    
C9    Cl1   S    
C33   F4    S    
C25   F2    S    
C13   O6    A    
