data_mof_unit_44839.cif
_audit_creation_date              2012-12-11T14:49:30-0500
_audit_creation_method            fapswitch 2.2
_symmetry_space_group_name_H-M    P1
_symmetry_Int_Tables_number       1
_space_group_crystal_system       triclinic
_cell_length_a                    16.935034
_cell_length_b                    16.755597
_cell_length_c                    19.586086
_cell_angle_alpha                 118.070728
_cell_angle_beta                  63.744238
_cell_angle_gamma                 100.549712
_cell_volume                      4395.76209367

loop_
_atom_site_label
_atom_site_type_symbol
_atom_type_description
_atom_site_fract_x
_atom_site_fract_y
_atom_site_fract_z
_atom_type_partial_charge
C1    C     C_R   0.031307 0.761534 0.020323 -0.007971
C2    C     C_R   0.237646 0.576370 0.837473 -0.124639
C3    C     C_R   0.184510 0.490733 0.087335 -0.136879
C4    C     C_R   0.758994 0.432277 0.168244 -0.188244
C5    C     C_R   0.045958 0.325422 0.753304 -0.068412
C6    C     C_R   0.258437 0.540070 0.064045 0.061271
C7    C     C_R   0.035654 0.239011 0.747888 0.040534
C8    C     C_R   0.235073 0.555781 0.762205 -0.017041
C9    C     C_R   0.014171 0.225097 0.019138 0.053964
C10   C     C_R   0.135185 0.159242 0.594639 -0.251706
C11   C     C_R   0.079244 0.155566 0.671650 0.117272
C12   C     C_R   0.759445 0.466115 0.247116 0.109351
C13   C     C_R   0.058354 0.071163 0.673112 -0.249402
C14   C     C_R   0.079434 0.992049 0.597239 0.137669
C15   C     C_R   0.123982 0.997815 0.519549 0.028489
C16   C     C_R   0.804686 0.558159 0.958708 -0.090205
C17   C     C_R   0.155972 0.081070 0.518297 0.136547
C18   C     C_R   0.048523 0.908745 0.597789 -0.202663
C19   C     C_R   0.053175 0.833842 0.522619 -0.198428
C20   C     C_R   0.088365 0.842054 0.446646 0.137923
C21   C     C_R   0.128080 0.922768 0.444110 0.028907
C22   C     C_R   0.163157 0.931734 0.368056 0.138525
C23   C     C_R   0.724572 0.545826 0.017080 0.037398
C24   C     C_R   0.203172 0.012023 0.365971 -0.200051
C25   C     C_R   0.199893 0.086434 0.440889 -0.194754
C26   C     C_R   0.076061 0.774801 0.375802 -0.249255
C27   C     C_R   0.099476 0.789165 0.304089 0.110362
C28   C     C_R   0.011259 0.658531 0.240619 -0.134416
C29   C     C_R   0.149248 0.864312 0.298093 -0.243957
C30   C     C_R   0.382144 0.496570 0.668562 -0.272090
C31   C     C_R   0.312879 0.549698 0.690115 0.131022
C32   C     C_R   0.317686 0.592089 0.642265 -0.168008
C33   C     C_R   0.392254 0.577117 0.568110 0.116486
C34   C     C_R   0.062953 0.732328 0.241089 0.068615
C35   C     C_R   0.462323 0.521540 0.544726 0.033367
C36   C     C_R   0.457291 0.482525 0.596285 0.137924
C37   C     C_R   0.397319 0.615132 0.516378 -0.180926
C38   C     C_R   0.471384 0.597634 0.441130 -0.204140
C39   C     C_R   0.540696 0.542681 0.417921 0.143239
C40   C     C_R   0.739591 0.481646 0.035971 -0.126010
C41   C     C_R   0.536881 0.504417 0.469714 0.042991
C42   C     C_R   0.607405 0.449358 0.446795 0.036899
C43   C     C_R   0.601337 0.412971 0.500678 -0.199094
C44   C     C_R   0.526431 0.428980 0.574529 -0.184696
C45   C     C_R   0.250696 0.567364 0.010624 -0.132998
C46   C     C_R   0.614385 0.526311 0.343953 -0.281425
C47   C     C_R   0.684452 0.474027 0.321996 0.044288
C48   C     C_R   0.682811 0.434444 0.371932 -0.091723
C49   C     C_R   0.638950 0.589076 0.050707 0.137185
C50   C     C_R   0.326554 0.568201 0.097253 0.126766
C51   C     C_R   0.408816 0.538714 0.157757 -0.220652
C52   C     C_R   0.083130 0.734459 0.165193 -0.087103
C53   C     C_R   0.332248 0.530520 0.145648 -0.165915
C54   C     C_R   0.392934 0.624800 0.071745 -0.274416
C55   C     C_R   0.471955 0.627530 0.077886 0.187213
C56   C     C_R   0.975198 0.246668 0.827318 -0.131165
C57   C     C_R   0.481078 0.580817 0.118068 0.184149
C58   C     C_R   0.564394 0.566395 0.108046 -0.277031
C59   C     C_R   0.628915 0.645095 0.019524 -0.170221
C60   C     C_R   0.545168 0.665887 0.034672 -0.220200
C61   C     C_R   0.824344 0.187888 0.169159 0.096157
C62   C     C_R   0.937741 0.863262 0.013058 0.134373
C63   C     C_R   0.810124 0.942047 0.042603 -0.229536
C64   C     C_R   0.837458 0.507567 0.245635 -0.044480
C65   C     C_R   0.856442 0.861850 0.008834 -0.159071
C66   C     C_R   0.973619 0.947558 0.048086 -0.220774
C67   C     C_R   0.157892 0.511464 0.760976 -0.080672
C68   C     C_R   0.924826 0.028049 0.087208 0.177646
C69   C     C_R   0.842530 0.025364 0.084011 0.188011
C70   C     C_R   0.793420 0.105943 0.123933 -0.285280
C71   C     C_R   0.904418 0.190246 0.174393 -0.138553
C72   C     C_R   0.955429 0.111001 0.132344 -0.226378
C73   C     C_R   0.956843 0.691194 0.939899 -0.118962
C74   C     C_R   0.977814 0.776772 0.989374 -0.050878
C75   C     C_2   0.082907 0.828341 0.063679 0.913655
C76   C     C_2   0.115294 0.500315 0.705618 0.943071
C77   C     C_2   0.756848 0.375436 0.345180 0.474599
C78   C     C_R   0.044768 0.309437 0.059321 -0.107354
C79   C     C_R   0.961197 0.240509 0.988543 -0.119054
H1    H     H_    0.949081 0.192107 0.844356 0.094750
H2    H     H_    0.710036 0.390004 0.147384 0.105994
H3    H     H_    0.023700 0.771568 0.525011 0.136197
H4    H     H_    0.041057 0.715511 0.380378 0.121597
H5    H     H_    0.170420 0.875168 0.242368 0.124348
H6    H     H_    0.231762 0.019187 0.307590 0.135171
H7    H     H_    0.226030 0.149811 0.439071 0.140199
H8    H     H_    0.376337 0.464376 0.707408 0.135810
H9    H     H_    0.263006 0.634318 0.661744 0.138259
H10   H     H_    0.343915 0.657560 0.533744 0.137493
H11   H     H_    0.474640 0.627122 0.401179 0.134439
H12   H     H_    0.083205 0.324653 0.095495 0.099228
H13   H     H_    0.618517 0.556151 0.303821 0.138774
H14   H     H_    0.814700 0.598378 0.926345 0.087748
H15   H     H_    0.654026 0.372395 0.486961 0.126732
H16   H     H_    0.522623 0.399597 0.614750 0.130910
H17   H     H_    0.570390 0.528383 0.137438 0.115913
H18   H     H_    0.685104 0.667946 0.978914 0.111944
H19   H     H_    0.414621 0.503966 0.190155 0.130162
H20   H     H_    0.538659 0.703729 0.005167 0.129713
H21   H     H_    0.280812 0.489306 0.168951 0.118714
H22   H     H_    0.388329 0.658501 0.038220 0.120040
H23   H     H_    0.918411 0.191517 0.963080 0.094621
H24   H     H_    0.730666 0.105523 0.121548 0.128200
H25   H     H_    0.994276 0.627357 0.282407 0.094652
H26   H     H_    0.928164 0.253912 0.209331 0.170389
H27   H     H_    0.747159 0.938607 0.039559 0.131269
H28   H     H_    0.017908 0.114378 0.136246 0.138544
H29   H     H_    0.826280 0.798603 0.982497 0.113825
H30   H     H_    0.038389 0.951613 0.047017 0.141157
H31   H     H_    0.692418 0.452424 0.075927 0.095943
H32   H     H_    0.136490 0.771150 0.138062 0.122899
H33   H     H_    0.860016 0.538765 0.296036 0.134072
H34   H     H_    0.286494 0.614793 0.860823 0.123250
H35   H     H_    0.926448 0.676392 0.897306 0.116118
H36   H     H_    0.289337 0.615987 0.988606 0.098925
H37   H     H_    0.082826 0.938230 0.168907 0.316912
H38   H     H_    0.001597 0.489843 0.692636 0.321904
H39   H     H_    0.743486 0.309871 0.345756 0.013444
H40   H     H_    0.163100 0.469875 0.137156 0.091670
H41   H     H_    0.088579 0.344710 0.704014 0.097541
H42   H     H_    0.156442 0.223157 0.592407 0.126395
H43   H     H_    0.019349 0.066743 0.732255 0.119073
H44   H     H_    0.015548 0.903041 0.656914 0.133173
N1    N     N_R   0.036080 0.671900 0.995420 -0.073314
N2    N     N_R   0.867430 0.509300 0.948100 -0.029777
N3    N     N_R   0.003360 0.617250 0.167070 -0.046465
N4    N     N_R   0.825450 0.461270 0.995400 -0.045515
N5    N     N_R   0.045340 0.665280 0.119770 -0.052800
N6    N     N_R   0.883740 0.497640 0.167070 -0.054648
N7    N     N_R   0.987050 0.628910 0.948110 -0.038577
N8    N     N_R   0.174550 0.538730 0.004600 -0.043251
N9    N     N_R   0.954660 0.334720 0.880230 -0.047911
N10   N     N_R   0.116260 0.502360 0.832930 -0.062394
N11   N     N_R   0.012950 0.371090 0.051890 -0.042074
N12   N     N_R   0.963920 0.328100 0.004580 -0.043436
N13   N     N_R   0.165290 0.545350 0.880240 -0.051134
N14   N     N_R   0.132570 0.490700 0.051900 -0.042411
N15   N     N_R   0.996640 0.382750 0.832930 -0.028175
N16   N     N_R   0.834710 0.454650 0.119760 -0.041829
Ni1   Ni    Ni4+2 0.104370 0.604370 0.000010 0.236074
Ni2   Ni    Ni4+2 0.895630 0.395630 0.999990 0.214450
Ni3   Ni    Ni4+2 0.991920 0.505780 0.891500 0.266642
Ni4   Ni    Ni4+2 0.008080 0.494220 0.108500 0.217572
O1    O     O_2   0.163313 0.823406 0.028087 -0.671350
O2    O     O_R   0.040066 0.896578 0.145575 -0.800323
O3    O     O_2   0.159588 0.492392 0.633642 -0.652683
O4    O     O_R   0.023486 0.498128 0.736024 -0.817144
O5    O     O_2   0.832417 0.400877 0.326147 -0.616680

loop_
_geom_bond_atom_site_label_1
_geom_bond_atom_site_label_2
_ccdc_geom_bond_type
C61   C70   A    
C66   C68   A    
C63   C65   A    
C26   H4    S    
C6    C45   A    
C27   C29   A    
N16   Ni2   S    
C41   C42   A    
C14   C18   A    
C54   H22   S    
C35   C36   A    
N13   Ni1   S    
C60   H20   S    
C52   N5    A    
C5    N15   A    
C39   C41   A    
C75   O2    S    
C7    C11   S    
C16   H14   S    
C50   C54   A    
C1    C74   A    
C22   C29   A    
C73   N7    A    
C9    C79   A    
C30   C31   A    
C12   C64   A    
C2    H34   S    
C23   C49   S    
C46   H13   S    
C10   C17   A    
N9    N15   A    
C23   C40   A    
C32   H9    S    
N3    Ni4   S    
C43   H15   S    
C18   C19   A    
N4    Ni2   S    
C58   H17   S    
N8    Ni1   S    
N11   Ni4   S    
C54   C55   A    
N10   Ni3   S    
C4    H2    S    
C63   C69   A    
C76   O4    S    
C68   C69   A    
N10   N13   A    
C79   H23   S    
C3    N14   A    
C4    C12   A    
C19   H3    S    
C16   N2    A    
C65   H29   S    
C75   O1    D    
C18   H44   S    
C55   C60   A    
C61   C71   A    
C51   H19   S    
N14   Ni4   S    
C76   O3    D    
C59   C60   A    
C53   H21   S    
C13   C14   A    
C7    C56   A    
C12   C47   S    
C35   C41   A    
C64   N6    A    
C28   N3    A    
C27   C34   S    
C50   C53   A    
C62   C66   A    
C5    H41   S    
C1    C75   S    
C24   C25   A    
C29   H5    S    
C77   H39   S    
N15   Ni3   S    
C5    C7    A    
C70   H24   S    
C40   H31   S    
C52   H32   S    
C40   N4    A    
C33   C37   A    
C49   C58   A    
C51   C53   A    
C48   C77   S    
C43   C44   A    
C37   C38   A    
N8    N14   A    
C28   H25   S    
C47   C48   A    
N6    N16   A    
C72   H28   S    
N12   Ni2   S    
N2    Ni3   S    
C68   C72   A    
C26   C27   A    
N1    N7    A    
C42   C48   A    
C6    C50   S    
C63   H27   S    
C78   N11   A    
C77   O5    D    
C56   N9    A    
C3    H40   S    
C39   C46   A    
C51   C57   A    
C45   N8    A    
C16   C23   A    
C71   H26   S    
C59   H18   S    
C22   C24   A    
C36   C44   A    
C42   C43   A    
C73   C74   A    
C24   H6    S    
N9    Ni2   S    
C15   C17   A    
H37   O2    S    
C46   C47   A    
N3    N5    A    
C62   C65   A    
C67   N10   A    
C8    C31   S    
N1    Ni1   S    
C31   C32   A    
C2    C8    A    
C45   H36   S    
C56   H1    S    
N11   N12   A    
N6    Ni4   S    
C30   C36   A    
C78   H12   S    
C79   N12   A    
C38   H11   S    
C34   C52   A    
C49   C59   A    
C37   H10   S    
H38   O4    S    
C17   C25   A    
C32   C33   A    
C19   C20   A    
C55   C57   A    
N5    Ni1   S    
C1    N1    A    
C71   C72   A    
C44   H16   S    
C4    N16   A    
C13   H43   S    
C11   C13   A    
C57   C58   A    
C38   C39   A    
C20   C26   A    
C25   H7    S    
C33   C35   A    
C10   H42   S    
C9    C78   A    
C66   H30   S    
C69   C70   A    
N7    Ni3   S    
C2    N13   A    
C64   H33   S    
C10   C11   A    
C73   H35   S    
C28   C34   A    
C15   C21   A    
C20   C21   A    
C8    C67   A    
C3    C6    A    
N2    N4    A    
C14   C15   A    
C62   C74   S    
C67   C76   S    
C30   H8    S    
C21   C22   A    
