data_mof_unit_11555.cif
_audit_creation_date              2012-12-11T19:16:32-0500
_audit_creation_method            fapswitch 2.2
_symmetry_space_group_name_H-M    P1
_symmetry_Int_Tables_number       1
_space_group_crystal_system       triclinic
_cell_length_a                    8.213257
_cell_length_b                    15.012945
_cell_length_c                    18.803842
_cell_angle_alpha                 101.719809
_cell_angle_beta                  91.511855
_cell_angle_gamma                 98.538335
_cell_volume                      2241.28118921

loop_
_atom_site_label
_atom_site_type_symbol
_atom_type_description
_atom_site_fract_x
_atom_site_fract_y
_atom_site_fract_z
_atom_type_partial_charge
Ba1   Ba    Ba6+2 0.853510 0.540900 0.466480 1.742745
Ba2   Ba    Ba6+2 0.336320 0.459170 0.533530 1.718122
C1    C     C_3   0.714807 0.853550 0.248970 0.652506
C2    C     C_R   0.901702 0.400800 0.087415 -0.136209
C3    C     C_R   0.761924 0.428145 0.950241 -0.094288
C4    C     C_3   0.145623 0.721644 0.273554 0.387254
C5    C     C_R   0.927912 0.461938 0.974789 0.038992
C6    C     C_R   0.704672 0.428054 0.880136 -0.089580
C7    C     C_R   0.809131 0.463171 0.831324 -0.020345
C8    C     C_R   0.971938 0.505530 0.856166 0.022968
C9    C     C_R   0.031513 0.505456 0.928446 0.034739
C10   C     C_R   0.754929 0.457516 0.758476 0.034082
C11   C     C_R   0.862331 0.493772 0.711096 -0.208770
C12   C     C_3   0.623823 0.762794 0.263752 0.296748
C13   C     C_R   0.021009 0.539937 0.734846 -0.006896
C14   C     C_R   0.074933 0.548021 0.808924 -0.075710
C15   C     C_R   0.152369 0.499085 0.070484 0.020734
C16   C     C_3   0.125493 0.739859 0.197313 -0.310586
C17   C     C_R   0.210747 0.497924 0.142824 -0.059607
C18   C     C_R   0.108578 0.451867 0.189031 -0.045945
C19   C     C_R   0.959455 0.396197 0.157308 0.433174
C20   C     C_R   0.227749 0.598096 0.837678 0.027680
C21   C     C_R   0.287226 0.597619 0.907710 -0.045341
C22   C     C_R   0.194232 0.548282 0.953571 -0.013545
C23   C     C_3   0.456662 0.310813 0.308828 0.315632
C24   C     C_R   0.256221 0.543228 0.024251 0.030901
C25   C     C_R   0.421402 0.577633 0.049398 -0.071059
C26   C     C_R   0.373366 0.541034 0.168068 -0.026800
C27   C     C_R   0.478375 0.575994 0.119247 -0.081753
C28   C     C_3   0.217050 0.740478 0.619867 0.418749
C29   C     C_R   0.426944 0.547612 0.241225 -0.027299
C30   C     C_R   0.318798 0.511850 0.288390 -0.313602
C31   C     C_R   0.162764 0.461963 0.264055 0.061011
C32   C     C_R   0.343593 0.819931 0.448493 -0.053989
C33   C     C_R   0.579625 0.793200 0.517377 0.001167
C34   C     C_3   0.407976 0.276379 0.228210 -0.323295
C35   C     C_R   0.764509 0.230801 0.518390 -0.279394
C36   C     C_R   0.858893 0.173883 0.544899 -0.003442
C37   C     C_R   0.798130 0.080267 0.537310 -0.144869
C38   C     C_R   0.640865 0.041771 0.501771 0.025020
C39   C     C_R   0.550586 0.100465 0.471320 -0.008594
C40   C     C_3   0.262311 0.845771 0.633272 0.409282
C41   C     C_R   0.571181 0.946967 0.494251 0.050300
C42   C     C_R   0.413311 0.913471 0.456971 -0.014088
C43   C     C_R   0.328219 0.973824 0.428948 -0.073591
C44   C     C_R   0.397031 0.064482 0.434314 0.027875
C45   C     C_3   0.067816 0.280425 0.724869 0.414180
C46   C     C_R   0.650731 0.884924 0.524512 -0.130808
C47   C     C_R   0.432105 0.760018 0.475411 -0.251787
C48   C     C_R   0.615459 0.194430 0.478877 0.023976
C49   C     C_3   0.952901 0.255703 0.372263 0.300698
C50   C     C_3   0.924034 0.151070 0.350638 -0.347515
C51   C     C_3   0.626917 0.770845 0.705355 0.681107
C52   C     C_3   0.666217 0.876211 0.722939 -0.244783
C53   C     C_3   0.067090 0.257437 0.799972 -0.359458
C54   C     C_3   0.613960 0.239657 0.717449 0.269952
C55   C     C_3   0.551045 0.137235 0.706370 -0.269393
C56   C     C_R   0.991191 0.455417 0.044628 -0.023763
H1    H     H_    0.573221 0.775412 0.318633 0.001630
H2    H     H_    0.787622 0.900253 0.753202 0.210774
H3    H     H_    0.572142 0.905411 0.757997 0.116863
H4    H     H_    0.666623 0.903999 0.672833 0.029521
H5    H     H_    0.521272 0.735014 0.221956 -0.042406
H6    H     H_    0.350780 0.338520 0.335791 -0.007527
H7    H     H_    0.564210 0.366681 0.315148 0.062632
H8    H     H_    0.291295 0.226645 0.220964 0.149450
H9    H     H_    0.389806 0.334954 0.202763 0.037678
H10   H     H_    0.506161 0.241625 0.200465 0.150912
H11   H     H_    0.805540 0.837384 0.207051 0.018179
H12   H     H_    0.388142 0.868397 0.656855 -0.095709
H13   H     H_    0.196652 0.696129 0.159295 0.092149
H14   H     H_    0.165759 0.339643 0.725595 0.096741
H15   H     H_    0.947855 0.300826 0.712399 -0.152105
H16   H     H_    0.042709 0.317527 0.841078 0.066101
H17   H     H_    0.969403 0.197985 0.800693 0.114596
H18   H     H_    0.188642 0.239793 0.814383 0.148479
H19   H     H_    0.707961 0.258827 0.763662 0.000681
H20   H     H_    0.670316 0.251641 0.666364 -0.015893
H21   H     H_    0.654693 0.097876 0.693562 0.052818
H22   H     H_    0.456580 0.115947 0.660265 0.170219
H23   H     H_    0.257199 0.868074 0.580986 -0.060588
H24   H     H_    0.076823 0.652094 0.273701 0.068334
H25   H     H_    0.497122 0.121549 0.756785 0.163532
H26   H     H_    0.820145 0.487981 0.655112 0.070640
H27   H     H_    0.576775 0.399756 0.864990 0.094955
H28   H     H_    0.303186 0.638606 0.806261 0.171467
H29   H     H_    0.606360 0.603789 0.134491 0.094676
H30   H     H_    0.360596 0.518660 0.344566 0.064649
H31   H     H_    0.671145 0.402661 0.984646 0.075859
H32   H     H_    0.788290 0.356517 0.065977 0.060388
H33   H     H_    0.406279 0.638406 0.924813 0.137511
H34   H     H_    0.837272 0.279966 0.389786 -0.008539
H35   H     H_    0.278606 0.722934 0.286606 -0.148906
H36   H     H_    0.511705 0.605250 0.015816 0.092783
H37   H     H_    0.379824 0.688033 0.468160 0.074585
H38   H     H_    0.208569 0.951588 0.400469 0.107954
H39   H     H_    0.767220 0.905842 0.554429 0.134944
H40   H     H_    0.812518 0.303260 0.524541 0.056468
H41   H     H_    0.877513 0.039980 0.558895 0.114918
H42   H     H_    0.325613 0.105659 0.409106 0.099029
H43   H     H_    0.993792 0.723361 0.177689 0.122560
H44   H     H_    0.171078 0.813163 0.197144 0.175736
H45   H     H_    0.048619 0.277400 0.417619 0.057285
H46   H     H_    0.315707 0.708505 0.590734 -0.245056
H47   H     H_    0.105760 0.719259 0.583968 0.074346
H48   H     H_    0.126326 0.048505 0.742025 0.368093
H49   H     H_    0.908553 0.718623 0.790670 0.345494
H50   H     H_    0.887120 0.949785 0.299366 0.308670
H51   H     H_    0.389717 0.894173 0.287870 0.301296
H52   H     H_    0.775333 0.299071 0.162705 0.295630
H53   H     H_    0.819295 0.127566 0.309341 0.196617
H54   H     H_    0.895134 0.120236 0.398341 0.068103
H55   H     H_    0.036556 0.126543 0.327632 0.123565
H56   H     H_    0.499284 0.746540 0.684633 -0.056220
O1    O     O_2   0.871970 0.437290 0.322980 -0.421709
O2    O     O_2   0.200358 0.179574 0.542402 -0.471971
O3    O     O_3   0.098471 0.203652 0.673555 -0.568819
O4    O     O_3   0.121420 0.444460 0.412460 -0.516389
O5    O     O_3   0.580410 0.613230 0.540280 -0.471952
O6    O     O_2   0.337420 0.273080 0.457680 -0.477808
O7    O     O_3   0.498034 0.237436 0.337740 -0.615154
O8    O     O_2   0.411227 0.456255 0.754061 -0.469373
O9    O     O_3   0.483408 0.289638 0.734361 -0.593246
O10   O     O_3   0.661430 0.607560 0.372520 -0.464277
O11   O     O_2   0.756031 0.528734 0.245537 -0.479126
O12   O     O_3   0.736777 0.731589 0.657083 -0.596333
O13   O     O_3   0.002859 0.290358 0.311552 -0.577988
O14   O     O_3   0.736434 0.700468 0.259458 -0.605784
O15   O     O_2   0.852280 0.726960 0.542370 -0.431004
O16   O     O_3   0.083990 0.657360 0.410240 -0.499537
O17   O     O_2   0.002802 0.821545 0.459051 -0.443149
O18   O     O_2   0.969386 0.898259 0.647531 -0.362676
O19   O     O_2   0.100885 0.868574 0.757716 -0.244110
O20   O     O_3   0.211353 0.018354 0.714333 -0.525535
O21   O     O_2   0.541344 0.777015 0.843494 -0.279981
O22   O     O_2   0.604011 0.630316 0.775432 -0.345758
O23   O     O_3   0.082909 0.789287 0.323635 -0.567588
O24   O     O_3   0.847402 0.761776 0.822245 -0.443519
O25   O     O_3   0.796355 0.906682 0.313644 -0.709943
O26   O     O_2   0.675809 0.001334 0.193998 -0.247244
O27   O     O_2   0.484601 0.859582 0.145383 -0.299621
O28   O     O_3   0.443107 0.951634 0.274718 -0.497572
O29   O     O_3   0.874330 0.333591 0.192813 -0.689417
O30   O     O_2   0.317740 0.562750 0.677070 -0.430251
O31   O     O_3   0.068290 0.555610 0.587550 -0.502283
O32   O     O_3   0.528280 0.392520 0.627490 -0.458427
O33   O     O_3   0.194835 0.710052 0.685305 -0.601743
O34   O     O_3   0.609300 0.386850 0.459730 -0.490125
O35   O     O_3   0.105720 0.342720 0.589770 -0.503634
P1    P     P_3+3 0.039440 0.410950 0.333260 1.047672
P2    P     P_3+3 0.676740 0.714970 0.563520 1.033336
P3    P     P_3+3 0.129078 0.774095 0.411413 0.982751
P4    P     P_3+3 0.150270 0.589130 0.666750 1.034236
P5    P     P_3+3 0.066136 0.224088 0.586328 0.987752
P6    P     P_3+3 0.640761 0.596556 0.278506 0.954084
P7    P     P_3+3 0.518008 0.271356 0.432651 0.951227
P8    P     P_3+3 0.545519 0.401322 0.720790 1.006180
S1    S     S_3+6 0.128807 0.906644 0.690339 -0.068658
S2    S     S_3+6 0.650699 0.732848 0.788645 -0.054936
S3    S     S_3+6 0.577256 0.917686 0.213039 -0.060649

loop_
_geom_bond_atom_site_label_1
_geom_bond_atom_site_label_2
_ccdc_geom_bond_type
C4    H24   S    
O7    P7    S    
C25   C27   A    
Ba2   O30   S    
C55   H21   S    
Ba1   O31   S    
C17   C18   A    
C40   H12   S    
O35   P5    S    
Ba2   O4    S    
C34   H9    S    
C12   O14   S    
C28   O33   S    
O32   P8    S    
C52   H2    S    
C50   H55   S    
C51   H56   S    
Ba2   O31   S    
C5    C9    A    
C12   H1    S    
O34   P7    S    
C11   H26   S    
C24   C25   A    
C15   C24   A    
C6    H27   S    
C26   C27   A    
C1    H11   S    
C22   C24   A    
O15   P2    D    
Ba1   O15   S    
C31   P1    S    
O13   P1    S    
Ba1   O5    S    
C36   C37   A    
C34   H8    S    
C50   H54   S    
C49   H45   S    
C13   C14   A    
C30   H30   S    
C9    C22   A    
O6    P7    D    
C54   H20   S    
C54   C55   S    
Ba1   Ba2   S    
C16   H44   S    
O30   P4    D    
O4    P1    S    
C13   P4    S    
O14   P6    S    
C53   H16   S    
O24   S2    S    
C38   C41   A    
C48   P7    S    
C6    C7    A    
C33   C47   A    
C14   C20   A    
C39   C44   A    
C55   H25   S    
O23   P3    S    
H51   O28   S    
C10   P8    S    
C41   C46   A    
C5    C56   A    
O2    P5    D    
C15   C56   A    
C53   H17   S    
Ba2   O35   S    
O22   S2    D    
C55   H22   S    
O17   P3    D    
C40   S1    S    
C40   H23   S    
C33   P2    S    
O33   P4    S    
C33   C46   A    
C35   H40   S    
C2    H32   S    
O5    P2    S    
C4    C16   S    
C51   S2    S    
O21   S2    D    
C49   C50   S    
C54   O9    S    
C32   C42   A    
C45   H15   S    
Ba1   O16   S    
C51   O12   S    
C37   C38   A    
C3    C5    A    
C32   P3    S    
O9    P8    S    
C50   H53   S    
C43   C44   A    
Ba2   O34   S    
O18   S1    D    
C54   H19   S    
C16   H43   S    
C41   C42   A    
C35   C36   A    
C46   H39   S    
C49   H34   S    
H50   O25   S    
O12   P2    S    
O27   S3    D    
C37   H41   S    
C29   C30   A    
C45   O3    S    
C21   C22   A    
C4    H35   S    
C18   C19   A    
C23   H7    S    
Ba1   P1    S    
C47   H37   S    
C17   C26   A    
C19   O29   S    
C1    C12   S    
C18   C31   A    
C38   C39   A    
O20   S1    S    
Ba2   P4    S    
C11   C13   A    
C28   H47   S    
O16   P3    S    
C1    S3    S    
C21   H33   S    
C1    O25   S    
C53   H18   S    
C2    C56   A    
C39   C48   A    
C42   C43   A    
C45   C53   S    
C7    C8    A    
C16   H13   S    
C44   H42   S    
C32   C47   A    
Ba2   O6    S    
C26   C29   A    
O28   S3    S    
C25   H36   S    
C3    C6    A    
C29   P6    S    
Ba2   O5    S    
C34   H10   S    
C51   C52   S    
C52   H3    S    
Ba2   O32   S    
C52   H4    S    
C49   O13   S    
C30   C31   A    
C4    O23   S    
Ba1   O10   S    
O31   P4    S    
C8    C14   A    
O26   S3    D    
C2    C19   A    
H49   O24   S    
C12   H5    S    
O1    P1    D    
C35   C48   A    
C15   C17   A    
O8    P8    D    
Ba1   P2    S    
Ba1   O4    S    
C20   H28   S    
H52   O29   S    
O19   S1    D    
C7    C10   A    
C45   H14   S    
C27   H29   S    
C8    C9    A    
C23   C34   S    
H48   O20   S    
C10   C11   A    
O10   P6    S    
C28   H46   S    
O3    P5    S    
C36   P5    S    
C20   C21   A    
C28   C40   S    
Ba1   O34   S    
Ba1   O1    S    
C43   H38   S    
C23   O7    S    
C23   H6    S    
C3    H31   S    
O11   P6    D    
