data_mof_unit_51322.cif
_audit_creation_date              2012-10-26T20:16:40-0400
_audit_creation_method            fapswitch 2.2
_symmetry_space_group_name_H-M    P1
_symmetry_Int_Tables_number       1
_space_group_crystal_system       triclinic
_cell_length_a                    10.906691
_cell_length_b                    10.905076
_cell_length_c                    9.801667
_cell_angle_alpha                 98.737119
_cell_angle_beta                  98.727445
_cell_angle_gamma                 92.979429
_cell_volume                      1135.56015991

loop_
_atom_site_label
_atom_site_type_symbol
_atom_type_description
_atom_site_fract_x
_atom_site_fract_y
_atom_site_fract_z
_atom_type_partial_charge
C1    C     C_R   0.500940 0.261969 0.499287 0.543815
C2    C     C_R   0.672489 0.949028 0.849650 -0.095829
C3    C     C_R   0.447543 0.076585 0.228527 0.061377
C4    C     C_R   0.552467 0.923416 0.771473 0.061377
C5    C     C_R   0.541957 0.132152 0.169849 -0.030154
C6    C     C_R   0.458055 0.867850 0.830155 -0.030153
C7    C     C_R   0.514956 0.166406 0.037360 -0.093019
C8    C     C_R   0.485060 0.833597 0.962646 -0.093022
C9    C     C_R   0.394712 0.142263 0.961106 -0.122708
C10   C     C_R   0.605305 0.857741 0.038896 -0.122708
C11   C     C_R   0.471572 0.914919 0.375978 -0.165855
C12   C     C_R   0.499061 0.738031 0.500712 0.543816
C13   C     C_R   0.528434 0.085081 0.624022 -0.165855
C14   C     C_R   0.497775 0.872247 0.503791 -0.008734
C15   C     C_R   0.502229 0.127753 0.496209 -0.008734
C16   C     C_R   0.261971 0.500938 0.499287 0.543762
C17   C     C_R   0.738029 0.499061 0.500713 0.543761
C18   C     C_R   0.525289 0.958805 0.630336 -0.032949
C19   C     C_R   0.474717 0.041196 0.369664 -0.032950
C20   C     C_2   0.510772 0.510300 0.078979 -0.042913
C21   C     C_2   0.489227 0.489701 0.921020 -0.042912
C22   C     C_R   0.166081 0.514546 0.037094 -0.093851
C23   C     C_R   0.872247 0.497794 0.503795 -0.008769
C24   C     C_R   0.833913 0.485427 0.962899 -0.093845
C25   C     C_R   0.132117 0.541617 0.169728 -0.030178
C26   C     C_R   0.867880 0.458364 0.830265 -0.030180
C27   C     C_R   0.076574 0.447270 0.228532 0.061408
C28   C     C_R   0.923425 0.552716 0.771469 0.061408
C29   C     C_R   0.050767 0.327227 0.150374 -0.095923
C30   C     C_R   0.949231 0.672756 0.849635 -0.095922
C31   C     C_R   0.082505 0.301327 0.016665 -0.119930
C32   C     C_R   0.917490 0.698648 0.983344 -0.119932
C33   C     C_R   0.141708 0.394287 0.960842 -0.123191
C34   C     C_R   0.127752 0.502201 0.496205 -0.008769
C35   C     C_R   0.858286 0.605683 0.039158 -0.123191
C36   C     C_R   0.914937 0.471486 0.375996 -0.165848
C37   C     C_R   0.085062 0.528509 0.624005 -0.165847
C38   C     C_R   0.958793 0.525406 0.630325 -0.032895
C39   C     C_R   0.041207 0.474588 0.369675 -0.032895
C40   C     C_R   0.301699 0.082980 0.016765 -0.119873
C41   C     C_R   0.698316 0.917024 0.983233 -0.119873
C42   C     C_R   0.327522 0.050974 0.150347 -0.095827
Cu1   Cu    Cu3+1 0.521120 0.521140 0.639640 0.933628
Cu2   Cu    Cu3+1 0.478880 0.478860 0.360360 0.933627
H1    H     H_    0.167348 0.373369 0.857912 0.100302
H2    H     H_    0.582074 0.580752 0.135017 0.143152
H3    H     H_    0.620066 0.618910 0.904928 0.230179
H4    H     H_    0.379936 0.381088 0.095072 0.230180
H5    H     H_    0.150471 0.635321 0.227481 0.098148
H6    H     H_    0.849527 0.364662 0.772505 0.098145
H7    H     H_    0.005698 0.254077 0.192818 0.092726
H8    H     H_    0.994300 0.745910 0.807197 0.092726
H9    H     H_    0.060231 0.209410 0.955840 0.091803
H10   H     H_    0.939763 0.790562 0.044175 0.091805
H11   H     H_    0.849456 0.449163 0.279230 0.126426
H12   H     H_    0.832645 0.626596 0.142089 0.100302
H13   H     H_    0.150543 0.550832 0.720770 0.126426
H14   H     H_    0.373842 0.168139 0.858293 0.100265
H15   H     H_    0.626178 0.831868 0.141711 0.100265
H16   H     H_    0.209794 0.060876 0.955921 0.091835
H17   H     H_    0.790222 0.939130 0.044074 0.091834
H18   H     H_    0.210738 0.586893 0.993209 0.096223
H19   H     H_    0.789256 0.413076 0.006778 0.096222
H20   H     H_    0.254317 0.005902 0.192697 0.092718
H21   H     H_    0.745692 0.994100 0.807297 0.092717
H22   H     H_    0.635638 0.150374 0.227630 0.097928
H23   H     H_    0.364373 0.849627 0.772377 0.097931
H24   H     H_    0.587345 0.211112 0.993586 0.096210
H25   H     H_    0.412672 0.788893 0.006422 0.096211
H26   H     H_    0.449306 0.849424 0.279203 0.126510
H27   H     H_    0.550702 0.150577 0.720796 0.126510
H28   H     H_    0.417923 0.419250 0.864983 0.143151
N1    N     N_2   0.447120 0.447110 0.150550 -0.350212
N2    N     N_2   0.552880 0.552890 0.849450 -0.350210
O1    O     O_R   0.517830 0.337490 0.617920 -0.513189
O2    O     O_R   0.482170 0.662510 0.382080 -0.513189
O3    O     O_R   0.482150 0.301790 0.382070 -0.484421
O4    O     O_R   0.517850 0.698210 0.617930 -0.484422
O5    O     O_R   0.337480 0.517860 0.617920 -0.513301
O6    O     O_R   0.662520 0.482140 0.382080 -0.513301
O7    O     O_R   0.301810 0.482160 0.382070 -0.484675
O8    O     O_R   0.698190 0.517840 0.617930 -0.484674

loop_
_geom_bond_atom_site_label_1
_geom_bond_atom_site_label_2
_ccdc_geom_bond_type
C3    C42   A    
C40   H16   S    
C27   C29   A    
C34   C37   A    
C33   H1    S    
C14   C18   A    
C41   H17   S    
C2    H21   S    
C11   H26   S    
Cu1   O4    S    
C15   C19   A    
C11   C19   A    
C8    H25   S    
C17   C23   S    
C13   C18   A    
Cu2   O3    S    
C24   C26   A    
C9    H14   S    
C26   H6    S    
C11   C14   A    
C2    C41   A    
Cu1   O5    S    
C1    O3    A    
C17   O8    A    
Cu2   O2    S    
C16   C34   S    
C7    H24   S    
C27   C39   S    
C22   C25   A    
C12   O4    A    
C31   C33   A    
C3    C19   S    
C1    C15   S    
C4    C18   S    
Cu1   N2    S    
C40   C42   A    
C10   C41   A    
C32   H10   S    
Cu1   O1    S    
C24   C35   A    
C21   H28   S    
C34   C39   A    
C1    O1    A    
C32   C35   A    
Cu2   O6    S    
C4    C6    A    
Cu2   O7    S    
C5    C7    A    
C6    C8    A    
C13   H27   S    
C21   N2    D    
C17   O6    A    
C2    C4    A    
Cu1   Cu2   S    
C37   C38   A    
C22   H18   S    
C28   C38   S    
C31   H9    S    
C6    H23   S    
C12   C14   S    
C24   H19   S    
C13   C15   A    
C12   O2    A    
C42   H20   S    
C29   H7    S    
C7    C9    A    
C22   C33   A    
C30   H8    S    
C35   H12   S    
H4    N1    S    
C36   C39   A    
H3    N2    S    
C5    H22   S    
C3    C5    A    
C37   H13   S    
C25   C27   A    
C23   C38   A    
C26   C28   A    
C16   O5    A    
C28   C30   A    
C10   H15   S    
C29   C31   A    
C36   H11   S    
C30   C32   A    
C16   O7    A    
C20   N1    D    
C9    C40   A    
Cu2   N1    S    
C25   H5    S    
C20   C21   S    
C8    C10   A    
C23   C36   A    
Cu1   O8    S    
C20   H2    S    
