data_mof_unit_20468.cif
_audit_creation_date              2012-12-11T17:15:03-0500
_audit_creation_method            fapswitch 2.2
_symmetry_space_group_name_H-M    P1
_symmetry_Int_Tables_number       1
_space_group_crystal_system       triclinic
_cell_length_a                    7.224379
_cell_length_b                    12.089982
_cell_length_c                    21.441761
_cell_angle_alpha                 90.000016
_cell_angle_beta                  90.751163
_cell_angle_gamma                 89.999853
_cell_volume                      1872.61846961

loop_
_atom_site_label
_atom_site_type_symbol
_atom_type_description
_atom_site_fract_x
_atom_site_fract_y
_atom_site_fract_z
_atom_type_partial_charge
O1    O     O_R   0.354460 0.152320 0.595720 -0.542435
O2    O     O_R   0.645540 0.847680 0.404280 -0.542435
O3    O     O_R   0.145540 0.652320 0.404280 -0.542435
O4    O     O_R   0.854460 0.347680 0.595720 -0.542435
O5    O     O_R   0.683670 0.140090 0.727290 -0.522573
O6    O     O_R   0.316330 0.859910 0.272710 -0.522573
O7    O     O_R   0.816330 0.640090 0.272710 -0.522574
O8    O     O_R   0.183670 0.359910 0.727290 -0.522574
O9    O     O_R   0.854010 0.349340 0.727750 -0.510747
O10   O     O_R   0.145990 0.650660 0.272250 -0.510747
O11   O     O_R   0.645990 0.849340 0.272250 -0.510749
O12   O     O_R   0.354010 0.150660 0.727750 -0.510749
C1    C     C_R   0.516842 0.112966 0.747257 0.814666
C2    C     C_R   0.483158 0.887034 0.252743 0.814666
C3    C     C_R   0.983158 0.612966 0.252743 0.814665
C4    C     C_R   0.016842 0.387034 0.747257 0.814664
O13   O     O_R   0.684170 0.139420 0.596190 -0.544513
O14   O     O_R   0.315830 0.860580 0.403810 -0.544513
O15   O     O_R   0.815830 0.639420 0.403810 -0.544513
O16   O     O_R   0.184170 0.360580 0.596190 -0.544513
C5    C     C_R   0.514989 0.113119 0.574446 0.681021
C6    C     C_R   0.485011 0.886881 0.425554 0.681022
C7    C     C_R   0.985011 0.613119 0.425554 0.681021
C8    C     C_R   0.014988 0.386881 0.574446 0.681021
O17   O     O_3   0.520730 0.319480 0.661730 -0.378025
O18   O     O_3   0.479270 0.680520 0.338270 -0.378025
O19   O     O_3   0.979270 0.819480 0.338270 -0.378025
O20   O     O_3   0.020730 0.180520 0.661730 -0.378026
V1    V     V_3+5 0.795560 0.238090 0.661730 1.546385
V2    V     V_3+5 0.204440 0.761910 0.338270 1.546384
V3    V     V_3+5 0.704440 0.738090 0.338270 1.546383
V4    V     V_3+5 0.295560 0.261910 0.661730 1.546383
C9    C     C_R   0.013738 0.463511 0.799877 -0.156547
C10   C     C_R   0.986262 0.536489 0.200123 -0.156547
C11   C     C_R   0.486262 0.963511 0.200123 -0.156549
C12   C     C_R   0.513738 0.036489 0.799877 -0.156549
C13   C     C_R   0.031441 0.651227 0.838068 0.484218
C14   C     C_R   0.968558 0.348773 0.161931 0.484218
C15   C     C_R   0.468564 0.151227 0.161931 0.484220
C16   C     C_R   0.531436 0.848773 0.838068 0.484220
C17   C     C_R   0.045572 0.575697 0.789400 -0.204892
C18   C     C_R   0.954428 0.424303 0.210599 -0.204892
C19   C     C_R   0.454432 0.075698 0.210599 -0.204893
C20   C     C_R   0.545568 0.924302 0.789400 -0.204893
C21   C     C_R   0.980183 0.424158 0.860281 0.371078
C22   C     C_R   0.019817 0.575842 0.139719 0.371078
C23   C     C_R   0.519814 0.924157 0.139718 0.371078
C24   C     C_R   0.480186 0.075843 0.860282 0.371078
C25   C     C_R   0.000173 0.497149 0.911965 -0.033975
C26   C     C_R   0.999827 0.502850 0.088035 -0.033975
C27   C     C_R   0.499827 0.997149 0.088035 -0.033979
C28   C     C_R   0.500173 0.002851 0.911965 -0.033979
C29   C     C_R   0.004333 0.612794 0.899410 0.003134
C30   C     C_R   0.995667 0.387206 0.100590 0.003134
C31   C     C_R   0.495672 0.112793 0.100590 0.003134
C32   C     C_R   0.504328 0.887207 0.899410 0.003134
C33   C     C_R   0.009924 0.460914 0.975429 0.091615
C34   C     C_R   0.990076 0.539086 0.024571 0.091615
C35   C     C_R   0.490074 0.960914 0.024571 0.091613
C36   C     C_R   0.509926 0.039086 0.975429 0.091613
C37   C     C_R   0.950902 0.649584 0.008453 -0.120488
C38   C     C_R   0.049098 0.350416 0.991547 -0.120488
C39   C     C_R   0.549105 0.149583 0.991548 -0.120491
C40   C     C_R   0.450895 0.850417 0.008452 -0.120491
C41   C     C_R   0.971284 0.687179 0.947886 -0.132360
C42   C     C_R   0.028716 0.312821 0.052114 -0.132360
C43   C     C_R   0.528726 0.187178 0.052115 -0.132355
C44   C     C_R   0.471274 0.812821 0.947885 -0.132355
H1    H     H_    0.953008 0.774694 0.939129 0.193418
H2    H     H_    0.046992 0.225306 0.060871 0.193418
H3    H     H_    0.547006 0.274693 0.060872 0.193418
H4    H     H_    0.452994 0.725307 0.939128 0.193418
H5    H     H_    0.929148 0.394807 0.257460 0.155956
H6    H     H_    0.070852 0.605193 0.742540 0.155956
H7    H     H_    0.570847 0.894806 0.742540 0.155956
H8    H     H_    0.429153 0.105193 0.257460 0.155956
H9    H     H_    0.901945 0.708641 0.041993 0.223878
H10   H     H_    0.098055 0.291359 0.958007 0.223878
H11   H     H_    0.598066 0.208640 0.958007 0.223880
H12   H     H_    0.401934 0.791360 0.041993 0.223880
C45   C     C_1   0.995524 0.533126 0.478087 -0.157351
C46   C     C_1   0.004476 0.466874 0.521912 -0.157351
C47   C     C_1   0.504476 0.033126 0.521912 -0.157351
C48   C     C_1   0.495524 0.966874 0.478087 -0.157351
Cl1   Cl    Cl    0.123740 0.708508 0.133170 -0.622914
Cl2   Cl    Cl    0.876260 0.291492 0.866830 -0.622914
Cl3   Cl    Cl    0.376269 0.208512 0.866830 -0.622911
Cl4   Cl    Cl    0.623731 0.791488 0.133170 -0.622911
Cl5   Cl    Cl    0.050226 0.793129 0.819893 -0.638546
Cl6   Cl    Cl    0.949774 0.206871 0.180107 -0.638546
Cl7   Cl    Cl    0.449779 0.293129 0.180107 -0.638543
Cl8   Cl    Cl    0.550221 0.706871 0.819893 -0.638543

loop_
_geom_bond_atom_site_label_1
_geom_bond_atom_site_label_2
_ccdc_geom_bond_type
O1    C5    A    
O3    V2    S    
C9    C21   A    
O3    C7    A    
C10   C18   A    
O15   V3    S    
C45   C46   T    
C25   C33   A    
C33   C38   A    
C39   H11   S    
C35   C40   A    
C26   C30   A    
C36   C39   A    
C40   C44   A    
O20   V1    S    
O9    C4    A    
C14   C18   A    
O10   C3    A    
O4    C8    A    
O11   C2    A    
C25   C29   A    
C43   H3    S    
O13   V1    S    
C8    C46   S    
C28   C36   A    
C17   H6    S    
C15   C31   A    
O16   C8    A    
C37   H9    S    
C16   C32   A    
O2    C6    A    
C10   C22   A    
C11   C19   A    
C3    C10   S    
O5    C1    A    
O4    V1    S    
O9    V1    S    
C22   Cl1   S    
C13   C29   A    
C34   C37   A    
O7    C3    A    
C11   C23   A    
C35   C36   A    
O8    C4    A    
O12   V4    S    
O19   V2    S    
C40   H12   S    
C15   Cl7   S    
O5    V1    S    
C39   C43   A    
O7    V3    S    
C38   C42   A    
C26   C34   A    
C5    C47   S    
C1    C12   S    
C2    C11   S    
C23   C27   A    
C32   C44   A    
O1    V4    S    
O13   C5    A    
O2    V3    S    
C6    C48   S    
C20   H7    S    
O15   C7    A    
C4    C9    S    
O6    C2    A    
O10   V2    S    
C31   C43   A    
C47   C48   T    
C14   C30   A    
C21   C25   A    
C44   H4    S    
C24   Cl3   S    
C16   Cl8   S    
O14   V2    S    
O6    V2    S    
C16   C20   A    
C12   C20   A    
C27   C35   A    
C29   C41   A    
O16   V4    S    
C19   H8    S    
C22   C26   A    
C18   H5    S    
C7    C45   S    
O14   C6    A    
O18   V3    S    
C38   H10   S    
C15   C19   A    
C30   C42   A    
C14   Cl6   S    
C13   Cl5   S    
C9    C17   A    
C23   Cl4   S    
C21   Cl2   S    
C33   C34   A    
C42   H2    S    
O8    V4    S    
O17   V4    S    
C41   H1    S    
C12   C24   A    
C27   C31   A    
C13   C17   A    
O11   V3    S    
C37   C41   A    
C24   C28   A    
O12   C1    A    
C28   C32   A    
