data_mof_unit_59863.cif
_audit_creation_date              2012-12-11T16:23:20-0500
_audit_creation_method            fapswitch 2.2
_symmetry_space_group_name_H-M    P1
_symmetry_Int_Tables_number       1
_space_group_crystal_system       triclinic
_cell_length_a                    20.06575
_cell_length_b                    7.181015
_cell_length_c                    19.894572
_cell_angle_alpha                 89.932271
_cell_angle_beta                  98.546049
_cell_angle_gamma                 89.936875
_cell_volume                      2834.8240892

loop_
_atom_site_label
_atom_site_type_symbol
_atom_type_description
_atom_site_fract_x
_atom_site_fract_y
_atom_site_fract_z
_atom_type_partial_charge
O1    O     O_R   0.188410 0.619490 0.310050 -0.536219
O2    O     O_R   0.811590 0.380510 0.689950 -0.530794
O3    O     O_R   0.311590 0.119490 0.189950 -0.530632
O4    O     O_R   0.688410 0.880510 0.810050 -0.530317
O5    O     O_R   0.327280 0.288800 0.321740 -0.536772
O6    O     O_R   0.672720 0.711200 0.678260 -0.533326
O7    O     O_R   0.172720 0.788800 0.178260 -0.535833
O8    O     O_R   0.827280 0.211200 0.821740 -0.532195
C1    C     C_R   0.351027 0.457778 0.339366 0.695739
C2    C     C_R   0.648934 0.542207 0.660720 0.704530
C3    C     C_R   0.148913 0.957941 0.160960 0.744386
C4    C     C_R   0.851157 0.042116 0.839448 0.700699
O9    O     O_R   0.189900 0.289710 0.318190 -0.554995
O10   O     O_R   0.810100 0.710290 0.681810 -0.545219
O11   O     O_R   0.310100 0.789710 0.181810 -0.555833
O12   O     O_R   0.689900 0.210290 0.818190 -0.546412
O13   O     O_R   0.173230 0.120350 0.186370 -0.527588
O14   O     O_R   0.826770 0.879650 0.813630 -0.549714
O15   O     O_R   0.326770 0.620350 0.313630 -0.544839
O16   O     O_R   0.673230 0.379650 0.686370 -0.549031
C5    C     C_R   0.169526 0.457315 0.334409 0.674884
C6    C     C_R   0.832071 0.542522 0.667737 0.663387
C7    C     C_R   0.330458 0.957329 0.165578 0.685428
C8    C     C_R   0.667933 0.042530 0.832257 0.666173
O17   O     O_3   0.244690 0.453290 0.206760 -0.368612
O18   O     O_3   0.755310 0.546710 0.793240 -0.375384
O19   O     O_3   0.255310 0.953290 0.293240 -0.382185
O20   O     O_3   0.744690 0.046710 0.706760 -0.374768
V1    V     V_3+5 0.250980 0.178070 0.258020 1.421027
V2    V     V_3+5 0.749020 0.821930 0.741980 1.422326
V3    V     V_3+5 0.249020 0.678070 0.241980 1.412408
V4    V     V_3+5 0.750980 0.321930 0.758020 1.420041
C9    C     C_R   0.462298 0.148552 0.064595 -0.108099
C10   C     C_R   0.571924 0.869952 0.970436 -0.096859
C11   C     C_R   0.037584 0.648628 0.435263 -0.108793
C12   C     C_R   0.928096 0.370032 0.529602 -0.099335
H1    H     H_    0.488823 0.279111 0.062132 0.110540
H2    H     H_    0.573568 0.748885 0.003169 0.115038
H3    H     H_    0.011030 0.779303 0.437687 0.110719
H4    H     H_    0.926497 0.249039 0.496947 0.114920
C13   C     C_R   0.415679 0.131502 0.110021 -0.115459
C14   C     C_R   0.617200 0.881240 0.923575 -0.085389
C15   C     C_R   0.084223 0.631590 0.389859 -0.121183
C16   C     C_R   0.882855 0.381323 0.576494 -0.088712
H5    H     H_    0.408088 0.250483 0.141347 0.114667
H6    H     H_    0.652961 0.768806 0.921923 0.138381
H7    H     H_    0.091801 0.750693 0.358509 0.114157
H8    H     H_    0.847173 0.268952 0.578247 0.139005
C17   C     C_R   0.380176 0.964149 0.115967 -0.125394
C18   C     C_R   0.617121 0.035588 0.879939 -0.134704
C19   C     C_R   0.119767 0.464100 0.383972 -0.128790
C20   C     C_R   0.882867 0.535582 0.620031 -0.136528
C21   C     C_R   0.393232 0.811008 0.073654 -0.019901
C22   C     C_R   0.569112 0.180315 0.883828 -0.021153
C23   C     C_R   0.106710 0.310777 0.426289 -0.015769
C24   C     C_R   0.930788 0.680205 0.616012 -0.019209
C25   C     C_R   0.440500 0.831381 0.028481 -0.111215
C26   C     C_R   0.525152 0.168872 0.932799 -0.104761
C27   C     C_R   0.059437 0.331162 0.471452 -0.111991
C28   C     C_R   0.974720 0.668743 0.567016 -0.107657
H9    H     H_    0.450105 0.715344 0.996395 0.153207
H10   H     H_    0.487954 0.277211 0.935340 0.162549
H11   H     H_    0.049850 0.215005 0.503559 0.153257
H12   H     H_    0.011857 0.776980 0.564383 0.162301
C29   C     C_R   0.475637 0.998079 0.023839 0.051883
C30   C     C_R   0.525617 0.013791 0.975758 0.038811
C31   C     C_R   0.024276 0.498021 0.476058 0.051027
C32   C     C_R   0.974313 0.513763 0.524155 0.038664
C33   C     C_R   0.087586 0.962394 0.108382 -0.051901
C34   C     C_R   0.911241 0.042045 0.894400 -0.128645
C35   C     C_R   0.411109 0.458208 0.393848 -0.081663
C36   C     C_R   0.588743 0.541524 0.606426 -0.157824
C37   C     C_R   0.009000 0.217417 0.949284 0.000457
C38   C     C_R   0.978289 0.825956 0.065189 0.062218
C39   C     C_R   0.489995 0.714060 0.552147 -0.011992
C40   C     C_R   0.509258 0.285049 0.448532 0.032972
C41   C     C_R   0.955797 0.192241 0.896253 -0.237163
C42   C     C_R   0.035869 0.836554 0.114131 -0.282083
C43   C     C_R   0.546099 0.696279 0.602408 -0.180172
C44   C     C_R   0.453070 0.301910 0.398638 -0.271943
C45   C     C_R   0.920528 0.911703 0.948577 0.165734
C46   C     C_R   0.081242 0.085962 0.052766 0.167712
C47   C     C_R   0.574230 0.396862 0.558192 0.183602
C48   C     C_R   0.426121 0.603800 0.441679 0.116077
C49   C     C_R   0.972377 0.940007 0.005721 0.098489
C50   C     C_R   0.021237 0.084504 0.002994 0.009399
C51   C     C_R   0.521519 0.419621 0.501687 0.107860
C52   C     C_R   0.478470 0.580513 0.498558 0.004832
H13   H     H_    0.040022 0.746816 0.158506 0.114831
H14   H     H_    0.947705 0.296420 0.856282 0.130892
H15   H     H_    0.443904 0.193883 0.360268 0.123170
H16   H     H_    0.554798 0.801853 0.641685 0.168869
C53   C     C_2   0.359619 0.627019 0.073814 0.366942
H17   H     H_    0.352554 0.558685 0.120660 0.071842
O21   O     O_2   0.341803 0.544662 0.020501 -0.512860
C54   C     C_2   0.560190 0.337646 0.834683 0.389279
H18   H     H_    0.576934 0.326224 0.785516 0.060153
O22   O     O_2   0.532547 0.481700 0.848077 -0.531723
C55   C     C_2   0.140320 0.126576 0.426136 0.356279
H19   H     H_    0.147394 0.058506 0.379292 0.070989
O23   O     O_2   0.158122 0.043754 0.479450 -0.516342
C56   C     C_2   0.939668 0.837425 0.665046 0.375906
H20   H     H_    0.922910 0.826058 0.714211 0.054130
O24   O     O_2   0.967322 0.981305 0.651575 -0.533650
N1    N     N_3   0.140530 0.188273 0.042929 -0.651243
H21   H     H_    0.137345 0.324838 0.059897 0.285992
H22   H     H_    0.148023 0.182784 0.992097 0.240978
N2    N     N_3   0.880081 0.746314 0.944282 -0.619216
H23   H     H_    0.829184 0.783900 0.938360 0.251431
H24   H     H_    0.889383 0.668678 0.902235 0.235998
N3    N     N_3   0.390439 0.777170 0.431485 -0.694334
H25   H     H_    0.338845 0.753460 0.430034 0.249468
H26   H     H_    0.399834 0.837403 0.385975 0.244117
N4    N     N_3   0.611138 0.225249 0.567389 -0.611834
H27   H     H_    0.662543 0.252076 0.568908 0.250635
H28   H     H_    0.602300 0.162259 0.612618 0.255250
C57   C     C_2   0.043944 0.398399 0.949207 0.343443
H29   H     H_    0.061805 0.446742 0.903353 0.065628
O25   O     O_2   0.047944 0.501461 0.998325 -0.538192
C58   C     C_2   0.924124 0.703222 0.082671 0.468424
H30   H     H_    0.936781 0.567921 0.105493 0.047582
O26   O     O_2   0.865853 0.757517 0.076642 -0.522114
C59   C     C_2   0.442326 0.866793 0.561811 0.428439
H31   H     H_    0.388380 0.844442 0.551067 0.100712
O27   O     O_2   0.462932 0.017892 0.584066 -0.536994
C60   C     C_2   0.554463 0.127262 0.439054 0.466147
H32   H     H_    0.533793 0.988130 0.430637 0.044214
O28   O     O_2   0.613889 0.153775 0.435286 -0.517791

loop_
_geom_bond_atom_site_label_1
_geom_bond_atom_site_label_2
_ccdc_geom_bond_type
C26   H10   S    
C47   C51   A    
C51   C52   A    
O1    C5    A    
C53   H17   S    
C23   C27   A    
O19   V1    S    
O13   V1    S    
O3    C7    A    
N3    H25   S    
C10   C14   A    
O15   V3    S    
C10   C30   A    
N4    H27   S    
C9    C29   A    
C59   H31   S    
C49   C50   A    
O7    C3    A    
N1    H22   S    
C26   C30   A    
C18   C22   A    
C39   C59   S    
O9    V1    S    
C36   C43   A    
C57   O25   D    
O16   V4    S    
O4    C8    A    
C7    C17   S    
O1    V3    S    
C40   C60   S    
N2    H23   S    
O2    V4    S    
C14   H6    S    
C46   N1    S    
O3    V1    S    
C34   C45   A    
C37   C41   A    
C33   C46   A    
C27   C31   A    
C1    O15   A    
C2    O16   A    
C54   O22   D    
O2    C6    A    
O14   V2    S    
C11   C15   A    
C22   C54   S    
C16   C20   A    
O11   C7    A    
C45   N2    S    
O12   C8    A    
C34   C41   A    
C47   N4    S    
C33   C42   A    
O10   V2    S    
C13   C17   A    
C35   C44   A    
C58   O26   D    
O5    V1    S    
C42   H13   S    
C8    C18   S    
C41   H14   S    
C48   N3    S    
C37   C57   S    
C21   C53   S    
C31   C32   S    
O8    V4    S    
C40   C44   A    
C12   H4    S    
O7    V3    S    
C21   C25   A    
O18   V4    S    
C46   C50   A    
O11   V3    S    
C9    H1    S    
C24   C28   A    
C48   C52   A    
C11   H3    S    
O5    C1    A    
C55   H19   S    
C11   C31   A    
O8    C4    A    
C54   H18   S    
C3    C33   S    
O9    C5    A    
N3    H26   S    
C56   O24   D    
C40   C51   A    
C43   H16   S    
C14   C18   A    
C55   O23   D    
C12   C16   A    
C23   C55   S    
C5    C19   S    
C58   H30   S    
C6    C20   S    
C35   C48   A    
C22   C26   A    
C4    C34   S    
C3    O13   A    
C60   O28   D    
O6    V2    S    
C10   H2    S    
O17   V3    S    
C1    C35   S    
C25   C29   A    
O6    C2    A    
N4    H28   S    
C12   C32   A    
C25   H9    S    
O12   V4    S    
C38   C58   S    
N1    H21   S    
C27   H11   S    
C28   H12   S    
C9    C13   A    
O10   C6    A    
C44   H15   S    
O20   V2    S    
C24   C56   S    
C57   H29   S    
C15   C19   A    
C15   H7    S    
C60   H32   S    
C17   C21   A    
N2    H24   S    
C19   C23   A    
C38   C49   A    
C56   H20   S    
O4    V2    S    
C37   C50   A    
C36   C47   A    
C59   O27   D    
C16   H8    S    
C39   C52   A    
C28   C32   A    
C53   O21   D    
C29   C30   S    
C38   C42   A    
C4    O14   A    
C13   H5    S    
C39   C43   A    
C45   C49   A    
C20   C24   A    
C2    C36   S    
