data_mof_unit_21560.cif
_audit_creation_date              2012-10-26T21:24:49-0400
_audit_creation_method            fapswitch 2.2
_symmetry_space_group_name_H-M    P1
_symmetry_Int_Tables_number       1
_space_group_crystal_system       triclinic
_cell_length_a                    9.585735
_cell_length_b                    10.811018
_cell_length_c                    15.401407
_cell_angle_alpha                 88.476884
_cell_angle_beta                  74.883726
_cell_angle_gamma                 89.629833
_cell_volume                      1540.30082718

loop_
_atom_site_label
_atom_site_type_symbol
_atom_type_description
_atom_site_fract_x
_atom_site_fract_y
_atom_site_fract_z
_atom_type_partial_charge
C1    C     C_R   0.000271 0.262475 0.500339 0.542968
C2    C     C_R   0.228494 0.555978 0.043589 0.048377
C3    C     C_R   0.325081 0.509378 0.092322 0.034203
C4    C     C_R   0.918304 0.499874 0.672344 0.541963
C5    C     C_R   0.083510 0.579467 0.087722 -0.145673
C6    C     C_R   0.032967 0.558227 0.180094 -0.144719
C7    C     C_R   0.268490 0.481118 0.184481 -0.137126
C8    C     C_R   0.129201 0.063356 0.486553 0.015411
C9    C     C_R   0.999201 0.128977 0.505973 -0.002273
C10   C     C_R   0.867850 0.064158 0.535318 -0.161658
C11   C     C_R   0.867159 0.935216 0.535706 -0.161564
C12   C     C_R   0.671654 0.501176 0.908299 0.032141
C13   C     C_R   0.997826 0.870550 0.506958 0.004684
C14   C     C_R   0.127990 0.935710 0.487361 0.009984
C15   C     C_3   0.252416 0.928778 0.405844 -0.244236
C16   C     C_R   0.999432 0.737478 0.500773 0.551592
C17   C     C_3   0.252762 0.069704 0.403245 -0.108904
C18   C     C_R   0.592580 0.589094 0.452868 0.152032
C19   C     C_R   0.555949 0.418311 0.551417 0.012453
C20   C     C_R   0.406329 0.419738 0.555081 0.103563
C21   C     C_R   0.445683 0.588665 0.452360 0.152158
C22   C     C_3   0.482640 0.612083 0.353170 -0.274951
C23   C     C_R   0.771825 0.471407 0.958992 0.050845
C24   C     C_3   0.640327 0.613103 0.353877 -0.283174
C25   C     C_R   0.081215 0.500830 0.327780 0.543835
C26   C     C_R   0.871436 0.496609 0.771366 -0.001636
C27   C     C_R   0.125820 0.510222 0.229094 -0.004253
C28   C     C_R   0.919431 0.459421 0.916221 -0.143936
C29   C     C_R   0.969054 0.474733 0.823271 -0.146802
C30   C     C_R   0.724076 0.510066 0.814101 -0.134471
C31   C     C_3   0.390152 0.127604 0.418641 -0.276597
C32   C     C_3   0.517338 0.118078 0.335478 -0.451335
C33   C     C_3   0.315394 0.326394 0.621022 -0.260230
C34   C     C_R   0.522766 0.518482 0.953159 0.032629
C35   C     C_3   0.332210 0.339992 0.716656 -0.469553
C36   C     C_R   0.474613 0.495115 0.047818 0.033890
C37   C     C_R   0.578464 0.463458 0.095354 -0.141027
C38   C     C_R   0.724048 0.453430 0.051748 -0.140444
C39   C     C_R   0.421441 0.562081 0.907022 -0.142633
C40   C     C_R   0.277739 0.581054 0.951676 -0.142468
Cu1   Cu    Cu3+1 0.140670 0.499980 0.500000 0.916809
Cu2   Cu    Cu3+1 0.859330 0.500020 0.500000 0.921883
H1    H     H_    0.799853 0.430668 0.091120 0.109017
H2    H     H_    0.332885 0.436182 0.223634 0.105655
H3    H     H_    0.443346 0.703300 0.334586 0.120543
H4    H     H_    0.701627 0.534226 0.317466 0.143681
H5    H     H_    0.692315 0.705277 0.336537 0.122002
H6    H     H_    0.922830 0.582635 0.213255 0.116079
H7    H     H_    0.204728 0.616919 0.913880 0.109387
H8    H     H_    0.996494 0.436828 0.954593 0.113901
H9    H     H_    0.082841 0.466322 0.791917 0.126140
H10   H     H_    0.651480 0.523679 0.772011 0.122893
H11   H     H_    0.552076 0.449426 0.167177 0.092729
H12   H     H_    0.010134 0.617854 0.051165 0.112141
H13   H     H_    0.450263 0.587635 0.836586 0.101235
H14   H     H_    0.543481 0.019634 0.319633 0.152815
H15   H     H_    0.491493 0.165754 0.276780 0.148970
H16   H     H_    0.613730 0.162980 0.348243 0.145467
H17   H     H_    0.370248 0.227075 0.432885 0.184144
H18   H     H_    0.419231 0.082049 0.477127 0.144447
H19   H     H_    0.436575 0.300810 0.722831 0.138171
H20   H     H_    0.327335 0.438904 0.734916 0.150961
H21   H     H_    0.244763 0.288251 0.765335 0.140994
H22   H     H_    0.349741 0.231590 0.598809 0.107164
H23   H     H_    0.765734 0.112791 0.555124 0.126625
H24   H     H_    0.200352 0.332184 0.625602 0.220689
H25   H     H_    0.764750 0.886733 0.555550 0.134220
H26   H     H_    0.348313 0.885611 0.422245 0.137752
H27   H     H_    0.222102 0.888239 0.347690 0.118564
H28   H     H_    0.220202 0.110968 0.344465 0.138414
H29   H     H_    0.599238 0.350649 0.590339 0.124460
H30   H     H_    0.455731 0.532639 0.316544 0.145044
N1    N     N_R   0.648210 0.500930 0.499430 -0.245266
N2    N     N_R   0.352300 0.500890 0.499430 -0.231633
O1    O     O_R   0.118810 0.319640 0.500000 -0.528247
O2    O     O_R   0.881230 0.319680 0.499990 -0.509005
O3    O     O_R   0.055580 0.499970 0.629840 -0.512983
O4    O     O_R   0.818000 0.500010 0.629830 -0.508876
O5    O     O_R   0.118770 0.680320 0.500010 -0.490378
O6    O     O_R   0.881190 0.680360 0.500000 -0.501091
O7    O     O_R   0.182000 0.499990 0.370170 -0.508298
O8    O     O_R   0.944420 0.500030 0.370160 -0.500288

loop_
_geom_bond_atom_site_label_1
_geom_bond_atom_site_label_2
_ccdc_geom_bond_type
Cu2   O6    S    
C18   C21   A    
Cu1   Cu2   S    
C19   H29   S    
C19   C20   A    
Cu2   O8    S    
C32   H16   S    
C12   C23   A    
C6    H6    S    
C18   C24   S    
C36   C37   A    
C3    C7    A    
Cu1   O3    S    
C5    C6    A    
C40   H7    S    
C7    C27   A    
C31   H17   S    
Cu1   N2    S    
C28   H8    S    
C39   H13   S    
C31   C32   S    
C8    C9    A    
C9    C10   A    
C37   H11   S    
C17   H28   S    
C13   C14   A    
C25   O7    A    
C1    O2    A    
C32   H15   S    
C22   H30   S    
C11   H25   S    
C33   H24   S    
C15   H27   S    
C34   C39   A    
C1    O1    A    
C5    H12   S    
C19   N1    A    
C1    C9    S    
C39   C40   A    
C7    H2    S    
C21   N2    A    
C16   O6    A    
C31   H18   S    
C4    O4    A    
C37   C38   A    
Cu1   O1    S    
C6    C27   A    
Cu1   O7    S    
C20   N2    A    
C35   H19   S    
C23   C28   A    
C20   C33   S    
C26   C30   A    
C18   N1    A    
C25   O8    A    
C17   C31   S    
C22   C24   S    
C2    C5    A    
C12   C34   A    
C29   H9    S    
C10   H23   S    
C15   C17   S    
C30   H10   S    
C28   C29   A    
Cu2   N1    S    
C8    C14   A    
C12   C30   A    
C24   H5    S    
Cu1   O5    S    
C4    C26   S    
Cu2   O4    S    
C25   C27   S    
C23   C38   A    
Cu2   O2    S    
C8    C17   S    
C16   O5    A    
C24   H4    S    
C2    C3    A    
C4    O3    A    
C11   C13   A    
C3    C36   A    
C33   H22   S    
C15   H26   S    
C33   C35   S    
C35   H20   S    
C34   C36   A    
C10   C11   A    
C2    C40   A    
C38   H1    S    
C22   H3    S    
C26   C29   A    
C13   C16   S    
C14   C15   S    
C35   H21   S    
C21   C22   S    
C32   H14   S    
