data_mof_unit_16524.cif
_audit_creation_date              2012-12-10T16:59:12-0500
_audit_creation_method            fapswitch 2.2
_symmetry_space_group_name_H-M    P1
_symmetry_Int_Tables_number       1
_space_group_crystal_system       triclinic
_cell_length_a                    7.737129
_cell_length_b                    8.561457
_cell_length_c                    27.711757
_cell_angle_alpha                 90.933444
_cell_angle_beta                  86.162195
_cell_angle_gamma                 93.758888
_cell_volume                      1827.47007848

loop_
_atom_site_label
_atom_site_type_symbol
_atom_type_description
_atom_site_fract_x
_atom_site_fract_y
_atom_site_fract_z
_atom_type_partial_charge
C1    C     C_R   0.545958 0.794866 0.498726 0.971446
C2    C     C_R   0.492578 0.651380 0.127426 -0.023381
C3    C     C_R   0.510111 0.492899 0.646611 -0.091246
C4    C     C_R   0.489887 0.507115 0.353388 -0.091253
C5    C     C_R   0.527825 0.645212 0.025183 0.048146
C6    C     C_R   0.472129 0.354865 0.974818 0.048147
C7    C     C_R   0.450989 0.359917 0.026025 0.047998
C8    C     C_R   0.548964 0.640161 0.973977 0.047998
C9    C     C_R   0.480563 0.504795 0.050872 0.072131
C10   C     C_R   0.519392 0.495282 0.949129 0.072131
C11   C     C_R   0.551163 0.786636 0.051883 -0.225227
C12   C     C_R   0.454042 0.205134 0.501273 0.971445
C13   C     C_R   0.448793 0.213441 0.948119 -0.225227
C14   C     C_R   0.534026 0.789209 0.101946 -0.140611
C15   C     C_R   0.465937 0.210866 0.898055 -0.140612
C16   C     C_R   0.502404 0.497725 0.593958 0.872417
C17   C     C_R   0.497596 0.502275 0.406041 0.872415
C18   C     C_R   0.600091 0.775348 0.946455 -0.227135
C19   C     C_R   0.399861 0.224730 0.053547 -0.227135
C20   C     C_2   0.570215 0.958362 0.497983 -0.367287
C21   C     C_2   0.429785 0.041638 0.502017 -0.367287
C22   C     C_R   0.585648 0.623964 0.821197 0.508157
C23   C     C_R   0.536211 0.490944 0.897871 -0.049934
C24   C     C_R   0.414325 0.376108 0.178804 0.508155
C25   C     C_R   0.517652 0.348121 0.822011 0.508903
C26   C     C_R   0.482323 0.651951 0.177991 0.508906
C27   C     C_R   0.379281 0.445575 0.727394 -0.138693
C28   C     C_R   0.620704 0.554478 0.272606 -0.138696
C29   C     C_R   0.363266 0.447657 0.677682 -0.037491
C30   C     C_R   0.636727 0.552366 0.322317 -0.037492
C31   C     C_R   0.670324 0.532076 0.666300 -0.206443
C32   C     C_R   0.329670 0.467949 0.333700 -0.206430
C33   C     C_R   0.685044 0.527433 0.715867 -0.077060
C34   C     C_R   0.463750 0.509132 0.102130 -0.049934
C35   C     C_R   0.314942 0.472620 0.284134 -0.077052
C36   C     C_R   0.539446 0.485005 0.746438 0.288611
C37   C     C_R   0.460535 0.515061 0.253563 0.288607
C38   C     C_1   0.803088 0.602665 0.340027 0.204077
C39   C     C_1   0.196909 0.397328 0.659972 0.204078
C40   C     C_R   0.580052 0.629150 0.871734 -0.020701
C41   C     C_R   0.419912 0.370925 0.128267 -0.020700
C42   C     C_R   0.613987 0.769770 0.896388 -0.139869
C43   C     C_R   0.385972 0.230306 0.103613 -0.139870
C44   C     C_R   0.507389 0.348694 0.872575 -0.023380
H1    H     H_    0.784509 0.567519 0.643337 0.171926
H2    H     H_    0.267342 0.412813 0.751635 0.147785
H3    H     H_    0.555737 0.900164 0.120649 0.193577
H4    H     H_    0.444229 0.099910 0.879353 0.193576
H5    H     H_    0.583113 0.898658 0.035496 0.139144
H6    H     H_    0.416842 0.101420 0.964505 0.139143
H7    H     H_    0.631135 0.888462 0.962180 0.141662
H8    H     H_    0.368814 0.111617 0.037821 0.141662
H9    H     H_    0.702752 0.009639 0.494128 0.182402
H10   H     H_    0.297248 0.990361 0.505871 0.182402
H11   H     H_    0.215489 0.432494 0.356664 0.171929
H12   H     H_    0.014139 0.383481 0.463373 0.192211
H13   H     H_    0.985861 0.616519 0.536627 0.192210
H14   H     H_    0.809194 0.557770 0.730598 0.151505
H15   H     H_    0.190789 0.442290 0.269404 0.151505
H16   H     H_    0.651307 0.876979 0.877035 0.193729
H17   H     H_    0.348654 0.123097 0.122966 0.193728
H18   H     H_    0.732641 0.587246 0.248365 0.147787
N1    N     N_R   0.551857 0.485145 0.797570 -0.355362
N2    N     N_R   0.448121 0.514926 0.202431 -0.355362
N3    N     N_2   0.950320 0.457960 0.486880 -0.167473
N4    N     N_2   0.049680 0.542040 0.513120 -0.167474
N5    N     N_1   0.936295 0.643379 0.354156 -0.192298
N6    N     N_1   0.063708 0.356591 0.645845 -0.192287
O1    O     O_R   0.389250 0.738570 0.503220 -0.611744
O2    O     O_2   0.379803 0.243042 0.204138 -0.534158
O3    O     O_2   0.508006 0.787891 0.202660 -0.530644
O4    O     O_2   0.491977 0.212178 0.797342 -0.530644
O5    O     O_R   0.610750 0.261430 0.496780 -0.611744
O6    O     O_R   0.678390 0.711630 0.494810 -0.628878
O7    O     O_R   0.321610 0.288370 0.505190 -0.628877
O8    O     O_R   0.355440 0.513440 0.575450 -0.610409
O9    O     O_R   0.644560 0.486560 0.424550 -0.610406
O10   O     O_R   0.644590 0.486500 0.567040 -0.625306
O11   O     O_R   0.355410 0.513500 0.432960 -0.625306
O12   O     O_2   0.620175 0.757028 0.795862 -0.534155
Zn1   Zn    Zn3+2 0.306940 0.517990 0.505620 0.965510
Zn2   Zn    Zn3+2 0.693060 0.482010 0.494380 0.965511

loop_
_geom_bond_atom_site_label_1
_geom_bond_atom_site_label_2
_ccdc_geom_bond_type
C33   H14   S    
C24   C41   A    
C27   C29   A    
C39   N6    T    
H13   N4    S    
C24   O2    S    
C1    O6    A    
O9    Zn2   S    
C35   C37   A    
C15   C44   A    
C5    C11   A    
C18   C42   A    
C21   H10   S    
C11   C14   A    
H12   N3    S    
C17   O11   A    
C33   C36   A    
C30   C38   S    
C35   H15   S    
C25   N1    A    
C3    C29   A    
C26   N2    A    
C22   N1    A    
C14   H3    S    
C19   H8    S    
C31   C33   A    
C36   N1    S    
C32   H11   S    
C2    C34   A    
C40   C42   A    
C24   N2    A    
C12   O5    A    
C26   O3    S    
C41   C43   A    
C34   C41   A    
C15   H4    S    
O6    Zn2   S    
C25   C44   A    
C19   C43   A    
C18   H7    S    
C32   C35   A    
C42   H16   S    
O11   Zn1   S    
O7    Zn1   S    
C12   C21   S    
C8    C18   A    
C23   C44   A    
C5    C9    A    
C11   H5    S    
O10   Zn2   S    
C22   C40   A    
C29   C39   S    
C17   O9    A    
C2    C26   A    
C25   O4    S    
C38   N5    T    
C3    C31   A    
C4    C32   A    
C4    C17   S    
C27   H2    S    
C7    C19   A    
C13   C15   A    
C9    C34   A    
C10   C23   A    
O5    Zn2   S    
C37   N2    S    
C43   H17   S    
C7    C9    A    
C1    C20   S    
C16   O8    A    
C20   H9    S    
O8    Zn1   S    
C6    C10   A    
C5    C8    A    
C6    C7    A    
C27   C36   A    
C28   C30   A    
C22   O12   S    
N4    Zn1   S    
N3    Zn2   S    
C28   C37   A    
C16   O10   A    
C2    C14   A    
C1    O1    A    
O1    Zn1   S    
C13   H6    S    
C20   C21   D    
C8    C10   A    
N3    N4    D    
C31   H1    S    
C12   O7    A    
C4    C30   A    
C3    C16   S    
C23   C40   A    
C6    C13   A    
C28   H18   S    
