data_mof_unit_54267.cif
_audit_creation_date              2012-12-10T17:08:45-0500
_audit_creation_method            fapswitch 2.2
_symmetry_space_group_name_H-M    P1
_symmetry_Int_Tables_number       1
_space_group_crystal_system       triclinic
_cell_length_a                    15.734442
_cell_length_b                    10.723014
_cell_length_c                    10.048881
_cell_angle_alpha                 89.811736
_cell_angle_beta                  89.931332
_cell_angle_gamma                 90.039057
_cell_volume                      1695.44288345

loop_
_atom_site_label
_atom_site_type_symbol
_atom_type_description
_atom_site_fract_x
_atom_site_fract_y
_atom_site_fract_z
_atom_type_partial_charge
C1    C     C_R   0.501222 0.262705 0.499980 0.936091
C2    C     C_2   0.487321 0.868566 0.499659 -0.329638
C3    C     C_2   0.491474 0.067472 0.388257 -0.164409
C4    C     C_R   0.338448 0.499746 0.500134 0.907649
C5    C     C_2   0.507377 0.130896 0.499663 -0.318190
C6    C     C_2   0.550503 0.568073 0.926849 -0.146600
C7    C     C_2   0.559290 0.551907 0.075035 -0.151856
C8    C     C_R   0.497439 0.737212 0.499795 0.925960
C9    C     C_R   0.661563 0.499878 0.499994 0.908267
C10   C     C_3   0.050292 0.399596 0.610674 -0.197954
C11   C     C_3   0.047174 0.472282 0.366743 -0.403675
C12   C     C_3   0.950991 0.400292 0.612143 -0.171952
C13   C     C_3   0.949368 0.466626 0.372295 -0.454036
C14   C     C_1   0.750349 0.500747 0.501202 -0.167092
C15   C     C_3   0.082973 0.497693 0.507354 0.294977
C16   C     C_2   0.918655 0.412746 0.752962 0.346459
C17   C     C_R   0.474338 0.381051 0.896791 0.285680
C18   C     C_R   0.387677 0.350275 0.894964 -0.172681
C19   C     C_R   0.360764 0.231472 0.934430 -0.171889
C20   C     C_R   0.420322 0.141755 0.973023 -0.123982
C21   C     C_R   0.506970 0.170504 0.971639 -0.173358
C22   C     C_R   0.534139 0.289335 0.932694 -0.123074
C23   C     C_3   0.917025 0.503216 0.513563 0.214297
C24   C     C_R   0.088783 0.269055 0.594666 0.152168
C25   C     C_R   0.152998 0.229646 0.683108 -0.153690
C26   C     C_R   0.190468 0.112120 0.669931 -0.126513
C27   C     C_R   0.164438 0.032007 0.568740 -0.119430
C28   C     C_R   0.100892 0.069270 0.480492 -0.163007
C29   C     C_R   0.063126 0.186594 0.493204 -0.149203
C30   C     C_R   0.916653 0.720803 0.653008 0.106777
C31   C     C_R   0.950394 0.842385 0.664860 -0.169316
C32   C     C_R   0.919184 0.925992 0.759314 -0.109584
C33   C     C_R   0.852805 0.890640 0.843262 -0.106186
C34   C     C_3   0.953455 0.637611 0.542427 -0.137692
C35   C     C_R   0.817304 0.771968 0.832135 -0.150688
C36   C     C_R   0.848284 0.687944 0.737614 -0.150023
C37   C     C_3   0.051814 0.628168 0.552846 -0.483830
C38   C     C_1   0.825574 0.502071 0.506290 -0.090085
C39   C     C_1   0.174441 0.498513 0.502833 -0.090062
C40   C     C_1   0.249679 0.499148 0.500691 -0.185999
C41   C     C_2   0.496468 0.933456 0.387097 -0.167046
H1    H     H_    0.926587 0.309149 0.575727 0.169236
H2    H     H_    0.442207 0.489054 0.105287 0.181481
H3    H     H_    0.066852 0.548722 0.297994 0.174769
H4    H     H_    0.073358 0.384879 0.324367 0.177785
H5    H     H_    0.927274 0.371413 0.345426 0.177561
H6    H     H_    0.922888 0.530641 0.295255 0.182132
H7    H     H_    0.073031 0.645460 0.656906 0.173396
H8    H     H_    0.081309 0.702297 0.489939 0.161085
H9    H     H_    0.942296 0.486604 0.816532 0.078876
H10   H     H_    0.341039 0.419021 0.865092 0.135610
H11   H     H_    0.293716 0.209016 0.935274 0.128474
H12   H     H_    0.072737 0.434314 0.709126 0.107022
H13   H     H_    0.399365 0.049821 0.003479 0.127675
H14   H     H_    0.553076 0.100608 0.000425 0.135360
H15   H     H_    0.601467 0.310188 0.930416 0.142788
H16   H     H_    0.174888 0.290372 0.761864 0.111054
H17   H     H_    0.239903 0.083155 0.738091 0.127964
H18   H     H_    0.193387 0.940952 0.558821 0.123406
H19   H     H_    0.080498 0.006818 0.402350 0.124497
H20   H     H_    0.013559 0.211381 0.424001 0.117830
H21   H     H_    0.001140 0.873068 0.599850 0.134471
H22   H     H_    0.946301 0.018545 0.766769 0.156598
H23   H     H_    0.940359 0.692960 0.450526 0.146669
H24   H     H_    0.828458 0.955473 0.916284 0.136123
H25   H     H_    0.765137 0.745047 0.896488 0.126199
H26   H     H_    0.817176 0.598968 0.732963 0.156743
H27   H     H_    0.507921 0.888397 0.292033 0.171464
H28   H     H_    0.470188 0.910752 0.593854 0.150319
H29   H     H_    0.476258 0.114046 0.295048 0.180881
H30   H     H_    0.527432 0.087436 0.591966 0.154610
H31   H     H_    0.588409 0.640439 0.879915 0.152186
H32   H     H_    0.615809 0.588337 0.122825 0.164213
N1    N     N_2   0.500900 0.501330 0.852150 -0.142166
N2    N     N_2   0.500920 0.501360 0.147810 -0.189328
O1    O     O_R   0.499990 0.319060 0.613040 -0.613532
O2    O     O_R   0.500010 0.319100 0.386900 -0.606748
O3    O     O_R   0.377130 0.499990 0.613120 -0.624510
O4    O     O_R   0.377160 0.500030 0.386980 -0.615643
O5    O     O_R   0.499990 0.680900 0.613100 -0.623341
O6    O     O_R   0.500010 0.680940 0.386960 -0.614495
O7    O     O_R   0.622840 0.499970 0.613020 -0.609937
O8    O     O_R   0.622870 0.500010 0.386880 -0.615364
O9    O     O_2   0.867088 0.338437 0.797667 -0.581504
Zn1   Zn    Zn3+2 0.499980 0.499970 0.650990 0.947361
Zn2   Zn    Zn3+2 0.500020 0.500030 0.349010 0.945148

loop_
_geom_bond_atom_site_label_1
_geom_bond_atom_site_label_2
_ccdc_geom_bond_type
C34   C37   S    
C1    O2    A    
C19   C20   A    
C36   H26   S    
C33   H24   S    
C7    H32   S    
C6    H31   S    
C12   C23   S    
C26   C27   A    
C1    C5    S    
C28   C29   A    
C16   H9    S    
C10   C15   S    
C30   C31   A    
C2    C41   D    
C16   O9    D    
C13   C23   S    
C18   C19   A    
C10   H12   S    
C24   C29   A    
C15   C37   S    
C12   H1    S    
C11   C15   S    
C19   H11   S    
C4    C40   S    
C2    H28   S    
O6    Zn2   S    
C9    O7    A    
C21   C22   A    
C31   H21   S    
C25   H16   S    
C18   H10   S    
C6    N1    D    
C41   H27   S    
C28   H19   S    
H2    N2    S    
C29   H20   S    
C30   C34   S    
C8    O6    A    
C12   C16   S    
C3    H29   S    
C24   C25   A    
C4    O4    A    
C20   H13   S    
C39   C40   T    
C13   H6    S    
C22   H15   S    
C35   H25   S    
C10   C24   S    
C25   C26   A    
C35   C36   A    
C9    C14   S    
C4    O3    A    
O5    Zn1   S    
C14   C38   T    
C37   H8    S    
N2    Zn2   S    
C31   C32   A    
C23   C34   S    
C34   H23   S    
C17   C18   A    
C11   H3    S    
C37   H7    S    
C26   H17   S    
C15   C39   S    
C10   C12   S    
C9    O8    A    
O3    Zn1   S    
O2    Zn2   S    
C17   N1    S    
C11   H4    S    
O7    Zn1   S    
C21   H14   S    
C3    C41   S    
C1    O1    A    
C2    C8    S    
C32   H22   S    
C3    C5    D    
C7    N2    D    
C6    C7    S    
C23   C38   S    
C17   C22   A    
C30   C36   A    
C32   C33   A    
C5    H30   S    
C27   H18   S    
C11   C13   S    
C13   H5    S    
C33   C35   A    
N1    Zn1   S    
O8    Zn2   S    
C20   C21   A    
C27   C28   A    
C8    O5    A    
O1    Zn1   S    
O4    Zn2   S    
