data_mof_unit_27630.cif
_audit_creation_date              2012-10-26T18:47:55-0400
_audit_creation_method            fapswitch 2.2
_symmetry_space_group_name_H-M    P1
_symmetry_Int_Tables_number       1
_space_group_crystal_system       triclinic
_cell_length_a                    15.849912
_cell_length_b                    8.693446
_cell_length_c                    7.452568
_cell_angle_alpha                 103.007228
_cell_angle_beta                  94.041342
_cell_angle_gamma                 92.180695
_cell_volume                      996.519047306

loop_
_atom_site_label
_atom_site_type_symbol
_atom_type_description
_atom_site_fract_x
_atom_site_fract_y
_atom_site_fract_z
_atom_type_partial_charge
C1    C     C_R   0.497489 0.199740 0.453271 0.546986
C2    C     C_2   0.503713 0.968153 0.572973 -0.157681
C3    C     C_R   0.340321 0.499902 0.502601 0.549792
C4    C     C_R   0.502510 0.800260 0.546729 0.547004
C5    C     C_R   0.659679 0.500102 0.497400 0.549793
C6    C     C_3   0.050233 0.410757 0.645491 -0.214691
C7    C     C_3   0.042576 0.417871 0.308767 -0.214319
C8    C     C_3   0.944702 0.417556 0.303998 -0.213996
C9    C     C_1   0.749190 0.499601 0.492399 -0.035803
C10   C     C_3   0.082910 0.500294 0.504053 0.073973
C11   C     C_3   0.952359 0.410442 0.640720 -0.213603
C12   C     C_3   0.917091 0.499761 0.495951 0.073825
C13   C     C_3   0.956130 0.671683 0.548127 -0.215069
C14   C     C_3   0.054011 0.671996 0.552946 -0.213973
C15   C     C_1   0.824805 0.499528 0.492267 -0.078098
C16   C     C_1   0.175197 0.500516 0.507737 -0.078039
C17   C     C_1   0.250811 0.500423 0.507604 -0.035798
C18   C     C_2   0.496284 0.031847 0.427027 -0.157655
Cu1   Cu    Cu3+1 0.509300 0.517380 0.684380 0.957206
Cu2   Cu    Cu3+1 0.490700 0.482620 0.315620 0.957209
H1    H     H_    0.925311 0.286284 0.606216 0.111507
H2    H     H_    0.065059 0.480190 0.204388 0.110177
H3    H     H_    0.062323 0.293995 0.270311 0.110712
H4    H     H_    0.917485 0.293554 0.263381 0.112423
H5    H     H_    0.920237 0.479787 0.197450 0.111089
H6    H     H_    0.082042 0.733825 0.692965 0.112349
H7    H     H_    0.076742 0.738933 0.453071 0.111442
H8    H     H_    0.937190 0.733410 0.685848 0.110828
H9    H     H_    0.078208 0.467944 0.787167 0.111232
H10   H     H_    0.933386 0.467425 0.780183 0.110119
H11   H     H_    0.931887 0.738453 0.445941 0.110355
H12   H     H_    0.489279 0.960282 0.286361 0.134399
H13   H     H_    0.510719 0.039719 0.713639 0.134372
H14   H     H_    0.434947 0.376773 0.948703 0.239334
H15   H     H_    0.565053 0.623227 0.051297 0.239369
H16   H     H_    0.070148 0.286770 0.613176 0.110239
N1    N     N_2   0.476670 0.456430 0.038530 -0.255523
N2    N     N_2   0.523330 0.543570 0.961470 -0.255513
O1    O     O_R   0.506050 0.286130 0.619770 -0.505614
O2    O     O_R   0.490330 0.256780 0.308370 -0.498208
O3    O     O_R   0.387300 0.514690 0.655770 -0.499550
O4    O     O_R   0.371580 0.485340 0.344370 -0.494635
O5    O     O_R   0.509670 0.743220 0.691630 -0.498193
O6    O     O_R   0.493950 0.713870 0.380230 -0.505579
O7    O     O_R   0.628420 0.514660 0.655630 -0.494640
O8    O     O_R   0.612700 0.485310 0.344230 -0.499556

loop_
_geom_bond_atom_site_label_1
_geom_bond_atom_site_label_2
_ccdc_geom_bond_type
C6    C10   S    
C7    C10   S    
C2    C4    S    
C11   C12   S    
Cu1   O7    S    
C3    O4    A    
C5    C9    S    
N1    N2    D    
Cu2   N1    S    
C4    O5    A    
C14   H7    S    
C2    C18   D    
H14   N1    S    
C5    O8    A    
Cu2   O4    S    
Cu1   Cu2   S    
C12   C15   S    
C8    C12   S    
H15   N2    S    
C9    C15   T    
C7    C8    S    
C13   H8    S    
C10   C16   S    
C13   C14   S    
C14   H6    S    
C8    H5    S    
C1    C18   S    
Cu1   O1    S    
C7    H3    S    
C2    H13   S    
C8    H4    S    
Cu1   O5    S    
C3    C17   S    
Cu2   O2    S    
C18   H12   S    
C1    O1    A    
C11   H1    S    
C7    H2    S    
C6    H9    S    
C12   C13   S    
C10   C14   S    
C6    C11   S    
Cu1   N2    S    
C3    O3    A    
C4    O6    A    
C1    O2    A    
Cu2   O6    S    
C5    O7    A    
C13   H11   S    
Cu2   O8    S    
Cu1   O3    S    
C11   H10   S    
C6    H16   S    
C16   C17   T    
