data_mof_unit_57807.cif
_audit_creation_date              2012-12-10T19:38:44-0500
_audit_creation_method            fapswitch 2.2
_symmetry_space_group_name_H-M    P1
_symmetry_Int_Tables_number       1
_space_group_crystal_system       triclinic
_cell_length_a                    10.641849
_cell_length_b                    15.796662
_cell_length_c                    17.111919
_cell_angle_alpha                 96.29357
_cell_angle_beta                  90.090519
_cell_angle_gamma                 92.663426
_cell_volume                      2856.12112678

loop_
_atom_site_label
_atom_site_type_symbol
_atom_type_description
_atom_site_fract_x
_atom_site_fract_y
_atom_site_fract_z
_atom_type_partial_charge
C1    C     C_R   0.498505 0.489598 0.348548 0.812631
C2    C     C_R   0.501502 0.510402 0.651452 0.812624
C3    C     C_R   0.496584 0.472776 0.097652 0.328613
C4    C     C_R   0.503551 0.527218 0.902347 0.328631
C5    C     C_R   0.489495 0.397614 0.135348 -0.025695
C6    C     C_R   0.510330 0.602385 0.864654 -0.025691
C7    C     C_R   0.488339 0.403880 0.217590 -0.255381
C8    C     C_R   0.511448 0.596124 0.782412 -0.255383
C9    C     C_R   0.439234 0.751329 0.461767 0.040901
C10   C     C_R   0.560765 0.248671 0.538234 0.040900
C11   C     C_R   0.442656 0.840719 0.464020 -0.286021
C12   C     C_R   0.557343 0.159281 0.535981 -0.286031
C13   C     C_R   0.525660 0.891303 0.516318 0.386676
C14   C     C_R   0.474340 0.108697 0.483681 0.386672
C15   C     C_R   0.602549 0.849034 0.564768 -0.319169
C16   C     C_R   0.397453 0.150965 0.435231 -0.319156
C17   C     C_R   0.596156 0.759530 0.560605 0.051117
C18   C     C_R   0.403845 0.240470 0.439393 0.051143
C19   C     C_R   0.259190 0.499977 0.500356 0.801164
C20   C     C_R   0.740809 0.500022 0.499640 0.801196
C21   C     C_3   0.035405 0.418509 0.493503 -0.198025
C22   C     C_3   0.964594 0.581487 0.506486 -0.198005
C23   C     C_3   0.956591 0.458761 0.432739 0.055716
C24   C     C_3   0.043407 0.541234 0.567250 0.055716
C25   C     C_3   0.877364 0.500463 0.499344 -0.022575
C26   C     C_3   0.122635 0.499533 0.500646 -0.022577
C27   C     C_3   0.954377 0.460844 0.560853 -0.221351
C28   C     C_3   0.045621 0.539151 0.439135 -0.221365
C29   C     C_R   0.496514 0.483742 0.262532 -0.040842
C30   C     C_R   0.503529 0.516258 0.737468 -0.040910
C31   C     C_R   0.504020 0.558031 0.224882 -0.258443
C32   C     C_R   0.496335 0.441965 0.775117 -0.258381
C33   C     C_R   0.503667 0.552875 0.143477 -0.187065
C34   C     C_R   0.496744 0.447118 0.856522 -0.186929
Cu1   Cu    Cu3+1 0.493870 0.415220 0.496180 0.940172
Cu2   Cu    Cu3+1 0.506130 0.584780 0.503820 0.940161
H1    H     H_    0.667489 0.885384 0.605756 0.138429
H2    H     H_    0.332514 0.114616 0.394242 0.138439
H3    H     H_    0.656057 0.727979 0.598340 0.122181
H4    H     H_    0.343946 0.272021 0.401658 0.122165
H5    H     H_    0.067905 0.352412 0.489107 0.137429
H6    H     H_    0.932095 0.647584 0.510880 0.137425
H7    H     H_    0.914183 0.429408 0.610749 0.133219
H8    H     H_    0.085816 0.570588 0.389240 0.133204
H9    H     H_    0.492290 0.388051 0.883286 0.167974
H10   H     H_    0.508384 0.611942 0.116714 0.168040
H11   H     H_    0.484045 0.346076 0.246450 0.165622
H12   H     H_    0.515490 0.653928 0.753551 0.165684
H13   H     H_    0.624714 0.286839 0.578480 0.125866
H14   H     H_    0.375283 0.713162 0.421521 0.125891
H15   H     H_    0.619072 0.130539 0.574799 0.151070
H16   H     H_    0.380926 0.869461 0.425203 0.151075
N1    N     N_2   0.492339 0.465513 0.014258 -0.265175
N2    N     N_2   0.507816 0.534480 0.985740 -0.265203
N3    N     N_R   0.515330 0.712130 0.509560 -0.163695
N4    N     N_R   0.484670 0.287870 0.490440 -0.163689
N5    N     N_2   0.535408 0.983052 0.522461 -0.247855
N6    N     N_2   0.464593 0.016948 0.477538 -0.247851
O1    O     O_R   0.494270 0.420530 0.382500 -0.584378
O2    O     O_R   0.505730 0.579470 0.617500 -0.584394
O3    O     O_R   0.504620 0.563720 0.388950 -0.594924
O4    O     O_R   0.495380 0.436280 0.611050 -0.594917
O5    O     O_R   0.311680 0.428420 0.496760 -0.593654
O6    O     O_R   0.688320 0.571580 0.503240 -0.593653
O7    O     O_R   0.322030 0.571610 0.503210 -0.580300
O8    O     O_R   0.677970 0.428390 0.496790 -0.580300
C35   C     C_R   0.904077 0.415926 0.356034 0.106504
C36   C     C_R   0.909607 0.327456 0.336719 -0.133382
C37   C     C_R   0.861764 0.288853 0.264659 -0.135151
C38   C     C_R   0.809154 0.338272 0.211294 -0.109021
C39   C     C_R   0.803520 0.426327 0.230108 -0.123135
C40   C     C_R   0.849550 0.465000 0.302540 -0.164562
H17   H     H_    0.950308 0.288148 0.377144 0.112903
H18   H     H_    0.865938 0.220627 0.250052 0.125984
H19   H     H_    0.772855 0.308331 0.155411 0.129701
H20   H     H_    0.763100 0.464602 0.188649 0.144013
H21   H     H_    0.843838 0.533243 0.316631 0.124052
C41   C     C_R   0.095876 0.584052 0.643973 0.106529
C42   C     C_R   0.090181 0.672504 0.663349 -0.133411
C43   C     C_R   0.137887 0.711081 0.735452 -0.135152
C44   C     C_R   0.190542 0.661654 0.788795 -0.109053
C45   C     C_R   0.196369 0.573620 0.769913 -0.123179
C46   C     C_R   0.150464 0.534973 0.697441 -0.164515
H22   H     H_    0.049435 0.711814 0.622944 0.112895
H23   H     H_    0.133564 0.779290 0.750113 0.125984
H24   H     H_    0.226722 0.691573 0.844715 0.129774
H25   H     H_    0.236833 0.535341 0.811351 0.144000
H26   H     H_    0.156304 0.466744 0.683302 0.124059
H27   H     H_    0.490449 0.379554 0.741706 0.164938
H28   H     H_    0.510125 0.620440 0.258292 0.164978
C47   C     C_R   0.484831 0.311797 0.090001 0.125164
C48   C     C_R   0.574824 0.290497 0.031880 -0.151437
C49   C     C_R   0.571321 0.209065 0.990416 -0.150857
C50   C     C_R   0.478586 0.148084 0.006786 -0.111364
C51   C     C_R   0.389210 0.168427 0.064714 -0.136652
C52   C     C_R   0.392280 0.249804 0.106312 -0.151549
H29   H     H_    0.648706 0.336471 0.019374 0.131192
H30   H     H_    0.640941 0.193108 0.945833 0.125429
H31   H     H_    0.476191 0.085007 0.974749 0.118581
H32   H     H_    0.317529 0.121096 0.077437 0.122198
H33   H     H_    0.322093 0.264611 0.150885 0.122015
C53   C     C_R   0.514661 0.688199 0.910003 0.125117
C54   C     C_R   0.424649 0.709306 0.968164 -0.151466
C55   C     C_R   0.427821 0.790735 0.009622 -0.150891
C56   C     C_R   0.520236 0.851908 0.993205 -0.111379
C57   C     C_R   0.609624 0.831759 0.935237 -0.136650
C58   C     C_R   0.606889 0.750384 0.893647 -0.151539
H34   H     H_    0.350998 0.663182 0.980702 0.131319
H35   H     H_    0.358188 0.806541 0.054235 0.125471
H36   H     H_    0.522371 0.914984 0.025235 0.118601
H37   H     H_    0.681053 0.879241 0.922475 0.122191
H38   H     H_    0.677082 0.735730 0.849042 0.121987

loop_
_geom_bond_atom_site_label_1
_geom_bond_atom_site_label_2
_ccdc_geom_bond_type
C21   C26   S    
C49   C50   A    
C7    C29   A    
C11   C13   A    
C58   H38   S    
Cu1   Cu2   S    
C24   C27   S    
C56   H36   S    
C44   C45   A    
C22   H6    S    
N1    N2    D    
C40   H21   S    
C20   O8    A    
C24   C26   S    
C1    O1    A    
C55   H35   S    
C2    O2    A    
C13   N5    S    
C57   C58   A    
C3    C33   A    
C45   H25   S    
Cu1   O1    S    
C35   C40   A    
C17   H3    S    
C23   C35   S    
C19   C26   S    
C18   H4    S    
C15   H1    S    
C11   H16   S    
C53   C54   A    
C47   C52   A    
C41   C46   A    
C51   C52   A    
C19   O5    A    
C36   C37   A    
C22   C25   S    
C31   C33   A    
C38   C39   A    
C9    N3    A    
C10   N4    A    
C17   N3    A    
C44   H24   S    
C18   N4    A    
C23   C25   S    
C46   H26   S    
C21   C27   S    
C22   C28   S    
C52   H33   S    
C33   H10   S    
C37   C38   A    
C55   C56   A    
C48   H29   S    
C57   H37   S    
C14   N6    S    
C4    C34   A    
C35   C36   A    
C53   C58   A    
C4    C6    A    
C47   C48   A    
C5    C7    A    
C51   H32   S    
C6    C8    A    
Cu1   O8    S    
C3    C5    A    
C36   H17   S    
C28   H8    S    
C7    H11   S    
C20   O6    A    
C8    H12   S    
C43   H23   S    
C32   H27   S    
C31   H28   S    
C1    C29   S    
C37   H18   S    
C34   H9    S    
C23   C28   S    
C9    C11   A    
C5    C47   S    
C10   C12   A    
C21   H5    S    
C24   C41   S    
C12   C14   A    
C13   C15   A    
C22   C24   S    
Cu2   O3    S    
C39   H20   S    
C54   C55   A    
C12   H15   S    
C15   C17   A    
C4    N2    S    
Cu1   N4    S    
C41   C42   A    
C9    H14   S    
C43   C44   A    
Cu2   O2    S    
C1    O3    A    
C25   C27   S    
C56   C57   A    
C26   C28   S    
C2    C30   S    
C8    C30   A    
Cu2   O7    S    
C21   C23   S    
C39   C40   A    
C29   C31   A    
Cu2   N3    S    
C30   C32   A    
C3    N1    S    
N5    N6    D    
C42   H22   S    
C50   H31   S    
C48   C49   A    
C19   O7    A    
Cu1   O4    S    
C14   C16   A    
C6    C53   S    
C50   C51   A    
C42   C43   A    
C27   H7    S    
C16   C18   A    
C45   C46   A    
C20   C25   S    
C16   H2    S    
C38   H19   S    
C54   H34   S    
Cu1   O5    S    
Cu2   O6    S    
C10   H13   S    
C49   H30   S    
C2    O4    A    
C32   C34   A    
