data_mof_unit_67756.cif
_audit_creation_date              2012-12-10T16:49:23-0500
_audit_creation_method            fapswitch 2.2
_symmetry_space_group_name_H-M    P1
_symmetry_Int_Tables_number       1
_space_group_crystal_system       triclinic
_cell_length_a                    7.925534
_cell_length_b                    8.660002
_cell_length_c                    12.989891
_cell_angle_alpha                 88.058754
_cell_angle_beta                  87.682115
_cell_angle_gamma                 91.045768
_cell_volume                      890.150396478

loop_
_atom_site_label
_atom_site_type_symbol
_atom_type_description
_atom_site_fract_x
_atom_site_fract_y
_atom_site_fract_z
_atom_type_partial_charge
C1    C     C_R   0.457674 0.206655 0.495443 1.021091
C2    C     C_R   0.653618 0.340564 0.149578 0.359128
C3    C     C_R   0.530735 0.368715 0.871537 0.495027
C4    C     C_R   0.406649 0.493642 0.130281 0.367198
C5    C     C_R   0.535893 0.389552 0.979415 -0.233042
C6    C     C_R   0.432240 0.503427 0.024042 -0.243769
C7    C     C_2   0.435426 0.044931 0.490729 -0.310269
C8    C     C_2   0.565527 0.954901 0.505350 -0.255897
C9    C     C_3   0.190029 0.823534 0.991271 0.027724
C10   C     C_3   0.020642 0.877061 0.953587 -0.583978
C11   C     C_3   0.519551 0.048674 0.074047 0.225639
C12   C     C_R   0.542710 0.793365 0.502567 0.892503
C13   C     C_3   0.571961 0.880626 0.082882 -0.772918
C14   C     C_3   0.078648 0.768556 0.390719 0.182062
C15   C     C_3   0.986290 0.886025 0.327398 -0.768757
C16   C     C_3   0.979316 0.208834 0.568950 0.263146
C17   C     C_3   0.070711 0.092827 0.637025 -0.759566
C18   C     C_R   0.463575 0.493599 0.700039 0.964592
C19   C     C_R   0.532171 0.486712 0.300566 0.947912
C20   C     C_R   0.544289 0.452905 0.190075 -0.385634
C21   C     C_R   0.433622 0.472748 0.812546 -0.405158
C22   C     C_R   0.315961 0.587143 0.965662 0.458814
C23   C     C_R   0.626464 0.292842 0.048324 0.506363
C24   C     C_R   0.301812 0.553024 0.862424 0.200216
H1    H     H_    0.311018 0.000316 0.474735 0.138678
H2    H     H_    0.004866 0.845300 0.872615 0.259938
H3    H     H_    0.014833 0.004821 0.956677 0.247052
H4    H     H_    0.406127 0.061778 0.028165 0.146065
H5    H     H_    0.479655 0.083389 0.152599 0.173823
H6    H     H_    0.595408 0.833721 0.005302 0.243364
H7    H     H_    0.471294 0.811011 0.125192 0.184173
H8    H     H_    0.687756 0.870297 0.127434 0.293445
H9    H     H_    0.199835 0.745229 0.348971 0.192618
H10   H     H_    0.098860 0.818817 0.466728 0.126909
H11   H     H_    0.859484 0.904949 0.363286 0.284701
H12   H     H_    0.690972 0.999253 0.518927 0.159311
H13   H     H_    0.059605 0.996433 0.324847 0.221872
H14   H     H_    0.972754 0.844023 0.248249 0.285876
H15   H     H_    0.012748 0.188830 0.486471 0.105251
H16   H     H_    0.845630 0.185211 0.584552 0.197840
H17   H     H_    0.006129 0.079339 0.714005 0.289763
H18   H     H_    0.068624 0.977720 0.602553 0.184673
H19   H     H_    0.203178 0.130008 0.647586 0.275568
H20   H     H_    0.188227 0.283870 0.317852 0.402462
H21   H     H_    0.564750 0.954631 0.822623 0.369640
H22   H     H_    0.007917 0.115195 0.171201 0.407792
H23   H     H_    0.119857 0.281125 0.846201 0.360341
H24   H     H_    0.290281 0.860124 0.932805 0.153150
H25   H     H_    0.209576 0.883462 0.063915 0.158610
H26   H     H_    0.916307 0.824935 0.003278 0.274779
N1    N     N_2   0.054030 0.541640 0.471970 0.160209
N2    N     N_2   0.945970 0.458360 0.528030 0.189277
O1    O     O_R   0.609680 0.261530 0.506880 -0.608819
O2    O     O_2   0.119413 0.348704 0.077385 -0.252604
O3    O     O_3   0.240477 0.256685 0.250796 -0.630913
O4    O     O_2   0.608674 0.203337 0.699886 -0.356856
O5    O     O_2   0.796560 0.182079 0.842818 -0.241932
O6    O     O_3   0.504652 0.041970 0.853864 -0.610192
O7    O     O_2   0.888664 0.304938 0.295844 -0.262375
O8    O     O_2   0.655779 0.119608 0.298697 -0.378815
O9    O     O_3   0.888811 0.098735 0.154918 -0.533771
O10   O     O_2   0.958542 0.546729 0.902641 -0.234545
O11   O     O_2   0.060838 0.633274 0.729664 -0.279397
O12   O     O_R   0.390320 0.738470 0.493120 -0.681301
O13   O     O_3   0.082560 0.342199 0.785638 -0.446588
O14   O     O_3   0.185789 0.663620 0.016525 -0.519432
O15   O     O_3   0.654060 0.139967 0.027316 -0.499896
O16   O     O_3   0.978983 0.634337 0.403528 -0.485007
O17   O     O_3   0.020153 0.361200 0.594674 -0.435806
O18   O     O_R   0.323330 0.288220 0.488910 -0.659994
O19   O     O_R   0.676670 0.711780 0.511090 -0.603365
O20   O     O_R   0.619510 0.488830 0.661140 -0.552967
O21   O     O_R   0.380490 0.511170 0.338860 -0.626666
O22   O     O_R   0.333160 0.515520 0.643180 -0.533020
O23   O     O_R   0.666840 0.484480 0.356820 -0.521605
O24   O     O_2   0.100467 0.526823 0.218733 -0.211890
S1    S     S_3+6 0.208240 0.407450 0.168867 0.070171
S2    S     S_3+6 0.616583 0.200074 0.814007 0.047239
S3    S     S_3+6 0.774052 0.216655 0.229472 0.047451
S4    S     S_3+6 0.093527 0.526241 0.819848 0.114622
Zn1   Zn    Zn3+2 0.691200 0.482180 0.511990 1.146554
Zn2   Zn    Zn3+2 0.308800 0.517820 0.488010 1.062114

loop_
_geom_bond_atom_site_label_1
_geom_bond_atom_site_label_2
_ccdc_geom_bond_type
C10   H3    S    
O8    S3    D    
C18   C21   S    
C13   H8    S    
C19   C20   S    
C14   H9    S    
C7    C8    D    
O10   S4    D    
C5    C6    A    
O3    S1    S    
C6    C22   A    
O4    S2    D    
O1    Zn1   S    
C8    H12   S    
C23   O15   S    
C1    O1    A    
C9    O14   S    
C15   H13   S    
C2    S3    S    
C17   H18   S    
C24   S4    S    
C22   O14   S    
C16   C17   S    
N2    O17   S    
C9    C10   S    
O20   Zn1   S    
O2    S1    D    
C10   H2    S    
C18   O22   A    
O13   S4    S    
O22   Zn2   S    
C15   H11   S    
C11   O15   S    
O11   S4    D    
C18   O20   A    
H21   O6    S    
H22   O9    S    
C2    C20   A    
N1    N2    D    
C13   H6    S    
C19   O21   A    
C9    H25   S    
O24   S1    D    
C4    C6    A    
O7    S3    D    
O23   Zn1   S    
C17   H19   S    
C15   H14   S    
C5    C23   A    
C8    C12   S    
N1    Zn2   S    
O12   Zn2   S    
C16   H16   S    
C12   O19   A    
C22   C24   A    
C3    C21   A    
C10   H26   S    
O21   Zn2   S    
C1    C7    S    
O5    S2    D    
C13   H7    S    
C16   O17   S    
C3    C5    A    
C14   H10   S    
C1    O18   A    
C7    H1    S    
C19   O23   A    
C4    S1    S    
C11   C13   S    
H20   O3    S    
C11   H4    S    
O9    S3    S    
C12   O12   A    
N1    O16   S    
N2    Zn1   S    
O18   Zn2   S    
C17   H17   S    
O6    S2    S    
C16   H15   S    
C4    C20   A    
C11   H5    S    
C9    H24   S    
C21   C24   A    
C2    C23   A    
C14   O16   S    
C14   C15   S    
C3    S2    S    
H23   O13   S    
O19   Zn1   S    
