data_mof_unit_56688.cif
_audit_creation_date              2012-10-26T21:19:46-0400
_audit_creation_method            fapswitch 2.2
_symmetry_space_group_name_H-M    P1
_symmetry_Int_Tables_number       1
_space_group_crystal_system       triclinic
_cell_length_a                    10.924147
_cell_length_b                    15.058471
_cell_length_c                    13.860182
_cell_angle_alpha                 88.680878
_cell_angle_beta                  90.535127
_cell_angle_gamma                 90.099723
_cell_volume                      2279.30680255

loop_
_atom_site_label
_atom_site_type_symbol
_atom_type_description
_atom_site_fract_x
_atom_site_fract_y
_atom_site_fract_z
_atom_type_partial_charge
C1    C     C_R   0.500672 0.329659 0.501046 0.535829
C2    C     C_R   0.438879 0.820707 0.429333 -0.017692
C3    C     C_R   0.507295 0.232576 0.503001 0.011363
C4    C     C_R   0.506609 0.767440 0.496743 0.009044
C5    C     C_R   0.585818 0.192804 0.436869 -0.144671
C6    C     C_R   0.586854 0.807695 0.562485 -0.147636
C7    C     C_R   0.599361 0.101071 0.436258 -0.132280
C8    C     C_R   0.600764 0.899473 0.562199 -0.131164
C9    C     C_R   0.535604 0.048151 0.502558 0.010951
C10   C     C_R   0.535814 0.951897 0.495276 0.012363
C11   C     C_R   0.423729 0.563522 0.107319 -0.040515
C12   C     C_R   0.499877 0.670347 0.498923 0.525953
C13   C     C_R   0.418298 0.441281 0.891566 -0.034016
C14   C     C_R   0.430486 0.561535 0.209368 0.024897
C15   C     C_R   0.425885 0.441642 0.789812 0.058297
C16   C     C_R   0.262212 0.498705 0.499755 0.548577
C17   C     C_R   0.738033 0.497442 0.500617 0.566590
C18   C     C_R   0.564311 0.438732 0.208858 0.032683
C19   C     C_R   0.565397 0.561262 0.791275 0.048139
C20   C     C_R   0.561049 0.438432 0.107012 -0.173969
C21   C     C_R   0.562129 0.562649 0.892906 -0.149444
C22   C     C_R   0.491013 0.501401 0.054298 0.012700
C23   C     C_R   0.872224 0.494475 0.501854 -0.056773
C24   C     C_R   0.489945 0.501382 0.945168 0.016199
C25   C     C_R   0.250395 0.369620 0.219312 -0.088511
C26   C     C_R   0.826316 0.397640 0.815896 -0.112837
C27   C     C_R   0.182853 0.430238 0.271925 -0.054899
C28   C     C_R   0.856655 0.413077 0.719230 -0.058229
C29   C     C_R   0.119283 0.401189 0.354124 0.092021
C30   C     C_R   0.886874 0.499139 0.685842 0.114646
C31   C     C_R   0.114781 0.310122 0.377709 -0.091798
C32   C     C_R   0.883856 0.569663 0.750352 -0.059284
C33   C     C_R   0.183061 0.249842 0.325504 -0.127692
C34   C     C_R   0.128395 0.497972 0.499668 -0.065578
C35   C     C_R   0.856853 0.553515 0.847604 -0.132968
C36   C     C_R   0.253286 0.279965 0.247855 -0.094666
C37   C     C_R   0.828001 0.467577 0.880297 -0.110117
C38   C     C_R   0.935346 0.473626 0.416710 0.217226
C39   C     C_R   0.065566 0.523991 0.582878 0.204378
C40   C     C_R   0.341423 0.628057 0.058678 0.029354
C41   C     C_R   0.388411 0.706509 0.016849 -0.089466
C42   C     C_R   0.309322 0.768580 0.973102 -0.127643
C43   C     C_R   0.183041 0.753081 0.972099 -0.130804
C44   C     C_R   0.135889 0.674780 0.013358 -0.128831
C45   C     C_R   0.939240 0.511119 0.587757 -0.073416
C46   C     C_R   0.214805 0.612301 0.056385 -0.099926
C47   C     C_R   0.329550 0.381372 0.938573 0.020173
C48   C     C_R   0.366721 0.298129 0.975256 -0.099256
C49   C     C_R   0.280456 0.239611 0.015060 -0.134489
C50   C     C_R   0.157177 0.264238 0.019057 -0.113868
C51   C     C_R   0.119929 0.347329 0.982787 -0.124939
C52   C     C_R   0.205660 0.405578 0.941831 -0.092388
C53   C     C_3   0.884041 0.514030 0.260976 0.010108
C54   C     C_3   0.892640 0.470653 0.163146 -0.387515
C55   C     C_3   0.158460 0.635122 0.665779 -0.003265
C56   C     C_R   0.062373 0.464500 0.420371 -0.072814
C57   C     C_3   0.190783 0.661974 0.767439 -0.356800
C58   C     C_R   0.343678 0.213501 0.634040 0.031213
C59   C     C_R   0.327350 0.176014 0.727097 -0.112624
C60   C     C_R   0.224328 0.196891 0.780927 -0.112180
C61   C     C_R   0.138885 0.258109 0.744761 -0.098811
C62   C     C_R   0.155447 0.297424 0.653792 -0.107106
C63   C     C_R   0.256627 0.274939 0.598517 -0.079235
C64   C     C_R   0.340212 0.785297 0.365867 0.035247
C65   C     C_R   0.324999 0.819117 0.271042 -0.112440
C66   C     C_R   0.221585 0.796930 0.216725 -0.107546
C67   C     C_R   0.457438 0.086534 0.568696 -0.119922
C68   C     C_R   0.134586 0.738005 0.254446 -0.113320
C69   C     C_R   0.149750 0.702621 0.347610 -0.126202
C70   C     C_R   0.251012 0.726996 0.403323 -0.067070
C71   C     C_R   0.456168 0.912946 0.429303 -0.119710
C72   C     C_R   0.440734 0.178798 0.569914 -0.016679
Cu1   Cu    Cu3+1 0.500000 0.499990 0.596430 0.943924
Cu2   Cu    Cu3+1 0.500000 0.500010 0.403570 0.945031
H1    H     H_    0.309501 0.233582 0.209857 0.108374
H2    H     H_    0.616937 0.610938 0.930689 0.087280
H3    H     H_    0.302255 0.392342 0.157563 0.135696
H4    H     H_    0.803756 0.331161 0.841276 0.093018
H5    H     H_    0.184465 0.500049 0.251813 0.095000
H6    H     H_    0.859729 0.357647 0.670876 0.087460
H7    H     H_    0.062925 0.286443 0.439398 0.099997
H8    H     H_    0.905080 0.636601 0.725979 0.086721
H9    H     H_    0.183543 0.180167 0.346500 0.106949
H10   H     H_    0.857054 0.607785 0.897444 0.083222
H11   H     H_    0.403778 0.043209 0.615467 0.108926
H12   H     H_    0.805413 0.455330 0.955231 0.101052
H13   H     H_    0.401728 0.955691 0.381782 0.108230
H14   H     H_    0.637114 0.233040 0.385480 0.126373
H15   H     H_    0.639129 0.767828 0.614246 0.109963
H16   H     H_    0.485788 0.719910 0.018947 0.092799
H17   H     H_    0.345696 0.829114 0.940927 0.096933
H18   H     H_    0.121819 0.801479 0.938866 0.097611
H19   H     H_    0.038245 0.662560 0.012082 0.092303
H20   H     H_    0.177227 0.551887 0.087874 0.092746
H21   H     H_    0.461754 0.278211 0.971759 0.097332
H22   H     H_    0.308987 0.174914 0.042338 0.091071
H23   H     H_    0.657977 0.071252 0.383385 0.112050
H24   H     H_    0.090639 0.218897 0.050160 0.106502
H25   H     H_    0.024559 0.366179 0.985587 0.105697
H26   H     H_    0.175571 0.469151 0.912179 0.134293
H27   H     H_    0.965727 0.557944 0.268879 0.095841
H28   H     H_    0.801364 0.556895 0.261004 0.160786
H29   H     H_    0.813883 0.425643 0.151687 0.147440
H30   H     H_    0.893348 0.522678 0.105058 0.081417
H31   H     H_    0.977842 0.431186 0.158831 0.155455
H32   H     H_    0.082000 0.678047 0.638362 0.093674
H33   H     H_    0.240456 0.647573 0.621460 0.158042
H34   H     H_    0.660489 0.929746 0.614959 0.108856
H35   H     H_    0.269062 0.621880 0.795802 0.181339
H36   H     H_    0.216367 0.733362 0.767367 0.094401
H37   H     H_    0.110634 0.650881 0.814666 0.155642
H38   H     H_    0.392162 0.128226 0.756908 0.094682
H39   H     H_    0.209515 0.163910 0.849826 0.117659
H40   H     H_    0.059040 0.274062 0.786569 0.118888
H41   H     H_    0.087892 0.343219 0.624860 0.120564
H42   H     H_    0.264932 0.303516 0.526944 0.112576
H43   H     H_    0.391069 0.865035 0.240153 0.095837
H44   H     H_    0.207861 0.827143 0.146151 0.126015
H45   H     H_    0.377865 0.608663 0.249599 0.146998
H46   H     H_    0.054538 0.720916 0.212150 0.102097
H47   H     H_    0.081133 0.658573 0.377873 0.093817
H48   H     H_    0.257397 0.702895 0.476658 0.077135
H49   H     H_    0.370396 0.395902 0.749088 0.159368
H50   H     H_    0.618479 0.389532 0.247949 0.146857
H51   H     H_    0.620997 0.609302 0.752419 0.122296
H52   H     H_    0.613190 0.389121 0.069401 0.086378
N1    N     N_R   0.500000 0.500020 0.258690 -0.235287
N2    N     N_R   0.500000 0.499980 0.741310 -0.234228
O1    O     O_R   0.500010 0.371450 0.581430 -0.502967
O2    O     O_3   0.128372 0.543888 0.667009 -0.533514
O3    O     O_R   0.499990 0.628550 0.418570 -0.502013
O4    O     O_R   0.500010 0.371460 0.418560 -0.504001
O5    O     O_R   0.499990 0.628540 0.581440 -0.523915
O6    O     O_R   0.319640 0.500000 0.581430 -0.460924
O7    O     O_R   0.680360 0.500000 0.418570 -0.459816
O8    O     O_R   0.319640 0.500010 0.418560 -0.511527
O9    O     O_R   0.680360 0.499990 0.581440 -0.509774
O10   O     O_3   0.872759 0.447491 0.334526 -0.537592

loop_
_geom_bond_atom_site_label_1
_geom_bond_atom_site_label_2
_ccdc_geom_bond_type
C66   C68   A    
C34   C56   A    
C23   C45   A    
C48   H21   S    
Cu2   O4    S    
C27   C29   A    
Cu1   Cu2   S    
C30   C45   S    
C1    O4    A    
C16   O6    A    
C53   C54   S    
C40   C46   A    
C21   H2    S    
C17   C23   S    
C15   H49   S    
C25   H3    S    
C54   H30   S    
C12   O3    A    
C67   C72   A    
C1    O1    A    
C11   C14   A    
C19   N2    A    
C33   C36   A    
C42   H17   S    
C41   C42   A    
C49   C50   A    
C70   H48   S    
C44   H19   S    
C16   C34   S    
C5    H14   S    
C57   H35   S    
Cu2   N1    S    
C2    C64   S    
C68   C69   A    
Cu2   O8    S    
C17   O7    A    
C47   C48   A    
C31   C33   A    
C64   C70   A    
C4    C12   S    
C9    C10   S    
C61   C62   A    
C39   C45   A    
C10   C71   A    
C41   H16   S    
C59   C60   A    
Cu2   O3    S    
C60   H39   S    
C11   C40   S    
C8    H34   S    
C44   C46   A    
C50   C51   A    
C51   H25   S    
Cu1   O1    S    
C67   H11   S    
C50   H24   S    
C55   H32   S    
C53   O10   S    
C32   C35   A    
C54   H29   S    
C4    C6    A    
C53   H27   S    
C5    C7    A    
C6    C8    A    
C58   C59   A    
C19   H51   S    
C14   N1    A    
C34   C39   A    
C13   C24   A    
C55   H33   S    
C60   C61   A    
C1    C3    S    
C2    C4    A    
C43   C44   A    
C9    C67   A    
C20   H52   S    
C62   C63   A    
C36   H1    S    
C18   N1    A    
C37   H12   S    
C57   H36   S    
C46   H20   S    
C69   H47   S    
C53   H28   S    
C55   O2    S    
Cu2   O7    S    
C59   H38   S    
C38   O10   S    
C26   H4    S    
C33   H9    S    
C71   H13   S    
C63   H42   S    
C40   C41   A    
C39   O2    S    
Cu1   O5    S    
C65   C66   A    
C15   N2    A    
C55   C57   S    
C22   C24   S    
C42   C43   A    
C27   H5    S    
C2    C71   A    
Cu1   N2    S    
C13   C47   S    
C58   C63   A    
C7    C9    A    
C48   C49   A    
C7    H23   S    
C54   H31   S    
C35   C37   A    
C20   C22   A    
C3    C5    A    
C35   H10   S    
C26   C37   A    
C47   C52   A    
C29   C56   S    
C25   C27   A    
C6    H15   S    
C32   H8    S    
C11   C22   A    
C26   C28   A    
C43   H18   S    
C31   H7    S    
C23   C38   A    
C12   O5    A    
C64   C65   A    
C13   C15   A    
C3    C72   A    
C51   C52   A    
C29   C31   A    
C68   H46   S    
C30   C32   A    
C58   C72   S    
C57   H37   S    
Cu1   O9    S    
C28   C30   A    
C52   H26   S    
C18   C20   A    
C49   H22   S    
C69   C70   A    
C28   H6    S    
C25   C36   A    
C62   H41   S    
C38   C56   A    
Cu1   O6    S    
C8    C10   A    
C14   H45   S    
C66   H44   S    
C21   C24   A    
C61   H40   S    
C65   H43   S    
C17   O9    A    
C18   H50   S    
C19   C21   A    
C16   O8    A    
