data_mof_unit_12953.cif
_audit_creation_date              2013-03-05T15:49:05-0500
_audit_creation_method            fapswitch 2.2
_symmetry_space_group_name_H-M    P1
_symmetry_Int_Tables_number       1
_space_group_crystal_system       triclinic
_cell_length_a                    10.646616
_cell_length_b                    12.9636
_cell_length_c                    11.898123
_cell_angle_alpha                 97.945285
_cell_angle_beta                  92.178379
_cell_angle_gamma                 93.711487
_cell_volume                      1621.15276081

loop_
_atom_site_label
_atom_site_type_symbol
_atom_site_description
_atom_site_fract_x
_atom_site_fract_y
_atom_site_fract_z
_atom_type_partial_charge
O1    O     O_R   0.506670 0.354460 0.582000 -0.601252
O2    O     O_R   0.493330 0.645540 0.418000 -0.576652
O3    O     O_R   0.490800 0.341410 0.386200 -0.522660
O4    O     O_R   0.509200 0.658590 0.613800 -0.532665
C1    C     C_R   0.503389 0.300369 0.479872 0.854247
C2    C     C_R   0.495549 0.699487 0.520189 0.850495
O5    O     O_R   0.324790 0.506500 0.597880 -0.581815
O6    O     O_R   0.675210 0.493500 0.402120 -0.601132
O7    O     O_R   0.308910 0.493440 0.402080 -0.530476
O8    O     O_R   0.691090 0.506560 0.597920 -0.525667
C3    C     C_R   0.260357 0.500755 0.501504 0.879124
C4    C     C_R   0.739905 0.499912 0.498741 0.881724
Cu1   Cu    Cu3+1 0.509400 0.507730 0.615930 1.059064
Cu2   Cu    Cu3+1 0.490600 0.492270 0.384070 1.062519
C5    C     C_3   0.044923 0.511130 0.610453 -0.191288
C6    C     C_3   0.956397 0.491248 0.391116 -0.186567
C7    C     C_3   0.955523 0.421843 0.548200 0.361200
C8    C     C_3   0.045655 0.580431 0.453592 0.367964
H1    H     H_    0.080214 0.519547 0.700373 0.221024
H2    H     H_    0.925322 0.484008 0.300440 0.205588
C9    C     C_3   0.876676 0.499758 0.497158 -0.162526
C10   C     C_3   0.124144 0.502297 0.504139 -0.159498
C11   C     C_3   0.965228 0.590962 0.558428 -0.200895
C12   C     C_3   0.035711 0.411205 0.443278 -0.193310
H3    H     H_    0.936287 0.666201 0.602482 0.231559
H4    H     H_    0.065108 0.336099 0.399151 0.228484
C13   C     C_R   0.481668 0.811420 0.530233 -0.113458
C14   C     C_R   0.515415 0.188186 0.469854 -0.110955
C15   C     C_R   0.586441 0.026330 0.374343 -0.169577
C16   C     C_R   0.409490 0.973012 0.625389 -0.184398
C17   C     C_R   0.581801 0.134424 0.381507 0.357006
C18   C     C_R   0.415361 0.864995 0.618757 0.364849
C19   C     C_R   0.457905 0.133586 0.549728 -0.248001
C20   C     C_R   0.537479 0.865920 0.449722 -0.215342
C21   C     C_R   0.465725 0.026707 0.544065 0.110069
C22   C     C_R   0.529725 0.972745 0.455441 0.101499
H5    H     H_    0.589255 0.825530 0.383514 0.159481
H6    H     H_    0.404952 0.173600 0.615621 0.156084
H7    H     H_    0.637397 0.984530 0.307262 0.202380
H8    H     H_    0.358532 0.014694 0.692539 0.186912
N1    N     N_R   0.523540 0.519360 0.790140 -0.265239
N2    N     N_R   0.476460 0.480640 0.209860 -0.260891
C23   C     C_R   0.352692 0.425051 0.033709 0.183622
C24   C     C_R   0.601658 0.616433 0.970511 0.190504
C25   C     C_R   0.372879 0.426790 0.152097 0.444347
C26   C     C_R   0.595975 0.601036 0.850593 0.448115
C27   C     C_R   0.559853 0.537249 0.149101 0.255362
C28   C     C_R   0.448945 0.454490 0.849489 0.265871
C29   C     C_R   0.532780 0.546506 0.031616 -0.171799
C30   C     C_R   0.441510 0.476805 0.970761 -0.163119
N3    N     N_R   0.908952 0.332090 0.600055 0.159782
O9    O     O_R   0.988474 0.271834 0.638350 -0.330412
O10   O     O_R   0.788797 0.309022 0.604549 -0.326325
N4    N     N_R   0.093383 0.670673 0.403053 0.157356
O11   O     O_R   0.016126 0.738015 0.376478 -0.339432
O12   O     O_R   0.213370 0.688818 0.391697 -0.316411
N5    N     N_R   0.349425 0.811173 0.699046 0.150198
O13   O     O_R   0.347515 0.853839 0.804572 -0.261458
O14   O     O_R   0.274354 0.728943 0.663712 -0.335966
N6    N     N_R   0.649109 0.188140 0.301911 0.144047
O15   O     O_R   0.651391 0.145819 0.196310 -0.275372
O16   O     O_R   0.725061 0.269643 0.338027 -0.342387
C31   C     C_3   0.405580 0.343797 0.796470 -0.347732
C32   C     C_3   0.279457 0.333784 0.727784 -0.587721
H9    H     H_    0.224935 0.402764 0.750485 0.271922
H10   H     H_    0.291883 0.323683 0.635305 0.210660
H11   H     H_    0.222328 0.263526 0.745281 0.269710
H12   H     H_    0.482655 0.306396 0.751729 0.220512
H13   H     H_    0.396257 0.291953 0.862869 0.200315
C33   C     C_3   0.696891 0.560355 0.189788 -0.322562
C34   C     C_3   0.724495 0.665839 0.264709 -0.622445
H14   H     H_    0.654385 0.720459 0.245275 0.258322
H15   H     H_    0.724643 0.660746 0.356452 0.223512
H16   H     H_    0.818629 0.699857 0.246889 0.286921
H17   H     H_    0.731952 0.493331 0.225163 0.224142
H18   H     H_    0.757870 0.559773 0.116072 0.204207
N7    N     N_R   0.671500 0.670472 0.793122 0.160981
O17   O     O_R   0.786525 0.648655 0.772286 -0.328344
O18   O     O_R   0.642424 0.766825 0.796850 -0.269879
N8    N     N_R   0.283754 0.368943 0.210243 0.158640
O19   O     O_R   0.167956 0.395380 0.212967 -0.314122
O20   O     O_R   0.307217 0.275448 0.228926 -0.306523
N9    N     N_R   0.233978 0.381402 0.981095 0.141237
O21   O     O_R   0.197576 0.284233 0.985149 -0.262119
O22   O     O_R   0.153143 0.443527 0.948340 -0.299996
N10   N     N_R   0.664248 0.711223 0.028300 0.134341
O23   O     O_R   0.784393 0.730761 0.018015 -0.260886
O24   O     O_R   0.596706 0.787089 0.067575 -0.286626

loop_
_geom_bond_atom_site_label_1
_geom_bond_atom_site_label_2
_geom_bond_distance
_ccdc_geom_bond_type
C24   C29   1.422931 A    
C6    C9    1.542560 S    
C20   H5    1.074677 S    
C23   N9    1.434865 S    
C21   C22   1.406389 A    
C7    N3    1.458537 S    
Cu1   N1    2.056386 S    
C27   C29   1.439338 A    
N7    O17   1.299879 A    
O5    C3    1.304231 A    
C15   C22   1.397681 A    
C16   C21   1.398404 A    
O1    C1    1.314348 A    
C12   H4    1.110047 S    
N10   O24   1.301072 A    
N5    O14   1.300830 A    
N6    O16   1.300905 A    
O4    Cu1   1.959489 S    
C31   H12   1.097809 S    
C5    C10   1.542122 S    
C2    C13   1.456999 S    
N1    C26   1.369221 A    
C33   C34   1.530361 S    
C6    H2    1.105936 S    
Cu2   N2    2.056387 S    
C5    C11   1.557230 S    
C6    C12   1.557744 S    
Cu1   Cu2   2.736901 S    
O2    C2    1.314748 A    
C18   N5    1.436675 S    
C24   N10   1.432617 S    
C24   C26   1.411523 A    
N7    O18   1.301458 A    
C13   C20   1.394950 A    
N4    O12   1.299423 A    
C7    C12   1.534596 S    
N3    O9    1.299712 A    
C32   H11   1.110486 S    
C31   H13   1.108959 S    
N8    O20   1.300121 A    
C34   H15   1.102586 S    
N10   O23   1.301474 A    
C28   C31   1.520557 S    
C4    C9    1.457112 S    
C7    C9    1.527844 S    
C8    C11   1.535252 S    
N6    O15   1.301446 A    
N3    O10   1.299555 A    
N2    C25   1.373276 A    
C32   H10   1.104009 S    
C17   N6    1.436875 S    
C5    H1    1.108875 S    
O7    Cu2   1.955095 S    
C27   C33   1.517357 S    
C34   H16   1.108431 S    
C1    C14   1.457025 S    
O7    C3    1.302845 A    
N9    O21   1.301648 A    
O6    C4    1.307253 A    
C15   H7    1.084605 S    
C16   H8    1.084529 S    
C23   C25   1.413653 A    
O3    Cu2   1.959490 S    
O8    C4    1.301662 A    
O4    C2    1.305244 A    
N9    O22   1.300839 A    
C14   C19   1.397553 A    
C9    C11   1.543812 S    
C33   H18   1.110354 S    
C10   C12   1.540491 S    
O1    Cu1   1.970176 S    
C5    C7    1.536574 S    
N4    O11   1.299282 A    
O6    Cu2   1.967833 S    
C13   C18   1.416994 A    
C8    C10   1.525041 S    
C14   C17   1.417018 A    
N8    O19   1.301196 A    
O3    C1    1.305754 A    
O8    Cu1   1.955096 S    
C26   N7    1.429215 S    
C23   C30   1.419819 A    
C3    C10   1.453110 S    
C19   H6    1.077317 S    
C32   H9    1.105399 S    
C34   H14   1.101166 S    
C15   C17   1.396280 A    
C16   C18   1.397177 A    
N5    O13   1.301603 A    
C28   C30   1.438130 A    
C19   C21   1.385900 A    
N1    C28   1.398891 A    
C25   N8    1.429183 S    
C20   C22   1.385065 A    
N2    C27   1.400198 A    
C11   H3    1.109456 S    
O2    Cu2   1.970176 S    
C8    N4    1.459145 S    
C31   C32   1.533783 S    
O5    Cu1   1.967832 S    
C6    C8    1.535827 S    
C29   C30   1.391733 A    
C33   H17   1.096614 S    
