data_mof_unit_33122.cif
_audit_creation_date              2012-12-10T17:16:14-0500
_audit_creation_method            fapswitch 2.2
_symmetry_space_group_name_H-M    P1
_symmetry_Int_Tables_number       1
_space_group_crystal_system       triclinic
_cell_length_a                    19.346978
_cell_length_b                    13.009913
_cell_length_c                    11.829424
_cell_angle_alpha                 100.3109
_cell_angle_beta                  94.247637
_cell_angle_gamma                 92.812872
_cell_volume                      2915.46446153

loop_
_atom_site_label
_atom_site_type_symbol
_atom_type_description
_atom_site_fract_x
_atom_site_fract_y
_atom_site_fract_z
_atom_type_partial_charge
C1    C     C_R   0.496995 0.299063 0.478522 0.817769
C2    C     C_R   0.498012 0.700698 0.522141 0.804191
C3    C     C_R   0.492591 0.814525 0.537444 -0.102745
C4    C     C_R   0.489089 0.185107 0.467933 -0.115488
C5    C     C_R   0.447123 0.014322 0.358148 0.276804
C6    C     C_R   0.514470 0.987858 0.657041 0.282890
C7    C     C_R   0.457224 0.122583 0.367833 -0.209873
C8    C     C_R   0.512077 0.878526 0.644188 -0.230118
C9    C     C_R   0.508145 0.139900 0.563056 -0.266912
C10   C     C_R   0.466264 0.859070 0.445913 -0.271647
C11   C     C_R   0.497052 0.032229 0.558633 0.057454
C12   C     C_R   0.469003 0.967796 0.453529 0.052870
C13   C     C_R   0.445568 0.383322 0.017656 0.122323
C14   C     C_R   0.579214 0.578212 0.977332 0.132979
C15   C     C_R   0.450099 0.396065 0.140590 0.345519
C16   C     C_R   0.569723 0.573778 0.855614 0.358095
C17   C     C_R   0.526738 0.546754 0.157831 0.365658
C18   C     C_R   0.468473 0.460549 0.842864 0.383617
C19   C     C_R   0.527587 0.531070 0.034014 -0.181573
C20   C     C_R   0.478438 0.459618 0.964777 -0.146457
C21   C     C_R   0.367683 0.505025 0.499871 0.782659
C22   C     C_R   0.632487 0.500410 0.500208 0.800221
C23   C     C_R   0.260324 0.557019 0.596583 -0.201044
C24   C     C_R   0.740661 0.509952 0.399462 -0.193230
C25   C     C_R   0.188572 0.563329 0.593275 -0.203046
C26   C     C_R   0.812685 0.513818 0.399973 -0.216542
C27   C     C_R   0.146769 0.533948 0.488859 -0.009404
C28   C     C_R   0.854317 0.511207 0.501577 0.035104
C29   C     C_R   0.178981 0.504231 0.385099 0.286639
C30   C     C_R   0.822618 0.501668 0.603344 0.271941
C31   C     C_R   0.251331 0.496555 0.391266 -0.221487
C32   C     C_R   0.750038 0.497285 0.601651 -0.246711
C33   C     C_R   0.291966 0.517537 0.496933 -0.078242
C34   C     C_R   0.708673 0.502416 0.500498 -0.062239
C35   C     C_R   0.930226 0.518378 0.498763 0.411026
C36   C     C_R   0.070157 0.531178 0.491079 0.396945
Cu1   Cu    Cu3+1 0.505120 0.507730 0.615930 0.966355
Cu2   Cu    Cu3+1 0.494880 0.492270 0.384070 0.965266
H1    H     H_    0.165804 0.590261 0.673362 0.166428
H2    H     H_    0.836019 0.520915 0.321019 0.160016
H3    H     H_    0.276568 0.477127 0.313210 0.160112
H4    H     H_    0.726173 0.487444 0.679082 0.146379
H5    H     H_    0.445009 0.807334 0.368926 0.159731
H6    H     H_    0.532723 0.189461 0.640311 0.175745
N1    N     N_R   0.028185 0.477120 0.400761 -0.209459
N2    N     N_R   0.971881 0.572012 0.589703 -0.193546
N3    N     N_R   0.959626 0.471431 0.404058 -0.247934
N4    N     N_R   0.040531 0.578162 0.585962 -0.244862
N5    N     N_R   0.512830 0.519350 0.790130 -0.230242
N6    N     N_R   0.487170 0.480650 0.209870 -0.219855
O1    O     O_R   0.503640 0.354460 0.582000 -0.585400
O2    O     O_R   0.496360 0.645540 0.418000 -0.546107
O3    O     O_R   0.494980 0.341410 0.386200 -0.554269
O4    O     O_R   0.505020 0.658590 0.613800 -0.579210
O5    O     O_R   0.404470 0.506520 0.597930 -0.545271
O6    O     O_R   0.595530 0.493480 0.402070 -0.586140
O7    O     O_R   0.395820 0.493460 0.402130 -0.577883
O8    O     O_R   0.604180 0.506540 0.597870 -0.554320
H7    H     H_    0.290988 0.585114 0.676720 0.154109
H8    H     H_    0.710131 0.513773 0.319960 0.146422
N7    N     N_2   0.427977 0.282072 0.948972 -0.442738
H9    H     H_    0.466202 0.229899 0.951715 0.239027
C37   C     C_3   0.357688 0.235729 0.939914 -0.694797
H10   H     H_    0.339486 0.210126 0.847539 0.233062
H11   H     H_    0.321196 0.291464 0.980001 0.232709
H12   H     H_    0.356641 0.165449 0.981106 0.220918
N8    N     N_2   0.647628 0.601402 0.033958 -0.436853
H13   H     H_    0.664600 0.553463 0.089505 0.241828
C38   C     C_3   0.678643 0.707461 0.056496 -0.694305
H14   H     H_    0.690752 0.734360 0.150655 0.221518
H15   H     H_    0.643892 0.762969 0.024481 0.230781
H16   H     H_    0.727972 0.709060 0.014450 0.231170
N9    N     N_2   0.138659 0.487347 0.276190 -0.408991
H17   H     H_    0.110514 0.549674 0.261507 0.258186
C39   C     C_3   0.165578 0.428841 0.174682 -0.698753
H18   H     H_    0.123006 0.408514 0.104733 0.239168
H19   H     H_    0.186005 0.354792 0.193471 0.235495
H20   H     H_    0.206872 0.476880 0.144151 0.208125
N10   N     N_2   0.863002 0.494468 0.706912 -0.421459
H21   H     H_    0.840486 0.525502 0.780844 0.246526
C40   C     C_3   0.886494 0.391211 0.710900 -0.659222
H22   H     H_    0.920180 0.393679 0.791645 0.230828
H23   H     H_    0.917229 0.364101 0.636796 0.239190
H24   H     H_    0.841312 0.334632 0.709328 0.216348
H25   H     H_    0.524797 0.842557 0.717117 0.163888
H26   H     H_    0.437595 0.158105 0.298034 0.173704
N11   N     N_2   0.412037 0.955789 0.254238 -0.434965
H27   H     H_    0.385662 0.886020 0.257870 0.244078
C41   C     C_3   0.446351 0.957447 0.149780 -0.729101
H28   H     H_    0.416903 0.904058 0.076351 0.225865
H29   H     H_    0.499927 0.931646 0.159673 0.229555
H30   H     H_    0.448521 0.037363 0.129060 0.228174
N12   N     N_2   0.532939 0.054254 0.766847 -0.433229
H31   H     H_    0.500045 0.113490 0.787455 0.246085
C42   C     C_3   0.558494 0.010328 0.864922 -0.735496
H32   H     H_    0.575079 0.074724 0.938472 0.228822
H33   H     H_    0.604328 0.964650 0.843775 0.239990
H34   H     H_    0.516795 0.960326 0.891718 0.221973
N13   N     N_2   0.409014 0.407956 0.776187 -0.355576
H35   H     H_    0.409772 0.327820 0.754524 0.263924
C43   C     C_3   0.343544 0.447823 0.809674 -0.657463
H36   H     H_    0.301353 0.413852 0.742826 0.225596
H37   H     H_    0.346699 0.534435 0.821097 0.212138
H38   H     H_    0.330760 0.428213 0.892914 0.219932
N14   N     N_2   0.561366 0.636846 0.228322 -0.361158
H39   H     H_    0.614117 0.634819 0.245459 0.241041
C44   C     C_3   0.536712 0.735546 0.207516 -0.658021
H40   H     H_    0.559318 0.799779 0.277027 0.228498
H41   H     H_    0.479205 0.732708 0.203922 0.222967
H42   H     H_    0.551212 0.752477 0.124030 0.217081
N15   N     N_2   0.624866 0.613767 0.799645 -0.363458
H43   H     H_    0.672852 0.588718 0.821956 0.245060
C45   C     C_3   0.626690 0.723943 0.793777 -0.647722
H44   H     H_    0.676859 0.763654 0.834420 0.196517
H45   H     H_    0.583972 0.763034 0.838622 0.197867
H46   H     H_    0.623518 0.733143 0.702272 0.239193
N16   N     N_2   0.423869 0.312751 0.190955 -0.371914
H47   H     H_    0.439929 0.241037 0.153953 0.226734
C46   C     C_3   0.350921 0.310350 0.210969 -0.651549
H48   H     H_    0.324451 0.234079 0.168626 0.199555
H49   H     H_    0.324443 0.373549 0.176850 0.201388
H50   H     H_    0.345419 0.317140 0.304492 0.238254

loop_
_geom_bond_atom_site_label_1
_geom_bond_atom_site_label_2
_ccdc_geom_bond_type
N11   H27   S    
C37   H11   S    
N12   H31   S    
C27   C29   A    
C44   H41   S    
N9    H17   S    
C42   H32   S    
C35   N3    A    
C40   H22   S    
C42   H34   S    
C21   O5    A    
C23   H7    S    
N14   C44   S    
C43   H36   S    
C24   C26   A    
N16   C46   S    
Cu1   O1    S    
C7    H26   S    
C29   N9    S    
Cu1   N5    S    
C38   H15   S    
C8    H25   S    
C15   N6    A    
C39   H19   S    
C1    O3    A    
C19   C20   A    
C28   C35   S    
C23   C33   A    
C14   N8    S    
C31   C33   A    
C21   C33   S    
C41   H29   S    
Cu1   O8    S    
C13   C20   A    
C45   H46   S    
C46   H49   S    
C37   H12   S    
C43   H37   S    
N9    C39   S    
C38   H14   S    
C4    C7    A    
C10   C12   A    
C40   H23   S    
N1    N3    A    
C22   C34   S    
N2    N4    A    
N8    H13   S    
C16   N5    A    
C5    C12   A    
C3    C8    A    
C2    O4    A    
C6    C11   A    
N10   C40   S    
C22   O6    A    
C24   C34   A    
C15   N16   S    
N8    C38   S    
C5    N11   S    
C38   H16   S    
C39   H18   S    
C21   O7    A    
Cu1   Cu2   S    
C17   N14   S    
Cu2   O7    S    
C9    C11   A    
N13   H35   S    
C24   H8    S    
C6    N12   S    
N7    C37   S    
Cu2   O6    S    
C36   N1    A    
N15   C45   S    
C41   H30   S    
C1    O1    A    
C2    O2    A    
Cu1   O4    S    
N13   C43   S    
C43   H38   S    
C13   C15   A    
C44   H42   S    
C14   C16   A    
N10   H21   S    
C18   N13   S    
C30   N10   S    
C44   H40   S    
C40   H24   S    
C5    C7    A    
C45   H44   S    
C46   H50   S    
C9    H6    S    
C31   H3    S    
N15   H43   S    
C10   H5    S    
C14   C19   A    
C17   N6    A    
C22   O8    A    
C6    C8    A    
C11   C12   A    
C42   H33   S    
Cu2   N6    S    
C27   C36   S    
C25   C27   A    
N14   H39   S    
C26   C28   A    
C1    C4    S    
C28   C30   A    
C2    C3    S    
C41   H28   S    
C29   C31   A    
C3    C10   A    
N16   H47   S    
C25   H1    S    
C30   C32   A    
C26   H2    S    
Cu2   O3    S    
Cu2   O2    S    
C17   C19   A    
C36   N4    A    
C18   C20   A    
C23   C25   A    
N7    H9    S    
C39   H20   S    
C37   H10   S    
Cu1   O5    S    
C13   N7    S    
C18   N5    A    
N12   C42   S    
C46   H48   S    
N11   C41   S    
C32   H4    S    
C4    C9    A    
C35   N2    A    
C16   N15   S    
C32   C34   A    
C45   H45   S    
