data_mof_unit_52394.cif
_audit_creation_date              2013-03-05T15:59:15-0500
_audit_creation_method            fapswitch 2.2
_symmetry_space_group_name_H-M    P1
_symmetry_Int_Tables_number       1
_space_group_crystal_system       triclinic
_cell_length_a                    7.001286
_cell_length_b                    21.33277
_cell_length_c                    23.627146
_cell_angle_alpha                 90.006365
_cell_angle_beta                  89.529135
_cell_angle_gamma                 90.573732
_cell_volume                      3528.57940469

loop_
_atom_site_label
_atom_site_type_symbol
_atom_site_description
_atom_site_fract_x
_atom_site_fract_y
_atom_site_fract_z
_atom_type_partial_charge
O1    O     O_R   0.494270 0.443530 0.442350 -0.589087
O2    O     O_R   0.824060 0.436290 0.557250 -0.591125
O3    O     O_R   0.994370 0.556470 0.557650 -0.589448
C1    C     C_R   0.653623 0.421150 0.576403 0.978879
O4    O     O_R   0.823990 0.436120 0.442760 -0.572371
O5    O     O_R   0.994300 0.556300 0.442340 -0.587790
C2    C     C_R   0.655288 0.421115 0.423390 0.959600
O6    O     O_R   0.494350 0.443700 0.557660 -0.586671
O7    O     O_3   0.660800 0.539430 0.500000 -0.275487
V1    V     V_3+5 0.935650 0.492690 0.500000 1.206693
O8    O     O_R   0.324020 0.563710 0.442750 -0.591314
C3    C     C_R   0.156249 0.578777 0.423332 0.983958
O9    O     O_R   0.324090 0.563880 0.557240 -0.582464
C4    C     C_R   0.155592 0.578952 0.576479 0.978778
V2    V     V_3+5 0.435660 0.507310 0.500000 1.203590
O10   O     O_3   0.160640 0.460570 0.500000 -0.271268
C5    C     C_3   0.016727 0.722905 0.791690 0.412575
C6    C     C_3   0.207281 0.698128 0.767555 -0.349842
H1    H     H_    0.285648 0.656575 0.782961 0.225807
C7    C     C_1   0.147343 0.624648 0.621792 -0.263112
C8    C     C_1   0.072362 0.874550 0.877559 -0.219959
C9    C     C_3   0.934253 0.731945 0.731530 -0.221863
C10   C     C_3   0.127803 0.708410 0.706949 -0.075853
C11   C     C_3   0.017039 0.800276 0.731615 -0.032517
C12   C     C_3   0.093133 0.790815 0.792395 -0.146783
C13   C     C_3   0.207172 0.776058 0.707259 0.271976
C14   C     C_3   0.281348 0.766818 0.767277 0.238840
C15   C     C_1   0.139980 0.662552 0.660041 0.192843
C16   C     C_1   0.080193 0.836616 0.839386 0.239118
H2    H     H_    0.789607 0.717306 0.717475 0.183761
C17   C     C_3   0.194378 0.817993 0.256189 -0.503738
C18   C     C_3   0.886816 0.766523 0.227080 0.275365
C19   C     C_3   0.907464 0.718372 0.277023 -0.505859
H3    H     H_    0.148552 0.790067 0.344637 0.171855
H4    H     H_    0.114434 0.859632 0.271468 0.176025
H5    H     H_    0.815320 0.808596 0.245054 0.048218
H6    H     H_    0.834023 0.737296 0.315248 0.145559
H7    H     H_    0.837487 0.672545 0.268266 0.221494
C20   C     C_1   0.148164 0.624156 0.377495 -0.255201
C21   C     C_3   0.089428 0.787687 0.204950 0.158413
C22   C     C_3   0.215387 0.770519 0.305643 -0.382800
C23   C     C_3   0.120557 0.706776 0.290806 0.306793
C24   C     C_3   0.218732 0.680873 0.236688 -0.398710
C25   C     C_3   0.210171 0.729196 0.186791 -0.027747
C26   C     C_1   0.137473 0.661523 0.338732 -0.025504
C27   C     C_1   0.078476 0.835523 0.158705 0.013378
C28   C     C_1   0.070628 0.874211 0.120942 -0.218912
H8    H     H_    0.357822 0.747070 0.179132 0.210175
H9    H     H_    0.370619 0.670171 0.245821 0.192083
H10   H     H_    0.338670 0.835113 0.242901 0.192867
H11   H     H_    0.369616 0.763653 0.314614 0.170172
H12   H     H_    0.148928 0.635639 0.225018 0.189528
C29   C     C_3   0.391602 0.277560 0.724979 -0.440547
C30   C     C_3   0.704428 0.233137 0.694024 -0.591705
C31   C     C_3   0.706668 0.187716 0.745527 0.195963
H13   H     H_    0.320844 0.183671 0.755817 0.196325
H14   H     H_    0.320250 0.257990 0.686844 0.169498
H15   H     H_    0.854119 0.242991 0.680077 0.163827
H16   H     H_    0.631543 0.211383 0.657144 0.237509
H17   H     H_    0.856634 0.185394 0.760097 0.072026
C32   C     C_1   0.579370 0.124776 0.878456 -0.263917
C33   C     C_3   0.603230 0.294998 0.709923 0.143982
C34   C     C_3   0.377888 0.227789 0.774216 -0.014916
C35   C     C_3   0.583950 0.213616 0.796492 -0.020740
C36   C     C_3   0.678569 0.277492 0.815757 0.055330
C37   C     C_3   0.705790 0.322714 0.763200 0.120078
C38   C     C_1   0.585631 0.164753 0.841788 0.054762
C39   C     C_1   0.619462 0.339120 0.661036 0.087237
C40   C     C_1   0.637282 0.375966 0.622085 -0.258035
H18   H     H_    0.861204 0.322563 0.752242 0.041300
H19   H     H_    0.311789 0.320641 0.735879 0.217114
H20   H     H_    0.823597 0.266975 0.828998 0.063620
C41   C     C_3   0.527163 0.321459 0.239330 0.019295
C42   C     C_3   0.832584 0.268189 0.271539 0.270082
C43   C     C_3   0.809604 0.214171 0.226955 -0.495240
H21   H     H_    0.906765 0.307208 0.249130 0.152835
H22   H     H_    0.909370 0.222228 0.190828 0.196735
H23   H     H_    0.849636 0.167887 0.244486 0.212088
C44   C     C_1   0.573840 0.124185 0.121143 -0.257135
C45   C     C_3   0.630097 0.291235 0.291733 -0.063589
C46   C     C_3   0.523803 0.274274 0.188043 0.113063
C47   C     C_3   0.599729 0.208764 0.206448 0.107375
C48   C     C_3   0.478316 0.186841 0.258203 -0.490427
C49   C     C_3   0.503675 0.232783 0.309591 -0.069367
C50   C     C_1   0.584254 0.162246 0.159375 0.054529
C51   C     C_1   0.639107 0.337754 0.339264 0.148179
C52   C     C_1   0.646171 0.375576 0.377764 -0.198261
H24   H     H_    0.360461 0.251310 0.320669 0.211458
H25   H     H_    0.324866 0.184575 0.246348 0.191653
H26   H     H_    0.375691 0.328714 0.252553 0.098719
H27   H     H_    0.370947 0.267524 0.176281 0.090535
H28   H     H_    0.518521 0.138155 0.269701 0.189273
O11   O     O_R   0.724990 0.055630 0.941600 -0.588262
O12   O     O_R   0.395220 0.063160 0.056480 -0.592875
O13   O     O_R   0.225040 0.942970 0.056870 -0.591029
C53   C     C_R   0.563966 0.078311 0.075770 0.971678
O14   O     O_R   0.395270 0.063000 0.941990 -0.597840
O15   O     O_R   0.225080 0.942800 0.941570 -0.578660
C54   C     C_R   0.565507 0.078006 0.922759 1.004298
O16   O     O_R   0.724940 0.055790 0.056910 -0.592794
O17   O     O_3   0.558580 0.959880 0.999250 -0.260229
V3    V     V_3+5 0.283680 0.006590 0.999220 1.195761
O18   O     O_R   0.895380 0.935350 0.941950 -0.574634
C55   C     C_R   0.063916 0.920294 0.922763 0.975808
O19   O     O_R   0.895330 0.935520 0.056440 -0.577939
C56   C     C_R   0.063071 0.920416 0.075811 0.962461
V4    V     V_3+5 0.783690 0.991900 0.999180 1.219864
O20   O     O_3   0.058660 0.038680 0.999200 -0.282026
C57   C     C_3   0.145626 0.697500 0.130844 -0.392842
C58   C     C_3   0.304288 0.657265 0.104739 -0.301163
C59   C     C_3   0.236725 0.624868 0.050793 -0.678823
H29   H     H_    0.113338 0.593320 0.060218 0.269265
H30   H     H_    0.194068 0.660189 0.018865 0.263492
H31   H     H_    0.354514 0.596446 0.032783 0.270255
H32   H     H_    0.429920 0.687422 0.094141 0.264761
H33   H     H_    0.349472 0.620936 0.135419 0.249914
H34   H     H_    0.018616 0.667214 0.138557 0.258929
H35   H     H_    0.105856 0.733471 0.099220 0.218759
N1    N     N_R   0.917442 0.691200 0.838097 0.279783
O21   O     O_R   0.855205 0.634070 0.831399 -0.303934
O22   O     O_R   0.900819 0.718099 0.887264 -0.346618
N2    N     N_R   0.651759 0.123586 0.728708 0.258726
O23   O     O_R   0.765831 0.077377 0.739487 -0.383853
O24   O     O_R   0.498839 0.112540 0.699233 -0.399819
N3    N     N_R   0.661700 0.388738 0.774932 0.284205
O25   O     O_R   0.506514 0.414732 0.756651 -0.354354
O26   O     O_R   0.783418 0.422711 0.803176 -0.287365
N4    N     N_R   0.587576 0.304549 0.866796 0.267544
O27   O     O_R   0.488858 0.355839 0.865708 -0.284509
O28   O     O_R   0.626803 0.280788 0.916018 -0.380675
C60   C     C_3   0.221911 0.247225 0.818236 -0.384337
C61   C     C_3   0.207424 0.207496 0.872808 -0.313991
C62   C     C_3   0.038814 0.223484 0.910989 -0.693444
H36   H     H_    0.019102 0.275002 0.913582 0.297576
H37   H     H_    0.908510 0.199770 0.895579 0.241320
H38   H     H_    0.064575 0.205479 0.954361 0.248769
H39   H     H_    0.198578 0.156872 0.861911 0.211391
H40   H     H_    0.333579 0.216941 0.899191 0.263977
H41   H     H_    0.232237 0.297368 0.829311 0.261960
H42   H     H_    0.087414 0.242395 0.795190 0.152257
N5    N     N_R   0.465530 0.788042 0.787908 0.243183
O29   O     O_R   0.572011 0.749273 0.815399 -0.358745
O30   O     O_R   0.502655 0.847788 0.790356 -0.399213
N6    N     N_R   0.624990 0.298346 0.137573 0.278517
O31   O     O_R   0.533290 0.304163 0.090217 -0.295659
O32   O     O_R   0.803593 0.315641 0.139504 -0.340602
N7    N     N_R   0.599718 0.383976 0.222607 0.280205
O33   O     O_R   0.499215 0.417749 0.188217 -0.299024
O34   O     O_R   0.755426 0.408116 0.243470 -0.369943
N8    N     N_R   0.956633 0.251239 0.319159 0.214896
O35   O     O_R   0.021509 0.295135 0.352294 -0.438996
O36   O     O_R   0.024279 0.194984 0.324640 -0.495399
C63   C     C_3   0.575547 0.197782 0.362896 -0.330583
C64   C     C_3   0.414989 0.160096 0.392188 -0.266317
C65   C     C_3   0.489807 0.124183 0.443136 -0.883613
H43   H     H_    0.600998 0.090447 0.429549 0.264223
H44   H     H_    0.551478 0.157178 0.474617 0.267440
H45   H     H_    0.370586 0.097693 0.463561 0.264127
H46   H     H_    0.301625 0.192484 0.406971 0.252162
H47   H     H_    0.350896 0.126105 0.361996 0.230752
H48   H     H_    0.691399 0.165152 0.350971 0.241132
H49   H     H_    0.634239 0.231586 0.394145 0.203226
N9    N     N_R   0.316359 0.806232 0.661940 0.230432
O37   O     O_R   0.364914 0.864973 0.666364 -0.396307
O38   O     O_R   0.359811 0.775512 0.616161 -0.433312
C66   C     C_3   0.922374 0.860166 0.710884 -0.310336
C67   C     C_3   0.850460 0.853248 0.650147 -0.277441
C68   C     C_3   0.783453 0.916026 0.627010 -0.660683
H50   H     H_    0.674201 0.936809 0.655495 0.299183
H51   H     H_    0.906220 0.949178 0.623083 0.246458
H52   H     H_    0.720222 0.909050 0.584502 0.239297
H53   H     H_    0.965907 0.835542 0.622069 0.225094
H54   H     H_    0.730390 0.818863 0.649336 0.250126
H55   H     H_    0.801938 0.871798 0.739417 0.249380
H56   H     H_    0.028344 0.899170 0.713322 0.225253
N10   N     N_R   0.763730 0.743337 0.181129 0.216424
O39   O     O_R   0.704447 0.782323 0.142899 -0.442368
O40   O     O_R   0.696682 0.686213 0.180595 -0.467139

loop_
_geom_bond_atom_site_label_1
_geom_bond_atom_site_label_2
_geom_bond_distance
_ccdc_geom_bond_type
O17   V4    1.711419 S    
O17   V3    2.176153 S    
C65   H44   1.110954 S    
C22   C23   1.548688 S    
C11   C66   1.527731 S    
N9    O37   1.299521 A    
C1    O6    1.299969 A    
N4    O27   1.300382 A    
C46   C47   1.563161 S    
C57   H34   1.107802 S    
C37   H18   1.116440 S    
C21   C27   1.498092 S    
C48   H28   1.113065 S    
O19   V4    1.981009 S    
C66   H56   1.111056 S    
C42   H21   1.108988 S    
C41   N7    1.475148 S    
C47   C50   1.494369 S    
C19   C23   1.551936 S    
C18   H5    1.114409 S    
N9    O38   1.300142 A    
C11   C13   1.539884 S    
C41   H26   1.115375 S    
N5    O30   1.299606 A    
O5    C3    1.303083 A    
C24   H12   1.112991 S    
C61   H40   1.102160 S    
V2    O10   2.159461 S    
C13   N9    1.456732 S    
C17   C21   1.558363 S    
C6    H1    1.110127 S    
C49   C63   1.554059 S    
C10   C13   1.541243 S    
C58   C59   1.526168 S    
C45   C51   1.499878 S    
C60   H42   1.095588 S    
N7    O33   1.301562 A    
O4    V1    1.973493 S    
C30   C31   1.555889 S    
C8    C55   1.447872 S    
O8    V2    1.981111 S    
C68   H52   1.110324 S    
C2    C52   1.452446 S    
C59   H29   1.110870 S    
C61   C62   1.521237 S    
C62   H38   1.111179 S    
V4    O20   2.159540 S    
V3    O20   1.724014 S    
O1    V2    1.968895 S    
C34   C60   1.560933 S    
C9    H2    1.110209 S    
O7    V1    2.176135 S    
O11   C54   1.300642 A    
O14   V3    1.962416 S    
O13   V3    1.961100 S    
C45   C49   1.577403 S    
C67   H54   1.110415 S    
C25   C57   1.553155 S    
C68   H51   1.110898 S    
C31   N2    1.472812 S    
C42   C45   1.575416 S    
C31   H17   1.109211 S    
C65   H45   1.110383 S    
C32   C54   1.448193 S    
H3    C22   1.112841 S    
C41   C46   1.575404 S    
C1    C40   1.450211 S    
O14   C54   1.308810 A    
C57   H35   1.110170 S    
C65   H43   1.110879 S    
C30   H16   1.112453 S    
C46   N6    1.471908 S    
C12   C16   1.481706 S    
C48   H25   1.113070 S    
C44   C53   1.453057 S    
C66   H55   1.105378 S    
C42   C43   1.569143 S    
C33   C37   1.567135 S    
C6    C10   1.556869 S    
C35   C38   1.494233 S    
C4    C7    1.449035 S    
C11   C12   1.549704 S    
N6    O32   1.301352 A    
C67   C68   1.526240 S    
O4    C2    1.307007 A    
C29   H14   1.113024 S    
C51   C52   1.216836 T    
C39   C40   1.215205 T    
C30   C33   1.548813 S    
C61   H39   1.111433 S    
O15   V3    1.968011 S    
C8    C16   1.212949 T    
C19   H6    1.113326 S    
C63   H48   1.108760 S    
C23   C26   1.494287 S    
O2    C1    1.310137 A    
C24   C25   1.568044 S    
C36   N4    1.479116 S    
C64   H47   1.111150 S    
O13   C56   1.303257 A    
C62   H36   1.110647 S    
C18   N10   1.474010 S    
C29   C33   1.562232 S    
C32   C38   1.215968 T    
C48   C49   1.570351 S    
O8    C3    1.307659 A    
C28   C56   1.453845 S    
C31   C35   1.576646 S    
C5    C6    1.544672 S    
C13   C14   1.527636 S    
H13   C34   1.108833 S    
C59   H30   1.111011 S    
C10   C15   1.480720 S    
O12   C53   1.307344 A    
C43   H22   1.110794 S    
C64   C65   1.526101 S    
N1    O22   1.300475 A    
N10   O39   1.301181 A    
C47   C48   1.552971 S    
O6    V2    1.971542 S    
O9    V2    1.974008 S    
C66   C67   1.531328 S    
N8    O36   1.301405 A    
C23   C24   1.551055 S    
C17   H10   1.113529 S    
N2    O24   1.301510 A    
C60   C61   1.545140 S    
C29   H19   1.109538 S    
C58   H33   1.111292 S    
C44   C50   1.216659 T    
C62   H37   1.103154 S    
C30   H15   1.114033 S    
C27   C28   1.217418 T    
C68   H50   1.110339 S    
O16   V4    1.972026 S    
C17   C22   1.555201 S    
N7    O34   1.301601 A    
O1    C2    1.304854 A    
C24   H9    1.112726 S    
C6    C14   1.549493 S    
C49   H24   1.110712 S    
N6    O31   1.301124 A    
N4    O28   1.301158 A    
O5    V1    1.961131 S    
N1    O21   1.300284 A    
C43   C47   1.554176 S    
N2    O23   1.301389 A    
C67   H53   1.110562 S    
O3    C4    1.303609 A    
C12   C14   1.533399 S    
C36   H20   1.090417 S    
C7    C15   1.213707 T    
O19   C56   1.307268 A    
C5    C9    1.551391 S    
N8    O35   1.301260 A    
C37   N3    1.470755 S    
C20   C26   1.217510 T    
C63   H49   1.110378 S    
C5    C12   1.539417 S    
C18   C19   1.573054 S    
C3    C20   1.454497 S    
O7    V2    1.712458 S    
C64   H46   1.111617 S    
O3    V1    1.968038 S    
V1    O10   1.724078 S    
C57   C58   1.535831 S    
C35   C36   1.577860 S    
C29   C34   1.576800 S    
N3    O25   1.301684 A    
O15   C55   1.303266 A    
C53   O16   1.304652 A    
C17   H4    1.113193 S    
N10   O40   1.301610 A    
C14   N5    1.450533 S    
C41   C45   1.578673 S    
C59   H31   1.110389 S    
C9    C11   1.563287 S    
C33   C39   1.492963 S    
C18   C21   1.569884 S    
C43   H23   1.110220 S    
N5    O29   1.296945 A    
C60   H41   1.103010 S    
C5    N1    1.456390 S    
C34   C35   1.571964 S    
C46   H27   1.115823 S    
C21   C25   1.571832 S    
O12   V3    1.973486 S    
C36   C37   1.581680 S    
O18   C55   1.303755 A    
N3    O26   1.301399 A    
C9    C10   1.557658 S    
C42   N8    1.474251 S    
C19   H7    1.109326 S    
O18   V4    1.973918 S    
C63   C64   1.535632 S    
O9    C4    1.304017 A    
C58   H32   1.111446 S    
C22   H11   1.113235 S    
O11   V4    1.972018 S    
C25   H8    1.111684 S    
O2    V1    1.962611 S    
