data_mof_unit_59029.cif
_audit_creation_date              2012-12-11T15:07:39-0500
_audit_creation_method            fapswitch 2.2
_symmetry_space_group_name_H-M    P1
_symmetry_Int_Tables_number       1
_space_group_crystal_system       triclinic
_cell_length_a                    21.623988
_cell_length_b                    7.206445
_cell_length_c                    18.644942
_cell_angle_alpha                 89.800509
_cell_angle_beta                  96.094286
_cell_angle_gamma                 89.73073
_cell_volume                      2889.00482686

loop_
_atom_site_label
_atom_site_type_symbol
_atom_type_description
_atom_site_fract_x
_atom_site_fract_y
_atom_site_fract_z
_atom_type_partial_charge
O1    O     O_R   0.449650 0.506500 0.414480 -0.521174
O2    O     O_R   0.550350 0.006500 0.585520 -0.503965
O3    O     O_R   0.432010 0.173150 0.560250 -0.507810
O4    O     O_R   0.567990 0.673150 0.439750 -0.510149
C1    C     C_R   0.416365 0.344330 0.581212 0.824108
C2    C     C_R   0.583945 0.844218 0.419122 0.794595
O5    O     O_R   0.442320 0.176650 0.413480 -0.544348
O6    O     O_R   0.557680 0.676650 0.586520 -0.550488
O7    O     O_R   0.560730 0.008380 0.437700 -0.526002
O8    O     O_R   0.439270 0.508380 0.562300 -0.533150
C3    C     C_R   0.427954 0.345415 0.387916 0.861986
C4    C     C_R   0.572390 0.843990 0.611946 0.844609
O9    O     O_3   0.538840 0.339860 0.508120 -0.371996
O10   O     O_3   0.461160 0.839860 0.491880 -0.383815
V1    V     V_3+5 0.492800 0.064220 0.498490 1.693229
V2    V     V_3+5 0.507200 0.564220 0.501510 1.677785
C5    C     C_R   0.870295 0.051478 0.692158 0.750188
C6    C     C_R   0.129272 0.543610 0.307829 0.746982
C7    C     C_R   0.888941 0.949535 0.816997 -0.210179
C8    C     C_R   0.111566 0.449182 0.182427 -0.211242
C9    C     C_R   0.595686 0.745766 0.738661 0.207966
C10   C     C_R   0.410772 0.307133 0.255554 0.200147
C11   C     C_R   0.638411 0.675537 0.792973 -0.113225
C12   C     C_R   0.376028 0.334590 0.189299 -0.095884
C13   C     C_R   0.701890 0.704504 0.792085 0.275886
C14   C     C_R   0.314324 0.394020 0.184848 0.276744
C15   C     C_R   0.723565 0.830999 0.741893 -0.001422
C16   C     C_R   0.283406 0.407014 0.248349 -0.014230
C17   C     C_R   0.680741 0.886647 0.681228 -0.205521
C18   C     C_R   0.321147 0.401833 0.316625 -0.207453
C19   C     C_R   0.786583 0.896226 0.747713 -0.029854
C20   C     C_R   0.217357 0.433976 0.246794 -0.043182
C21   C     C_R   0.808291 0.988757 0.687939 -0.301065
C22   C     C_R   0.192557 0.492932 0.310494 -0.312399
C23   C     C_R   0.767199 0.023687 0.625764 0.679616
C24   C     C_R   0.231134 0.499420 0.375919 0.682827
C25   C     C_R   0.704481 0.978775 0.623166 0.484673
C26   C     C_R   0.293426 0.447599 0.379516 0.488021
C27   C     C_R   0.827272 0.885685 0.812875 -0.111263
C28   C     C_R   0.174574 0.396814 0.185172 -0.136973
C29   C     C_R   0.910057 0.033081 0.755972 0.186905
C30   C     C_R   0.089937 0.529995 0.243623 0.179950
C31   C     C_R   0.616162 0.839822 0.679279 -0.109927
C32   C     C_R   0.385639 0.352699 0.319672 -0.125666
H1    H     H_    0.810361 0.842179 0.862580 0.196042
H2    H     H_    0.189303 0.326798 0.138860 0.197644
H3    H     H_    0.622327 0.583753 0.833131 0.204353
H4    H     H_    0.398397 0.318197 0.140398 0.207841
C33   C     C_R   0.638632 0.718900 0.316317 0.697880
C34   C     C_R   0.362626 0.218433 0.684632 0.689215
C35   C     C_R   0.633720 0.853992 0.369786 -0.218513
C36   C     C_R   0.367095 0.354502 0.631141 -0.208042
C37   C     C_R   0.675288 0.002908 0.374955 -0.080563
C38   C     C_R   0.325682 0.504910 0.626598 -0.059649
C39   C     C_R   0.721691 0.018857 0.328056 -0.033156
C40   C     C_R   0.279647 0.520987 0.673933 -0.033431
C41   C     C_R   0.726219 0.885817 0.273446 -0.085586
C42   C     C_R   0.275249 0.386320 0.728327 -0.086106
C43   C     C_R   0.684454 0.733498 0.267287 -0.108886
C44   C     C_R   0.317132 0.232990 0.734097 -0.107557
C45   C     C_R   0.762281 0.170089 0.333847 0.655563
C46   C     C_R   0.239224 0.673747 0.668651 0.654965
C47   C     C_R   0.808825 0.189145 0.287623 0.245853
C48   C     C_R   0.192769 0.692536 0.714947 0.247415
C49   C     C_R   0.816808 0.051595 0.234740 -0.050427
C50   C     C_R   0.184648 0.553037 0.767315 -0.048892
C51   C     C_R   0.772424 0.906005 0.224999 -0.077148
C52   C     C_R   0.228982 0.405770 0.776798 -0.075673
C53   C     C_R   0.774067 0.780465 0.166924 -0.068212
C54   C     C_R   0.227023 0.277354 0.834312 -0.067503
C55   C     C_R   0.733504 0.627022 0.162576 0.632461
C56   C     C_R   0.268189 0.123769 0.838566 0.634656
C57   C     C_R   0.690092 0.601667 0.212199 0.246156
C58   C     C_R   0.311936 0.100041 0.789168 0.246885
C59   C     C_R   0.867394 0.051470 0.191695 0.300754
C60   C     C_R   0.133858 0.552718 0.809918 0.297574
C61   C     C_R   0.865140 0.940342 0.129277 -0.201521
C62   C     C_R   0.135562 0.438592 0.871756 -0.200571
C63   C     C_R   0.816669 0.810827 0.115319 0.285551
C64   C     C_R   0.183571 0.305187 0.885362 0.302409
H5    H     H_    0.671465 0.106728 0.416191 0.246593
H6    H     H_    0.329261 0.609642 0.585393 0.236324
O11   O     O_R   0.060820 0.290050 0.937800 -0.521659
O12   O     O_R   0.939180 0.790050 0.062200 -0.520327
O13   O     O_R   0.057690 0.616620 0.086540 -0.534162
O14   O     O_R   0.942310 0.116620 0.913460 -0.532200
C65   C     C_R   0.071156 0.449151 0.112988 0.782853
C66   C     C_R   0.928897 0.949893 0.886869 0.780822
O15   O     O_R   0.068010 0.619890 0.939770 -0.523894
O16   O     O_R   0.931990 0.119890 0.060230 -0.524926
O17   O     O_R   0.949640 0.787940 0.914460 -0.520440
O18   O     O_R   0.050360 0.287940 0.085540 -0.527743
C67   C     C_R   0.084813 0.450722 0.919916 0.779358
C68   C     C_R   0.915532 0.951215 0.080597 0.773689
O19   O     O_3   0.961210 0.453080 0.991940 -0.364886
O20   O     O_3   0.038790 0.953080 0.008060 -0.371243
V3    V     V_3+5 0.007200 0.728820 0.001500 1.667224
V4    V     V_3+5 0.992800 0.228820 0.998500 1.667639
Br1   Br    Br    0.992327 0.135506 0.758891 -0.285144
Br2   Br    Br    0.006546 0.625746 0.241616 -0.291276
F1    F     F_    0.755515 0.303929 0.383725 -0.595046
F2    F     F_    0.246010 0.809155 0.619118 -0.601279
Br3   Br    Br    0.850188 0.425858 0.292323 -0.275418
Br4   Br    Br    0.151497 0.930710 0.710812 -0.279802
Br5   Br    Br    0.947273 0.154943 0.226509 -0.339509
Br6   Br    Br    0.054127 0.659919 0.774645 -0.334857
Br7   Br    Br    0.806805 0.690127 0.022240 -0.370191
Br8   Br    Br    0.190606 0.171627 0.976515 -0.368011
F3    F     F_    0.738421 0.490894 0.113377 -0.591433
F4    F     F_    0.263919 0.986220 0.887614 -0.587376
Br9   Br    Br    0.642037 0.377100 0.200971 -0.276249
Br10  Br    Br    0.361454 0.876412 0.800855 -0.264425
F5    F     F_    0.786794 0.110475 0.567496 -0.527126
F6    F     F_    0.208214 0.549441 0.438178 -0.527673
F7    F     F_    0.892169 0.137181 0.634991 -0.518089
F8    F     F_    0.105597 0.612092 0.367053 -0.517175
Br11  Br    Br    0.509724 0.683573 0.742603 -0.385448
Br12  Br    Br    0.494790 0.219924 0.255425 -0.377983
Br13  Br    Br    0.753981 0.520272 0.844003 -0.450140
Br14  Br    Br    0.283696 0.502728 0.093256 -0.413670
F9    F     F_    0.667647 0.026901 0.562519 -0.680018
F10   F     F_    0.326333 0.447030 0.445599 -0.693867
F11   F     F_    0.596296 0.580096 0.310698 -0.622517
F12   F     F_    0.404932 0.078224 0.689602 -0.624915

loop_
_geom_bond_atom_site_label_1
_geom_bond_atom_site_label_2
_ccdc_geom_bond_type
C50   C52   A    
C47   C49   A    
C15   C17   A    
O1    C3    A    
C24   F6    S    
C2    O7    A    
O19   V4    S    
O18   V4    S    
O5    C3    A    
O12   V3    S    
C60   C62   A    
C10   C12   A    
C23   C25   A    
C12   C14   A    
C4    C31   S    
C6    C30   A    
C58   Br10  S    
C8    C28   A    
O14   C66   A    
C41   C43   A    
C62   C67   S    
C42   C44   A    
C33   F11   S    
C8    C65   S    
C55   F3    S    
C61   C68   S    
C18   C26   A    
C37   H5    S    
C53   C55   A    
C46   C48   A    
C9    C31   A    
C10   C32   A    
C40   C42   A    
C16   C18   A    
C33   C35   A    
O11   V4    S    
C34   C36   A    
C29   Br1   S    
C1    C36   S    
C57   Br9   S    
C2    C35   S    
C43   C57   A    
C27   H1    S    
C37   C39   A    
O2    C4    A    
O6    V2    S    
C65   O18   A    
C17   C31   A    
C18   C32   A    
C5    C21   A    
C41   C51   A    
C13   Br13  S    
C36   C38   A    
O16   C68   A    
C38   C40   A    
O13   C65   A    
C56   F4    S    
C11   H3    S    
C15   C19   A    
C12   H4    S    
C16   C20   A    
C34   F12   S    
C47   Br3   S    
C7    C66   S    
C6    F8    S    
C55   C57   A    
O5    V1    S    
C49   C51   A    
C54   C64   A    
O15   V3    S    
C51   C53   A    
C48   C50   A    
O4    V2    S    
C45   F1    S    
C30   Br2   S    
C6    C22   A    
C66   O17   A    
O6    C4    A    
C50   C60   A    
O20   V3    S    
C19   C21   A    
C61   C63   A    
C63   Br7   S    
C3    C32   S    
O1    V2    S    
O12   C68   A    
O17   V3    S    
O2    V1    S    
C59   C61   A    
C26   F10   S    
C7    C27   A    
C25   F9    S    
C56   C58   A    
C59   Br5   S    
C9    C11   A    
C40   C46   A    
C53   C63   A    
O4    C2    A    
C28   H2    S    
C24   C26   A    
C62   C64   A    
C38   H6    S    
O3    V1    S    
C5    F7    S    
C42   C52   A    
C48   Br4   S    
C10   Br12  S    
C60   Br6   S    
C45   C47   A    
C14   Br14  S    
O3    C1    A    
C49   C59   A    
C8    C30   A    
C13   C15   A    
C64   Br8   S    
C14   C16   A    
C33   C43   A    
C34   C44   A    
C39   C41   A    
O7    V1    S    
C1    O8    A    
O8    V2    S    
C39   C45   A    
C44   C58   A    
C21   C23   A    
C19   C27   A    
C23   F5    S    
C22   C24   A    
C20   C28   A    
O15   C67   A    
O14   V4    S    
C5    C29   A    
C9    Br11  S    
O13   V3    S    
C11   C13   A    
C52   C54   A    
O9    V2    S    
C17   C25   A    
O10   V1    S    
C54   C56   A    
C35   C37   A    
O16   V4    S    
C7    C29   A    
C20   C22   A    
C46   F2    S    
O11   C67   A    
