data_mof_unit_50776.cif
_audit_creation_date              2012-10-26T21:27:10-0400
_audit_creation_method            fapswitch 2.2
_symmetry_space_group_name_H-M    P1
_symmetry_Int_Tables_number       1
_space_group_crystal_system       tetragonal
_cell_length_a                    12.259655
_cell_length_b                    12.259655
_cell_length_c                    23.350859
_cell_angle_alpha                 90.0
_cell_angle_beta                  90.0
_cell_angle_gamma                 90.0
_cell_volume                      3509.61404275

loop_
_atom_site_label
_atom_site_type_symbol
_atom_type_description
_atom_site_fract_x
_atom_site_fract_y
_atom_site_fract_z
_atom_type_partial_charge
C1    C     C_3   1.000000 0.000000 0.250000 0.084954
C2    C     C_R   0.901220 0.002079 0.292711 0.178753
C3    C     C_R   0.000072 0.651160 0.922204 0.559863
C4    C     C_R   0.000072 0.348840 0.077796 0.559865
C5    C     C_R   0.348840 0.999928 0.422204 0.559865
C6    C     C_R   0.651160 0.999928 0.577796 0.559863
C7    C     C_R   0.999928 0.348840 0.922204 0.559863
C8    C     C_R   0.999928 0.651160 0.077796 0.559865
C9    C     C_R   0.651160 0.000072 0.422204 0.559865
C10   C     C_R   0.348840 0.000072 0.577796 0.559863
C11   C     C_R   0.097451 0.163249 0.195994 0.297177
C12   C     C_3   1.000000 1.000000 0.750000 0.084950
C13   C     C_R   0.908551 0.883047 0.828190 0.233546
C14   C     C_R   0.883047 0.091448 0.671810 0.233546
C15   C     C_R   0.163249 0.902549 0.304006 0.297177
C16   C     C_R   0.902549 0.836751 0.195993 0.297177
C17   C     C_R   0.091448 0.116952 0.828190 0.233546
C18   C     C_R   0.116952 0.908551 0.671810 0.233546
C19   C     C_R   0.836751 0.097451 0.304006 0.297178
C20   C     C_R   0.097449 0.836742 0.804002 0.297189
C21   C     C_R   0.908548 0.116959 0.171813 0.233549
C22   C     C_R   0.883040 0.908548 0.328187 0.233549
C23   C     C_R   0.002079 0.098779 0.207289 0.178753
C24   C     C_R   0.163258 0.097449 0.695998 0.297189
C25   C     C_R   0.902551 0.163257 0.804002 0.297189
C26   C     C_R   0.091452 0.883041 0.171813 0.233549
C27   C     C_R   0.116959 0.091451 0.328187 0.233548
C28   C     C_R   0.836742 0.902551 0.695998 0.297188
C29   C     C_R   0.093958 0.245527 0.154328 -0.132444
C30   C     C_R   0.908718 0.800078 0.869331 -0.130770
C31   C     C_R   0.800079 0.091282 0.630669 -0.130769
C32   C     C_R   0.245527 0.906042 0.345672 -0.132444
C33   C     C_R   0.906042 0.754473 0.154328 -0.132444
C34   C     C_R   0.002079 0.901220 0.792711 0.178756
C35   C     C_R   0.091282 0.199921 0.869331 -0.130770
C36   C     C_R   0.199921 0.908718 0.630669 -0.130769
C37   C     C_R   0.754473 0.093958 0.345672 -0.132444
C38   C     C_R   0.093955 0.754464 0.845667 -0.132438
C39   C     C_R   0.908715 0.199929 0.130673 -0.130772
C40   C     C_R   0.800071 0.908715 0.369327 -0.130772
C41   C     C_R   0.245536 0.093955 0.654333 -0.132438
C42   C     C_R   0.906045 0.245536 0.845667 -0.132438
C43   C     C_R   0.091285 0.800071 0.130673 -0.130772
C44   C     C_R   0.199929 0.091285 0.369327 -0.130772
C45   C     C_R   0.901220 0.997921 0.707289 0.178756
C46   C     C_R   0.754464 0.906045 0.654333 -0.132438
C47   C     C_R   0.000576 0.264010 0.121920 -0.047494
C48   C     C_R   0.000576 0.735989 0.878080 -0.047491
C49   C     C_R   0.735990 0.999424 0.621920 -0.047492
C50   C     C_R   0.264010 0.999424 0.378080 -0.047494
C51   C     C_R   0.999424 0.735990 0.121920 -0.047494
C52   C     C_R   0.999424 0.264010 0.878080 -0.047491
C53   C     C_R   0.264010 0.000576 0.621920 -0.047491
C54   C     C_R   0.735990 0.000576 0.378080 -0.047494
C55   C     C_R   0.098779 0.997921 0.292711 0.178753
C56   C     C_R   0.997921 0.901220 0.207289 0.178753
C57   C     C_R   0.997921 0.098780 0.792711 0.178755
C58   C     C_R   0.098780 0.002079 0.707289 0.178756
Cu1   Cu    Cu3+1 0.889520 0.500000 0.000000 0.938864
Cu2   Cu    Cu3+1 0.110480 0.500000 0.000000 0.938864
Cu3   Cu    Cu3+1 0.500000 0.889520 0.500000 0.938864
Cu4   Cu    Cu3+1 0.500000 0.110480 0.500000 0.938864
H1    H     H_    0.165871 0.294762 0.146613 0.123967
H2    H     H_    0.836677 0.213418 0.104736 0.125449
H3    H     H_    0.786582 0.836677 0.395263 0.125449
H4    H     H_    0.294778 0.165866 0.646621 0.123964
H5    H     H_    0.834134 0.294778 0.853379 0.123964
H6    H     H_    0.163323 0.786582 0.104736 0.125449
H7    H     H_    0.213418 0.163323 0.395264 0.125449
H8    H     H_    0.705222 0.834134 0.646621 0.123964
H9    H     H_    0.252065 0.194453 0.210227 0.320817
H10   H     H_    0.758710 0.922641 0.848284 0.325477
H11   H     H_    0.922642 0.241289 0.651716 0.325477
H12   H     H_    0.836683 0.786596 0.895271 0.125446
H13   H     H_    0.194452 0.747935 0.289773 0.320817
H14   H     H_    0.747935 0.805548 0.210227 0.320817
H15   H     H_    0.241289 0.077359 0.848284 0.325477
H16   H     H_    0.077358 0.758711 0.651716 0.325477
H17   H     H_    0.805548 0.252065 0.289773 0.320817
H18   H     H_    0.252058 0.805526 0.789762 0.320814
H19   H     H_    0.758701 0.077381 0.151727 0.325478
H20   H     H_    0.922618 0.758701 0.348272 0.325479
H21   H     H_    0.194474 0.252058 0.710239 0.320814
H22   H     H_    0.747942 0.194474 0.789762 0.320814
H23   H     H_    0.786596 0.163317 0.604729 0.125446
H24   H     H_    0.241299 0.922619 0.151727 0.325478
H25   H     H_    0.077382 0.241299 0.348272 0.325479
H26   H     H_    0.805526 0.747942 0.710238 0.320814
H27   H     H_    0.294762 0.834129 0.353387 0.123968
H28   H     H_    0.834129 0.705238 0.146613 0.123967
H29   H     H_    0.163317 0.213404 0.895271 0.125446
H30   H     H_    0.213404 0.836683 0.604729 0.125446
H31   H     H_    0.705238 0.165871 0.353387 0.123968
H32   H     H_    0.165866 0.705222 0.853379 0.123964
O1    O     O_R   0.907020 0.615090 0.941240 -0.510149
O2    O     O_R   0.092980 0.615090 0.941240 -0.513191
O3    O     O_R   0.384910 0.092980 0.558760 -0.513191
O4    O     O_R   0.615090 0.907020 0.441240 -0.510150
O5    O     O_R   0.092980 0.615090 0.058760 -0.510150
O6    O     O_R   0.907020 0.384910 0.941240 -0.513191
O7    O     O_R   0.615090 0.907020 0.558760 -0.513191
O8    O     O_R   0.384910 0.092980 0.441240 -0.510150
O9    O     O_3   0.195229 0.142635 0.223378 -0.654125
O10   O     O_3   0.815811 0.945256 0.820649 -0.667555
O11   O     O_3   0.945257 0.184189 0.679351 -0.667555
O12   O     O_R   0.092980 0.384910 0.058760 -0.513192
O13   O     O_3   0.142635 0.804770 0.276621 -0.654125
O14   O     O_3   0.804770 0.857364 0.223378 -0.654125
O15   O     O_3   0.184189 0.054743 0.820649 -0.667555
O16   O     O_3   0.054743 0.815811 0.679351 -0.667555
O17   O     O_3   0.857364 0.195229 0.276621 -0.654125
O18   O     O_3   0.195226 0.857352 0.776615 -0.654130
O19   O     O_3   0.815805 0.054758 0.179358 -0.667549
O20   O     O_3   0.945242 0.815805 0.320642 -0.667550
O21   O     O_3   0.142648 0.195226 0.723385 -0.654130
O22   O     O_3   0.804774 0.142648 0.776615 -0.654129
O23   O     O_R   0.384910 0.907020 0.441240 -0.513192
O24   O     O_3   0.184195 0.945242 0.179358 -0.667549
O25   O     O_3   0.054758 0.184195 0.320642 -0.667550
O26   O     O_3   0.857352 0.804774 0.723385 -0.654130
O27   O     O_R   0.615090 0.092980 0.558760 -0.510149
O28   O     O_R   0.092980 0.384910 0.941240 -0.510149
O29   O     O_R   0.907020 0.615090 0.058760 -0.513192
O30   O     O_R   0.615090 0.092980 0.441240 -0.513192
O31   O     O_R   0.384910 0.907020 0.558760 -0.510149
O32   O     O_R   0.907020 0.384910 0.058760 -0.510150

loop_
_geom_bond_atom_site_label_1
_geom_bond_atom_site_label_2
_ccdc_geom_bond_type
C29   H1    S    
H13   O13   S    
C9    O4    A    
C31   H23   S    
Cu3   O4    S    
C14   C31   A    
Cu2   O5    S    
Cu4   O30   S    
C15   C32   A    
Cu1   O32   S    
C39   H2    S    
C46   C49   A    
C28   C46   A    
H22   O22   S    
Cu1   O1    S    
C29   C47   A    
C30   C48   A    
C1    C56   S    
C7    C52   S    
Cu1   O6    S    
C30   H12   S    
C27   C55   A    
C3    C48   S    
C9    O30   A    
C1    C2    S    
C6    O7    A    
C15   O13   S    
C10   C53   S    
C36   C53   A    
C19   C37   A    
C20   O18   S    
C27   C44   A    
C18   C58   A    
C14   O11   S    
C43   H6    S    
C2    C22   A    
C3    O2    A    
H26   O26   S    
C10   O31   A    
C38   C48   A    
C12   C58   S    
C36   H30   S    
Cu1   Cu2   S    
H14   O14   S    
C24   C41   A    
C38   H32   S    
C25   C57   A    
C31   C49   A    
C26   C43   A    
C14   C45   A    
Cu1   O29   S    
C28   C45   A    
C7    O6    A    
Cu3   O23   S    
H21   O21   S    
C13   C30   A    
H20   O20   S    
H24   O24   S    
C28   O26   S    
C25   O22   S    
H10   O10   S    
C4    O12   A    
H17   O17   S    
C5    O23   A    
C15   C55   A    
C10   O3    A    
Cu3   O7    S    
C16   C56   A    
H25   O25   S    
C16   C33   A    
Cu4   O3    S    
C20   C38   A    
H11   O11   S    
C32   H27   S    
C21   C39   A    
C22   C40   A    
H18   O18   S    
C37   H31   S    
C44   H7    S    
H16   O16   S    
C13   O10   S    
Cu2   O28   S    
C8    C51   S    
C41   C53   A    
C37   C54   A    
Cu2   O2    S    
C21   O19   S    
C1    C23   S    
C27   O25   S    
C40   H3    S    
C21   C23   A    
C42   H5    S    
C5    C50   S    
C12   C57   S    
C7    O28   A    
C12   C34   S    
Cu2   O12   S    
C39   C47   A    
C44   C50   A    
H9    O9    S    
C5    O8    A    
H15   O15   S    
C2    C19   A    
C8    O5    A    
C18   O16   S    
C12   C45   S    
C26   C56   A    
C25   C42   A    
C11   O9    S    
C8    O29   A    
C41   H4    S    
C19   O17   S    
C33   C51   A    
C26   O24   S    
C40   C54   A    
C4    O32   A    
C1    C55   S    
C20   C34   A    
C13   C34   A    
C33   H28   S    
C43   C51   A    
C17   O15   S    
C11   C23   A    
C3    O1    A    
C32   C50   A    
C6    C49   S    
Cu3   Cu4   S    
C46   H8    S    
C16   O14   S    
C22   O20   S    
C11   C29   A    
C24   O21   S    
C24   C58   A    
H19   O19   S    
C35   C52   A    
Cu3   O31   S    
C9    C54   S    
C17   C35   A    
C6    O27   A    
C17   C57   A    
C18   C36   A    
Cu4   O27   S    
C42   C52   A    
Cu4   O8    S    
C4    C47   S    
C35   H29   S    
