data_mof_unit_42647.cif
_audit_creation_date              2012-12-11T15:43:16-0500
_audit_creation_method            fapswitch 2.2
_symmetry_space_group_name_H-M    P1
_symmetry_Int_Tables_number       1
_space_group_crystal_system       triclinic
_cell_length_a                    19.50986
_cell_length_b                    11.232791
_cell_length_c                    18.694728
_cell_angle_alpha                 90.071994
_cell_angle_beta                  89.549422
_cell_angle_gamma                 91.819695
_cell_volume                      4094.75822805

loop_
_atom_site_label
_atom_site_type_symbol
_atom_type_description
_atom_site_fract_x
_atom_site_fract_y
_atom_site_fract_z
_atom_type_partial_charge
C1    C     C_R   0.729335 0.373651 0.146422 0.555233
C2    C     C_R   0.269861 0.377951 0.852756 0.568446
C3    C     C_R   0.229335 0.873650 0.146422 0.555229
C4    C     C_R   0.769861 0.877951 0.852756 0.568422
C5    C     C_R   0.440871 0.363836 0.957405 -0.054582
C6    C     C_R   0.532692 0.395434 0.067728 -0.078608
C7    C     C_R   0.940839 0.863781 0.957428 -0.054478
C8    C     C_R   0.032702 0.895429 0.067716 -0.078630
C9    C     C_R   0.943932 0.970889 0.994981 -0.075109
C10   C     C_R   0.992173 0.988820 0.047788 -0.105069
C11   C     C_R   0.443942 0.470918 0.994985 -0.075149
C12   C     C_R   0.492161 0.488826 0.047811 -0.105059
C13   C     C_R   0.745088 0.934372 0.917309 0.041145
C14   C     C_R   0.254426 0.915825 0.078948 0.079113
C15   C     C_R   0.245088 0.434372 0.917309 0.041161
C16   C     C_R   0.754425 0.415825 0.078948 0.079116
C17   C     C_R   0.695461 0.877907 0.959955 0.062178
C18   C     C_R   0.297616 0.844977 0.038401 -0.016834
C19   C     C_R   0.195461 0.377909 0.959955 0.062176
C20   C     C_R   0.797616 0.344979 0.038402 -0.016837
C21   C     C_R   0.689146 0.903527 0.031460 0.034794
C22   C     C_R   0.305415 0.873292 0.965883 0.010377
C23   C     C_R   0.189146 0.403528 0.031460 0.034790
C24   C     C_R   0.805415 0.373290 0.965884 0.010376
C25   C     C_R   0.773989 0.060039 0.017620 -0.161755
C26   C     C_R   0.208624 0.992471 0.976805 -0.168195
C27   C     C_R   0.273991 0.560037 0.017620 -0.161740
C28   C     C_R   0.708623 0.492469 0.976804 -0.168190
C29   C     C_R   0.777133 0.038359 0.943468 0.047416
C30   C     C_R   0.229240 0.015827 0.047202 0.020346
C31   C     C_R   0.277135 0.538358 0.943469 0.047419
C32   C     C_R   0.729238 0.515826 0.047201 0.020351
C33   C     C_3   0.676539 0.751368 0.967907 -0.020794
C34   C     C_3   0.372421 0.841438 0.050917 0.013107
C35   C     C_3   0.176540 0.251369 0.967907 -0.020799
C36   C     C_3   0.872421 0.341440 0.050919 0.013111
C37   C     C_3   0.668376 0.776763 0.048489 -0.212997
C38   C     C_3   0.381012 0.892976 0.975280 -0.186946
C39   C     C_3   0.168378 0.276763 0.048489 -0.212999
C40   C     C_3   0.881012 0.392975 0.975280 -0.186947
C41   C     C_R   0.733321 0.987195 0.063421 -0.000667
C42   C     C_R   0.255978 0.940776 0.931027 0.024392
C43   C     C_R   0.233321 0.487195 0.063421 -0.000665
C44   C     C_R   0.755977 0.440772 0.931026 0.024390
C45   C     C_R   0.564636 0.153648 0.138756 0.565478
C46   C     C_R   0.463417 0.157661 0.855284 0.553272
C47   C     C_R   0.064640 0.653647 0.138757 0.565478
C48   C     C_R   0.963413 0.657657 0.855286 0.553257
C49   C     C_R   0.500494 0.162447 0.578135 0.034585
C50   C     C_R   0.522159 0.166707 0.430576 0.009650
C51   C     C_R   0.000494 0.662447 0.578135 0.034585
C52   C     C_R   0.022159 0.666707 0.430576 0.009650
C53   C     C_R   0.492741 0.060697 0.536109 0.061691
C54   C     C_R   0.504853 0.062466 0.464882 0.010631
C55   C     C_R   0.992740 0.560697 0.536109 0.061691
C56   C     C_R   0.004853 0.562466 0.464882 0.010631
C57   C     C_R   0.540008 0.268192 0.472207 -0.157347
C58   C     C_R   0.529430 0.265935 0.546790 -0.164504
C59   C     C_R   0.040008 0.768192 0.472207 -0.157347
C60   C     C_R   0.029430 0.765935 0.546790 -0.164504
C61   C     C_3   0.433075 0.975866 0.527608 -0.237480
C62   C     C_3   0.448389 0.976713 0.448252 -0.255694
C63   C     C_3   0.933075 0.475866 0.527608 -0.237480
C64   C     C_3   0.948389 0.476713 0.448252 -0.255694
C65   C     C_R   0.758097 0.912193 0.575254 0.030913
C66   C     C_R   0.252256 0.915055 0.422542 0.022906
C67   C     C_R   0.258097 0.412193 0.575254 0.030913
C68   C     C_R   0.752255 0.415055 0.422542 0.022906
C69   C     C_R   0.815044 0.927384 0.530189 0.030721
C70   C     C_R   0.223989 0.014754 0.454026 -0.021924
C71   C     C_R   0.315044 0.427384 0.530189 0.030721
C72   C     C_R   0.723989 0.514754 0.454026 -0.021924
C73   C     C_R   0.808637 0.933552 0.457676 0.058759
C74   C     C_R   0.222931 0.026537 0.526696 0.002265
C75   C     C_R   0.308637 0.433552 0.457676 0.058759
C76   C     C_R   0.722931 0.526537 0.526696 0.002266
C77   C     C_R   0.685774 0.921250 0.471215 -0.151691
C78   C     C_R   0.287585 0.850952 0.541519 -0.145918
C79   C     C_R   0.185774 0.421250 0.471215 -0.151691
C80   C     C_R   0.787586 0.350952 0.541519 -0.145918
C81   C     C_R   0.692238 0.912149 0.545760 0.028249
C82   C     C_R   0.291700 0.839918 0.467146 0.056612
C83   C     C_R   0.192238 0.412149 0.545760 0.028249
C84   C     C_R   0.791700 0.339918 0.467146 0.056612
C85   C     C_3   0.877216 0.854208 0.524045 -0.249479
C86   C     C_3   0.157805 0.077312 0.446075 -0.261147
C87   C     C_3   0.377216 0.354208 0.524045 -0.249479
C88   C     C_3   0.657805 0.577312 0.446075 -0.261147
C89   C     C_R   0.729534 0.014450 0.139785 0.542512
C90   C     C_R   0.261054 0.978583 0.855641 0.563513
C91   C     C_R   0.229534 0.514449 0.139785 0.542511
C92   C     C_R   0.761051 0.478575 0.855639 0.563507
C93   C     C_3   0.869324 0.859660 0.443683 -0.271020
C94   C     C_3   0.155856 0.086089 0.527028 -0.240937
C95   C     C_3   0.369324 0.359660 0.443683 -0.271021
C96   C     C_3   0.655856 0.586089 0.527028 -0.240936
C97   C     C_R   0.744905 0.927926 0.426484 -0.005445
C98   C     C_R   0.249850 0.941379 0.571963 -0.003988
C99   C     C_R   0.244905 0.427926 0.426484 -0.005445
C100  C     C_R   0.749849 0.441379 0.571963 -0.003988
C101  C     C_R   0.729402 0.375625 0.352410 0.567553
C102  C     C_R   0.271559 0.376987 0.647707 0.576572
C103  C     C_R   0.229402 0.875625 0.352410 0.567552
C104  C     C_R   0.771559 0.876987 0.647707 0.576570
C105  C     C_R   0.538446 0.156744 0.355854 0.564623
C106  C     C_R   0.468203 0.157549 0.647824 0.552152
C107  C     C_R   0.038446 0.656743 0.355854 0.564622
C108  C     C_R   0.968203 0.657549 0.647824 0.552152
C109  C     C_R   0.739988 0.972078 0.354289 0.569837
C110  C     C_R   0.258478 0.974347 0.645857 0.542448
C111  C     C_R   0.239988 0.472078 0.354289 0.569837
C112  C     C_R   0.758478 0.474346 0.645857 0.542446
C113  C     C_R   0.501306 0.179844 0.921476 -0.004448
C114  C     C_R   0.554553 0.174577 0.059794 -0.011529
C115  C     C_R   0.001297 0.679822 0.921482 -0.004455
C116  C     C_R   0.054560 0.674570 0.059794 -0.011542
C117  C     C_R   0.488669 0.275087 0.969783 0.007950
C118  C     C_R   0.527363 0.282983 0.033236 0.022652
C119  C     C_R   0.988657 0.775056 0.969794 0.007961
C120  C     C_R   0.027366 0.782969 0.033235 0.022642
C121  C     C_R   0.567750 0.086264 0.008180 0.047467
C122  C     C_R   0.554834 0.107407 0.936243 0.098118
C123  C     C_R   0.067753 0.586252 0.008181 0.047471
C124  C     C_R   0.054831 0.607391 0.936245 0.098129
Cr1   Cr    Cr6+3 0.772010 0.169670 0.250090 1.074472
Cr2   Cr    Cr6+3 0.227990 0.169670 0.749910 1.092857
Cr3   Cr    Cr6+3 0.272010 0.669670 0.250090 1.074469
Cr4   Cr    Cr6+3 0.727990 0.669670 0.749910 1.092852
Cr5   Cr    Cr6+3 0.615000 0.323260 0.249260 1.007643
Cr6   Cr    Cr6+3 0.385000 0.323260 0.750740 1.054553
Cr7   Cr    Cr6+3 0.115000 0.823260 0.249260 1.007651
Cr8   Cr    Cr6+3 0.885000 0.823260 0.750740 1.054582
Cr9   Cr    Cr6+3 0.616710 0.010760 0.250840 1.054776
Cr10  Cr    Cr6+3 0.383290 0.010760 0.749160 1.083806
Cr11  Cr    Cr6+3 0.116710 0.510760 0.250840 1.054777
Cr12  Cr    Cr6+3 0.883290 0.510760 0.749160 1.083802
H1    H     H_    0.559867 0.348658 0.447273 0.135742
H2    H     H_    0.538597 0.345791 0.578205 0.127298
H3    H     H_    0.059867 0.848658 0.447273 0.135742
H4    H     H_    0.038597 0.845791 0.578205 0.127298
H5    H     H_    0.884525 0.519593 0.541452 0.137700
H6    H     H_    0.969959 0.393097 0.427590 0.192079
H7    H     H_    0.384526 0.019593 0.541452 0.137700
H8    H     H_    0.469959 0.893097 0.427590 0.192078
H9    H     H_    0.441355 0.888462 0.553420 0.191464
H10   H     H_    0.407437 0.015854 0.415454 0.152419
H11   H     H_    0.941354 0.388462 0.553420 0.191464
H12   H     H_    0.907437 0.515854 0.415453 0.152419
H13   H     H_    0.634908 0.924874 0.448743 0.160869
H14   H     H_    0.316359 0.792602 0.575340 0.161227
H15   H     H_    0.134908 0.424874 0.448743 0.160869
H16   H     H_    0.816359 0.292602 0.575340 0.161226
H17   H     H_    0.868974 0.762946 0.546113 0.128890
H18   H     H_    0.114829 0.021865 0.424654 0.161939
H19   H     H_    0.368974 0.262946 0.546113 0.128890
H20   H     H_    0.614829 0.521864 0.424654 0.161939
H21   H     H_    0.922858 0.905254 0.543798 0.165430
H22   H     H_    0.165377 0.165364 0.419598 0.149203
H23   H     H_    0.422858 0.405254 0.543798 0.165430
H24   H     H_    0.665377 0.665364 0.419598 0.149203
H25   H     H_    0.911730 0.910862 0.416603 0.171832
H26   H     H_    0.161081 0.178236 0.546970 0.183937
H27   H     H_    0.411730 0.410862 0.416603 0.171831
H28   H     H_    0.661081 0.678236 0.546970 0.183937
H29   H     H_    0.855518 0.771939 0.419143 0.132414
H30   H     H_    0.114068 0.030649 0.552171 0.149069
H31   H     H_    0.355518 0.271939 0.419143 0.132414
H32   H     H_    0.614068 0.530648 0.552171 0.149069
H33   H     H_    0.400635 0.351053 0.920156 0.177048
H34   H     H_    0.568884 0.415957 0.108503 0.181015
H35   H     H_    0.900559 0.850926 0.920220 0.176917
H36   H     H_    0.068898 0.915954 0.108487 0.181013
H37   H     H_    0.910373 0.041606 0.982333 0.146459
H38   H     H_    0.996721 0.073918 0.074936 0.135288
H39   H     H_    0.410389 0.541643 0.982337 0.146459
H40   H     H_    0.496700 0.573912 0.074974 0.135276
H41   H     H_    0.805636 0.128034 0.040485 0.129068
H42   H     H_    0.160072 0.019919 0.957967 0.172391
H43   H     H_    0.305640 0.628029 0.040485 0.129067
H44   H     H_    0.660071 0.519918 0.957965 0.172391
H45   H     H_    0.221966 0.203128 0.951176 0.152963
H46   H     H_    0.890976 0.249188 0.052020 0.127443
H47   H     H_    0.721964 0.703126 0.951175 0.152960
H48   H     H_    0.390976 0.749186 0.052016 0.127438
H49   H     H_    0.616350 0.755307 0.068479 0.179650
H50   H     H_    0.412004 0.836649 0.939585 0.193722
H51   H     H_    0.116352 0.255306 0.068479 0.179648
H52   H     H_    0.912004 0.336646 0.939587 0.193720
H53   H     H_    0.702499 0.741801 0.088567 0.171597
H54   H     H_    0.396973 0.988387 0.973030 0.189048
H55   H     H_    0.202501 0.241804 0.088567 0.171597
H56   H     H_    0.896973 0.488385 0.973029 0.189043
O1    O     O_R   0.787520 0.042810 0.170440 -0.495513
O2    O     O_R   0.212480 0.042810 0.829560 -0.495673
O3    O     O_R   0.287520 0.542810 0.170440 -0.495515
O4    O     O_R   0.712480 0.542810 0.829560 -0.495675
O5    O     O_R   0.556610 0.252880 0.323980 -0.502560
O6    O     O_R   0.443390 0.252880 0.676020 -0.516739
O7    O     O_R   0.056610 0.752880 0.323980 -0.502559
O8    O     O_R   0.943390 0.752880 0.676020 -0.516739
O9    O     O_R   0.545950 0.051210 0.330860 -0.504314
O10   O     O_R   0.454050 0.051210 0.669140 -0.482621
O11   O     O_R   0.045950 0.551210 0.330860 -0.504314
O12   O     O_R   0.954050 0.551210 0.669140 -0.482620
O13   O     O_R   0.681390 0.959480 0.325510 -0.517695
O14   O     O_R   0.318610 0.959480 0.674490 -0.507267
O15   O     O_R   0.181390 0.459480 0.325510 -0.517695
O16   O     O_R   0.818610 0.459480 0.674490 -0.507267
O17   O     O_3   0.667900 0.167900 0.250060 -0.327550
O18   O     O_3   0.332100 0.167900 0.749940 -0.307196
O19   O     O_3   0.167900 0.667900 0.250060 -0.327554
O20   O     O_3   0.832100 0.667900 0.749940 -0.307201
O21   O     O_R   0.765640 0.292100 0.175020 -0.501588
O22   O     O_R   0.234360 0.292100 0.824980 -0.473522
O23   O     O_R   0.265640 0.792100 0.175020 -0.501587
O24   O     O_R   0.734360 0.792100 0.824980 -0.473523
O25   O     O_R   0.670190 0.408840 0.168540 -0.550160
O26   O     O_R   0.329810 0.408840 0.831460 -0.509441
O27   O     O_R   0.170190 0.908840 0.168540 -0.550162
O28   O     O_R   0.829810 0.908840 0.831460 -0.509402
O29   O     O_R   0.556620 0.251410 0.175160 -0.509611
O30   O     O_R   0.443380 0.251410 0.824840 -0.519214
O31   O     O_R   0.056620 0.751410 0.175160 -0.509596
O32   O     O_R   0.943380 0.751410 0.824840 -0.519156
O33   O     O_R   0.545960 0.049620 0.170320 -0.431461
O34   O     O_R   0.454040 0.049620 0.829680 -0.464289
O35   O     O_R   0.045960 0.549620 0.170320 -0.431461
O36   O     O_R   0.954040 0.549620 0.829680 -0.464299
O37   O     O_R   0.681390 0.958010 0.176690 -0.499463
O38   O     O_R   0.318610 0.958010 0.823310 -0.479745
O39   O     O_R   0.181390 0.458010 0.176690 -0.499465
O40   O     O_R   0.818610 0.458010 0.823310 -0.479747
O41   O     O_R   0.787510 0.044390 0.330970 -0.464291
O42   O     O_R   0.212490 0.044390 0.669030 -0.502660
O43   O     O_R   0.287510 0.544390 0.330970 -0.464292
O44   O     O_R   0.712490 0.544390 0.669030 -0.502661
O45   O     O_R   0.765630 0.293570 0.323840 -0.458635
O46   O     O_R   0.234370 0.293570 0.676160 -0.474395
O47   O     O_R   0.265630 0.793570 0.323840 -0.458634
O48   O     O_R   0.734370 0.793570 0.676160 -0.474394
O49   O     O_R   0.670190 0.410420 0.329080 -0.526734
O50   O     O_R   0.329810 0.410420 0.670920 -0.505418
O51   O     O_R   0.170190 0.910420 0.329080 -0.526733
O52   O     O_R   0.829810 0.910420 0.670920 -0.505420
I1    I     I_    0.531757 0.919004 0.030524 -0.369556
I2    I     I_    0.607021 0.029878 0.847641 -0.222988
I3    I     I_    0.031757 0.418995 0.030529 -0.369566
I4    I     I_    0.107020 0.529874 0.847640 -0.222983
I5    I     I_    0.603325 0.891339 0.611409 -0.338002
I6    I     I_    0.363232 0.712889 0.432835 -0.402621
I7    I     I_    0.103326 0.391339 0.611409 -0.338001
I8    I     I_    0.863232 0.212889 0.432835 -0.402620
I9    I     I_    0.831384 0.154333 0.869985 -0.337653
I10   I     I_    0.316059 0.143729 0.055121 -0.436818
I11   I     I_    0.331387 0.654332 0.869986 -0.337681
I12   I     I_    0.816057 0.643731 0.055116 -0.436873
I13   I     I_    0.585435 0.702925 0.906970 -0.289874
I14   I     I_    0.402603 0.924519 0.153201 -0.213557
I15   I     I_    0.085436 0.202924 0.906971 -0.289873
I16   I     I_    0.902601 0.424529 0.153202 -0.213549

loop_
_geom_bond_atom_site_label_1
_geom_bond_atom_site_label_2
_ccdc_geom_bond_type
Cr1   O1    S    
Cr4   O44   S    
Cr11  O19   S    
C55   C56   A    
C88   C96   S    
C65   C69   A    
C67   C83   A    
C98   C110  S    
C116  C123  A    
C7    H35   S    
C78   C82   A    
C84   I8    S    
Cr9   O17   S    
C5    C117  A    
C14   C18   A    
Cr7   O7    S    
C74   C94   S    
Cr8   O20   S    
C73   C93   S    
C72   C76   A    
C94   H30   S    
C4    O28   A    
C96   H28   S    
C75   C95   S    
C123  C124  A    
C74   C98   A    
C66   C70   A    
C53   C54   A    
C109  O13   A    
C15   C19   A    
Cr12  O40   S    
C35   I15   S    
C8    C120  A    
C78   H14   S    
C50   C54   A    
C17   C33   S    
Cr10  O18   S    
Cr3   O47   S    
Cr10  O34   S    
C13   C29   A    
C69   C73   A    
C27   H43   S    
C5    C11   A    
C95   H27   S    
C6    C12   A    
C48   O36   A    
C25   H41   S    
Cr10  O14   S    
C66   C82   A    
C92   O40   A    
C3    O23   A    
C22   C38   S    
C82   I6    S    
C105  O9    A    
Cr8   O8    S    
C23   C43   A    
C34   I14   S    
C53   C61   S    
Cr7   O27   S    
Cr7   O19   S    
C81   I5    S    
C4    C13   S    
Cr6   O26   S    
C61   H9    S    
C70   C74   A    
Cr5   O25   S    
Cr2   O22   S    
Cr12  O20   S    
C114  C121  A    
C85   C93   S    
C45   C114  S    
Cr8   O52   S    
C37   H49   S    
C113  C122  A    
C20   C24   A    
C52   C107  S    
C51   C108  S    
C79   C83   A    
C55   C63   S    
C75   C99   A    
C78   C98   A    
C50   C105  S    
Cr1   O21   S    
C96   H32   S    
C77   C97   A    
C102  O50   A    
C59   H3    S    
C34   H48   S    
C101  O49   A    
C9    C10   A    
C94   H26   S    
C51   C55   A    
C44   C92   S    
C110  O42   A    
C68   C72   A    
C35   H45   S    
C106  O6    A    
C39   H51   S    
C58   H2    S    
C121  I1    S    
Cr12  O36   S    
C93   H29   S    
C59   C60   A    
Cr11  O39   S    
C80   C100  A    
C25   C29   A    
C107  O11   A    
C85   H21   S    
C14   C30   A    
C73   C97   A    
C28   C32   A    
C63   H11   S    
C72   C88   S    
C61   H7    S    
Cr10  O10   S    
Cr9   O37   S    
C18   C34   S    
Cr9   O9    S    
C47   C116  S    
C102  O46   A    
C107  O7    A    
C39   H55   S    
C27   C31   A    
C80   C84   A    
C68   C84   A    
C7    C119  A    
C76   C100  A    
C36   C40   S    
Cr6   O30   S    
C68   C101  S    
C112  O16   A    
Cr5   O29   S    
Cr2   O18   S    
C77   H13   S    
Cr12  O16   S    
Cr1   O17   S    
C19   C23   A    
Cr11  O11   S    
C48   O32   A    
C38   H54   S    
C38   H50   S    
C101  O45   A    
C15   C31   A    
C28   C44   A    
C43   C91   S    
C49   C58   A    
C116  C120  A    
C91   O39   A    
C42   C90   S    
C34   C38   S    
C30   I10   S    
C124  I4    S    
C35   C39   S    
Cr2   O46   S    
C33   H47   S    
C52   C59   A    
Cr3   O3    S    
C106  O10   A    
C47   O35   A    
C97   C109  S    
C52   C56   A    
Cr2   O2    S    
C103  O51   A    
C40   H56   S    
C77   C81   A    
C16   C20   A    
C99   C111  S    
C32   I12   S    
C56   C64   S    
C86   C94   S    
C63   H5    S    
C57   H1    S    
C31   I11   S    
C110  O14   A    
C1    C16   S    
C85   H17   S    
C113  C117  A    
C9    H37   S    
C2    C15   S    
C28   H44   S    
C121  C122  A    
C114  C118  A    
C3    C14   S    
Cr11  O35   S    
C60   H4    S    
C48   C115  S    
C71   C87   S    
C89   O1    A    
C26   C30   A    
Cr3   O19   S    
C109  O41   A    
Cr4   O24   S    
C93   H25   S    
C2    O22   A    
C108  O8    A    
C115  C119  A    
C111  O43   A    
C1    O21   A    
C24   C44   A    
C21   C41   A    
Cr6   O18   S    
C36   H46   S    
Cr5   O17   S    
C70   C86   S    
C104  O52   A    
C111  O15   A    
Cr12  O12   S    
Cr1   O45   S    
C26   C42   A    
C37   H53   S    
Cr11  O15   S    
C6    H34   S    
C79   H15   S    
C79   C99   A    
C90   O2    A    
C104  O48   A    
C27   C43   A    
C47   O31   A    
C87   C95   S    
C29   I9    S    
C115  C124  A    
Cr8   O28   S    
C46   C113  S    
C83   I7    S    
C41   C89   S    
Cr8   O32   S    
C50   C57   A    
C11   H39   S    
C66   C103  S    
C69   C85   S    
C8    C10   A    
C3    O27   A    
Cr4   O4    S    
Cr10  O38   S    
Cr9   O33   S    
C92   O4    A    
C95   H31   S    
Cr5   O5    S    
Cr7   O31   S    
C119  C120  A    
C86   H22   S    
C100  C112  S    
C49   C106  S    
C40   H52   S    
C87   H19   S    
C13   C17   A    
C16   C32   A    
C54   C62   S    
C91   O3    A    
C26   H42   S    
Cr3   O43   S    
C2    O26   A    
C46   O30   A    
C12   H40   S    
C36   I16   S    
C10   H38   S    
C46   O34   A    
C18   C22   A    
C45   O33   A    
C45   O29   A    
C108  O12   A    
Cr4   O48   S    
C112  O44   A    
C117  C118  A    
C76   C96   S    
C71   C75   A    
Cr6   O50   S    
Cr3   O23   S    
C57   C58   A    
C22   C42   A    
Cr5   O49   S    
C23   C39   S    
C122  I2    S    
C105  O5    A    
C24   C40   S    
C87   H23   S    
C67   C71   A    
C88   H24   S    
C86   H18   S    
C61   C62   S    
Cr2   O42   S    
C33   C37   S    
Cr4   O20   S    
C123  I3    S    
C49   C53   A    
Cr1   O41   S    
C63   C64   S    
C20   C36   S    
C7    C9    A    
Cr7   O51   S    
C21   C37   S    
C67   C102  S    
C103  O47   A    
C25   C41   A    
C62   H10   S    
C33   I13   S    
C4    O24   A    
C64   H6    S    
C5    H33   S    
C65   C81   A    
C90   O38   A    
C1    O25   A    
C51   C60   A    
C88   H20   S    
C65   C104  S    
C89   O37   A    
C80   H16   S    
Cr6   O6    S    
Cr9   O13   S    
C6    C118  A    
C64   H12   S    
C8    H36   S    
C11   C12   A    
C62   H8    S    
C19   C35   S    
C17   C21   A    
