data_mof_unit_52658.cif
_audit_creation_date              2012-12-11T14:17:29-0500
_audit_creation_method            fapswitch 2.2
_symmetry_space_group_name_H-M    P1
_symmetry_Int_Tables_number       1
_space_group_crystal_system       triclinic
_cell_length_a                    6.93787
_cell_length_b                    13.707138
_cell_length_c                    20.40066
_cell_angle_alpha                 101.942053
_cell_angle_beta                  88.668147
_cell_angle_gamma                 90.975653
_cell_volume                      1897.41991064

loop_
_atom_site_label
_atom_site_type_symbol
_atom_type_description
_atom_site_fract_x
_atom_site_fract_y
_atom_site_fract_z
_atom_type_partial_charge
O1    O     O_R   0.506860 0.599390 0.449240 -0.543197
O2    O     O_R   0.180220 0.594600 0.586780 -0.545702
O3    O     O_R   0.004500 0.400610 0.550760 -0.539284
C1    C     C_R   0.348013 0.615937 0.613521 0.732027
O4    O     O_R   0.177490 0.611290 0.451970 -0.545096
O5    O     O_R   0.001750 0.417420 0.414990 -0.545716
C2    C     C_R   0.349207 0.637876 0.435153 0.697083
O6    O     O_R   0.509610 0.582580 0.585010 -0.546419
O7    O     O_3   0.337420 0.436370 0.488020 -0.363825
V1    V     V_3+5 0.064680 0.511800 0.502220 1.427365
O8    O     O_R   0.671710 0.405400 0.413220 -0.522702
C3    C     C_R   0.841852 0.388494 0.385799 0.728481
O9    O     O_R   0.674440 0.388710 0.548030 -0.541238
C4    C     C_R   0.841109 0.362084 0.564790 0.700984
V2    V     V_3+5 0.564010 0.488200 0.497780 1.464155
O10   O     O_3   0.841140 0.563630 0.511980 -0.381382
C5    C     C_R   0.799627 0.113340 0.613757 -0.157457
H1    H     H_    0.789796 0.163781 0.521142 0.118735
H2    H     H_    0.784699 0.989062 0.697447 0.121693
H3    H     H_    0.774748 0.036209 0.589385 0.112389
C6    C     C_R   0.842378 0.285241 0.604848 -0.035042
C7    C     C_R   0.899184 0.313781 0.927652 -0.160348
C8    C     C_R   0.908693 0.389280 0.891579 -0.117523
C9    C     C_R   0.892261 0.367105 0.822126 -0.157087
C10   C     C_R   0.865102 0.267571 0.786649 0.077785
C11   C     C_R   0.852275 0.190593 0.824188 0.066389
C12   C     C_R   0.850394 0.241861 0.715330 0.072853
C13   C     C_R   0.819494 0.140385 0.683530 0.141839
C14   C     C_R   0.807459 0.066552 0.721446 -0.201458
C15   C     C_R   0.824383 0.090983 0.790555 -0.196550
C16   C     C_R   0.864168 0.313255 0.674222 -0.216807
C17   C     C_R   0.808928 0.185551 0.574773 -0.163898
C18   C     C_R   0.870256 0.214800 0.894788 -0.077312
H4    H     H_    0.888123 0.391469 0.694362 0.094487
H5    H     H_    0.914931 0.332547 0.981550 0.106152
H6    H     H_    0.901491 0.429787 0.797920 0.106819
H7    H     H_    0.930303 0.465794 0.917632 0.116097
H8    H     H_    0.814690 0.030715 0.817447 0.118169
C19   C     C_2   0.989533 0.270638 0.290494 -0.037510
C20   C     C_2   0.852681 0.337080 0.315328 -0.209598
H9    H     H_    0.106060 0.258213 0.322361 0.165764
H10   H     H_    0.745243 0.356472 0.283053 0.192585
C21   C     C_2   0.995105 0.215314 0.219559 -0.237432
C22   C     C_2   0.842414 0.170053 0.184801 0.261497
H11   H     H_    0.136990 0.206544 0.196100 0.171654
C23   C     C_2   0.205808 0.790225 0.783640 -0.131878
C24   C     C_2   0.365882 0.816212 0.819699 -0.307587
H12   H     H_    0.067850 0.819415 0.804418 0.131867
H13   H     H_    0.505003 0.787642 0.800335 0.126353
C25   C     C_2   0.202179 0.722179 0.716103 -0.133773
C26   C     C_2   0.359451 0.683816 0.680208 -0.308948
H14   H     H_    0.060491 0.703693 0.695145 0.132370
H15   H     H_    0.502746 0.701690 0.699416 0.125813
C27   C     C_R   0.562344 0.854701 0.374020 -0.143757
H16   H     H_    0.545746 0.810574 0.468588 0.107613
H17   H     H_    0.696559 0.947223 0.280658 0.165989
H18   H     H_    0.659924 0.916279 0.392710 0.123168
C28   C     C_R   0.373769 0.713828 0.394607 -0.044916
C29   C     C_R   0.217002 0.703131 0.078560 -0.161756
C30   C     C_R   0.155175 0.636829 0.117920 -0.115973
C31   C     C_R   0.209206 0.651018 0.184538 -0.144420
C32   C     C_R   0.333833 0.730674 0.212888 0.072344
C33   C     C_R   0.409199 0.793691 0.170456 0.042925
C34   C     C_R   0.383763 0.751003 0.282087 0.065746
C35   C     C_R   0.511648 0.831971 0.306436 0.112949
C36   C     C_R   0.593471 0.887845 0.262866 -0.135741
C37   C     C_R   0.545524 0.867964 0.195839 -0.136823
C38   C     C_R   0.314251 0.693124 0.327966 -0.210383
C39   C     C_R   0.495460 0.795468 0.417530 -0.166655
C40   C     C_R   0.341804 0.782575 0.104103 -0.094555
H19   H     H_    0.223932 0.628002 0.312767 0.105303
H20   H     H_    0.162933 0.694019 0.028204 0.107888
H21   H     H_    0.149862 0.598557 0.212433 0.112085
H22   H     H_    0.058569 0.575878 0.097328 0.119489
H23   H     H_    0.618503 0.911169 0.164060 0.176611
O11   O     O_R   0.203230 0.917310 0.915020 -0.540220
O12   O     O_R   0.535500 0.888690 0.048040 -0.547535
O13   O     O_R   0.711080 0.082610 0.085000 -0.514754
C41   C     C_R   0.364303 0.862302 0.065484 0.711060
O14   O     O_R   0.532630 0.905370 0.913230 -0.551450
O15   O     O_R   0.708190 0.099410 0.949230 -0.538166
C42   C     C_R   0.365466 0.884249 0.886436 0.737015
O16   O     O_R   0.206120 0.900510 0.050790 -0.538913
O17   O     O_3   0.375360 0.063570 0.011990 -0.372121
V3    V     V_3+5 0.648170 0.988200 0.997780 1.440188
O18   O     O_R   0.038240 0.111390 0.951940 -0.540117
C43   C     C_R   0.871616 0.137567 0.934877 0.691559
O19   O     O_R   0.041120 0.094710 0.086750 -0.559839
C44   C     C_R   0.869239 0.112548 0.114668 0.634652
V4    V     V_3+5 0.148810 0.011930 0.002180 1.432297
O20   O     O_3   0.871750 0.936430 0.988010 -0.377161
S1    S     S_3+6 0.603657 0.170470 0.221673 -0.038621
O21   O     O_2   0.612554 0.164132 0.294212 -0.326402
O22   O     O_2   0.504649 0.265173 0.216337 -0.382625
O23   O     O_3   0.466192 0.074420 0.183106 -0.512703
H24   H     H_    0.389641 0.100550 0.150371 0.350089

loop_
_geom_bond_atom_site_label_1
_geom_bond_atom_site_label_2
_ccdc_geom_bond_type
O23   H24   S    
C1    O6    A    
V3    O20   S    
C24   H13   S    
C27   C35   A    
C7    H5    S    
C6    C16   A    
C32   C33   A    
C34   C38   A    
C4    C6    S    
C13   C14   A    
O5    C3    A    
V2    O10   S    
C5    H3    S    
C15   H8    S    
C24   C42   S    
O16   V4    S    
C32   C34   A    
O8    V2    S    
C25   H14   S    
C8    C9    A    
O1    V2    S    
C14   C15   A    
O7    V1    S    
C2    C28   S    
C22   S1    S    
C29   H20   S    
C20   H10   S    
C36   C37   A    
O12   V3    S    
C29   C30   A    
O9    C4    A    
O17   V4    S    
C33   C37   A    
O12   C41   A    
O13   C44   A    
C6    C17   A    
C23   H12   S    
C1    C26   S    
C12   C16   A    
C9    C10   A    
O14   C42   A    
O18   V4    S    
O11   C42   A    
C19   C20   D    
O4    C2    A    
O18   C43   A    
C19   C21   S    
C31   H21   S    
C10   C11   A    
C8    H7    S    
S1    O23   S    
C30   C31   A    
C26   H15   S    
C3    C20   S    
O2    C1    A    
C21   C22   D    
O14   V3    S    
C11   C18   A    
C33   C40   A    
S1    O22   D    
C25   C26   D    
C16   H4    S    
C9    H6    S    
O17   V3    S    
C21   H11   S    
O15   C43   A    
O3    C4    A    
O13   V3    S    
C28   C38   A    
O19   V4    S    
C11   C15   A    
O6    V2    S    
O9    V2    S    
C37   H23   S    
O2    V1    S    
C7    C18   A    
C23   C24   D    
C40   C41   S    
O1    C2    A    
C5    C13   A    
O5    V1    S    
O8    C3    A    
C28   C39   A    
C10   C12   A    
C23   C25   S    
C34   C35   A    
H16   C39   S    
O7    V2    S    
O4    V1    S    
O3    V1    S    
V1    O10   S    
C41   O16   A    
V4    O20   S    
C27   C39   A    
C38   H19   S    
H17   C36   S    
C30   H22   S    
S1    O21   D    
C18   C43   S    
C31   C32   A    
C29   C40   A    
H1    C17   S    
O19   C44   A    
C19   H9    S    
C35   C36   A    
C12   C13   A    
C5    C17   A    
C7    C8    A    
O15   V3    S    
C22   C44   S    
O11   V4    S    
C27   H18   S    
H2    C14   S    
