data_mof_unit_8672.cif
_audit_creation_date              2013-03-05T15:42:00-0500
_audit_creation_method            fapswitch 2.2
_symmetry_space_group_name_H-M    P1
_symmetry_Int_Tables_number       1
_space_group_crystal_system       triclinic
_cell_length_a                    11.287313
_cell_length_b                    11.297572
_cell_length_c                    18.758546
_cell_angle_alpha                 90.642138
_cell_angle_beta                  89.546371
_cell_angle_gamma                 120.589635
_cell_volume                      2059.04391265

loop_
_atom_site_label
_atom_site_type_symbol
_atom_site_description
_atom_site_fract_x
_atom_site_fract_y
_atom_site_fract_z
_atom_type_partial_charge
O1    O     O_R   0.910960 0.572410 0.171010 -0.480877
O2    O     O_R   0.427590 0.338550 0.171010 -0.460823
O3    O     O_R   0.661450 0.089040 0.171010 -0.487503
O4    O     O_R   0.572410 0.910960 0.828990 -0.517069
O5    O     O_R   0.338550 0.427590 0.828990 -0.477131
O6    O     O_R   0.089040 0.661450 0.828990 -0.507676
O7    O     O_R   0.639750 0.528530 0.175600 -0.474587
O8    O     O_R   0.471470 0.111220 0.175600 -0.452414
O9    O     O_R   0.888780 0.360250 0.175600 -0.473431
O10   O     O_R   0.528530 0.639750 0.824400 -0.515802
O11   O     O_R   0.111220 0.471470 0.824400 -0.527131
O12   O     O_R   0.360250 0.888780 0.824400 -0.510741
C1    C     C_R   0.516811 0.455699 0.148238 0.551305
C2    C     C_R   0.546407 0.063763 0.147303 0.562128
C3    C     C_R   0.931737 0.479520 0.146073 0.552599
C4    C     C_R   0.449650 0.528864 0.856241 0.588621
C5    C     C_R   0.066453 0.543493 0.853216 0.563173
C6    C     C_R   0.477121 0.933172 0.853684 0.575574
O13   O     O_R   0.909330 0.572400 0.331540 -0.448281
O14   O     O_R   0.427600 0.336930 0.331540 -0.482489
O15   O     O_R   0.663070 0.090670 0.331540 -0.474957
O16   O     O_R   0.572400 0.909330 0.668460 -0.474210
O17   O     O_R   0.336930 0.427600 0.668460 -0.478224
O18   O     O_R   0.090670 0.663070 0.668460 -0.482534
O19   O     O_R   0.638240 0.528520 0.324410 -0.507213
O20   O     O_R   0.471480 0.109720 0.324410 -0.514308
O21   O     O_R   0.890280 0.361760 0.324410 -0.510765
O22   O     O_R   0.528520 0.638240 0.675590 -0.499585
O23   O     O_R   0.109720 0.471480 0.675590 -0.517074
O24   O     O_R   0.361760 0.890280 0.675590 -0.494389
C7    C     C_R   0.517035 0.456715 0.353458 0.525586
C8    C     C_R   0.540959 0.058619 0.352503 0.528233
C9    C     C_R   0.902113 0.467478 0.361763 0.549499
C10   C     C_R   0.457056 0.519280 0.646291 0.577459
C11   C     C_R   0.058485 0.539290 0.648421 0.564406
C12   C     C_R   0.480697 0.935339 0.645337 0.604616
Cr1   Cr    Cr6+3 0.768550 0.541320 0.250660 1.093449
Cr2   Cr    Cr6+3 0.458680 0.227230 0.250660 1.101162
Cr3   Cr    Cr6+3 0.772770 0.231450 0.250660 1.095162
Cr4   Cr    Cr6+3 0.541320 0.768550 0.749340 1.048472
Cr5   Cr    Cr6+3 0.227230 0.458680 0.749340 1.051492
Cr6   Cr    Cr6+3 0.231450 0.772770 0.749340 1.068204
O25   O     O_3   0.666667 0.333333 0.250630 -0.304531
O26   O     O_3   0.333333 0.666667 0.749370 -0.306230
C13   C     C_R   0.489317 0.985356 0.926133 0.030612
C14   C     C_R   0.005355 0.494952 0.923446 -0.009582
C15   C     C_R   0.488016 0.521571 0.928849 -0.032868
C16   C     C_R   0.972124 0.498363 0.070925 -0.005615
C17   C     C_R   0.524388 0.010267 0.073958 0.010491
C18   C     C_R   0.487032 0.481149 0.075433 -0.024158
C19   C     C_R   0.372202 0.933700 0.972636 -0.031141
C20   C     C_R   0.060561 0.435266 0.970079 -0.054838
C21   C     C_R   0.547681 0.636396 0.976865 -0.071488
C22   C     C_R   0.063436 0.460573 0.043839 -0.075211
C23   C     C_R   0.391508 0.931306 0.046665 -0.052882
C24   C     C_R   0.528360 0.612549 0.051074 -0.081889
C25   C     C_R   0.639304 0.075358 0.026674 0.202399
C26   C     C_R   0.891349 0.524189 0.023521 0.194198
C27   C     C_R   0.450929 0.374269 0.025427 0.236537
C28   C     C_R   0.912751 0.531330 0.950621 0.163186
C29   C     C_R   0.621785 0.062375 0.953789 0.176267
C30   C     C_R   0.449600 0.392941 0.952996 0.203019
C31   C     C_R   0.239480 0.899596 0.949301 -0.081066
C32   C     C_R   0.093914 0.335818 0.947690 -0.112933
C33   C     C_R   0.649535 0.768707 0.955153 -0.129629
C34   C     C_R   0.133174 0.419613 0.089972 -0.157151
C35   C     C_R   0.277649 0.873381 0.093094 -0.135712
C36   C     C_R   0.584325 0.722971 0.099379 -0.157221
C37   C     C_R   0.131633 0.865462 0.997814 0.347205
C38   C     C_R   0.132588 0.269433 0.997572 0.331201
C39   C     C_R   0.733301 0.868373 0.005778 0.334230
C40   C     C_R   0.155897 0.313979 0.068562 0.319002
C41   C     C_R   0.151228 0.853343 0.070317 0.357320
C42   C     C_R   0.699748 0.845929 0.078644 0.339182
H1    H     H_    0.220701 0.917889 0.895615 0.182679
H2    H     H_    0.070858 0.293304 0.894445 0.157012
H3    H     H_    0.683922 0.789909 0.900802 0.164536
H4    H     H_    0.145664 0.449459 0.145724 0.100598
H5    H     H_    0.291552 0.863185 0.149305 0.092285
H6    H     H_    0.560278 0.704962 0.155667 0.101697
H7    H     H_    0.304261 0.983522 0.432294 0.171661
H8    H     H_    0.996645 0.324733 0.432415 0.185348
H9    H     H_    0.675772 0.689918 0.431661 0.187790
H10   H     H_    0.057270 0.346454 0.558532 0.140710
H11   H     H_    0.287136 0.938363 0.561596 0.160525
H12   H     H_    0.643815 0.718590 0.558978 0.145170
C43   C     C_R   0.498162 0.986069 0.571496 0.038506
C44   C     C_R   0.977006 0.480944 0.583579 0.010616
C45   C     C_R   0.497027 0.500756 0.574497 -0.001119
C46   C     C_R   0.950818 0.489580 0.436188 0.021666
C47   C     C_R   0.496648 0.986318 0.421588 -0.018278
C48   C     C_R   0.489872 0.491197 0.425366 -0.016361
C49   C     C_R   0.614097 0.007815 0.531735 0.032047
C50   C     C_R   0.910417 0.545673 0.555898 -0.030866
C51   C     C_R   0.412245 0.375963 0.538593 -0.020749
C52   C     C_R   0.934880 0.581594 0.483304 0.034990
C53   C     C_R   0.593877 0.969110 0.459476 -0.024134
C54   C     C_R   0.383926 0.384904 0.466738 -0.007319
C55   C     C_R   0.386054 0.979277 0.459616 -0.144675
C56   C     C_R   0.983010 0.395719 0.465751 -0.163062
C57   C     C_R   0.591628 0.607923 0.460617 -0.158575
C58   C     C_R   0.007818 0.400189 0.538452 -0.137773
C59   C     C_R   0.381514 0.965808 0.533805 -0.144771
C60   C     C_R   0.583653 0.618496 0.534157 -0.153708
C61   C     C_R   0.747294 0.062421 0.560809 0.260988
C62   C     C_R   0.857465 0.608025 0.601994 0.261518
C63   C     C_R   0.340377 0.246700 0.573429 0.264978
C64   C     C_R   0.958548 0.714184 0.465417 0.254697
C65   C     C_R   0.685909 0.937160 0.425256 0.260537
C66   C     C_R   0.256911 0.280752 0.438364 0.269437
C67   C     C_R   0.848090 0.053972 0.520454 -0.189605
C68   C     C_R   0.877962 0.735122 0.583768 -0.080714
C69   C     C_R   0.225106 0.139342 0.540742 -0.132480
C70   C     C_R   0.932301 0.789220 0.517466 -0.195922
C71   C     C_R   0.815185 0.987613 0.454119 -0.097893
C72   C     C_R   0.185750 0.156675 0.473540 -0.130264
H13   H     H_    0.950584 0.096383 0.541427 0.098742
H14   H     H_    0.854523 0.793658 0.621610 0.145980
H15   H     H_    0.164793 0.042642 0.567976 0.133351
H16   H     H_    0.957608 0.891809 0.507849 0.079215
H17   H     H_    0.888669 0.974975 0.422951 0.137697
H18   H     H_    0.100303 0.073612 0.447536 0.112263
N1    N     N_R   0.766375 0.189496 0.050029 -0.130655
O27   O     O_R   0.861853 0.170560 0.075450 -0.000020
O28   O     O_R   0.861857 0.170547 0.075450 -0.000020
N2    N     N_R   0.783556 0.541729 0.049476 -0.138034
O29   O     O_R   0.808580 0.665733 0.061552 -0.001708
O30   O     O_R   0.807107 0.665116 0.061693 -0.001703
N3    N     N_R   0.453878 0.257752 0.045838 0.107957
O31   O     O_R   0.339470 0.147424 0.062916 -0.235157
O32   O     O_R   0.560762 0.252545 0.024702 -0.365601
N4    N     N_R   0.835404 0.572658 0.906939 -0.167134
O33   O     O_R   0.809205 0.536770 0.840068 -0.000388
O34   O     O_R   0.809051 0.536911 0.840046 -0.000388
N5    N     N_R   0.741555 0.139671 0.909351 -0.213267
O35   O     O_R   0.736833 0.201038 0.851915 -0.000056
O36   O     O_R   0.736839 0.201045 0.851895 -0.000056
N6    N     N_R   0.441084 0.290184 0.903536 0.132297
O37   O     O_R   0.550242 0.311597 0.868828 -0.278372
O38   O     O_R   0.323724 0.183407 0.886864 -0.336381
O39   O     O_3   0.009611 0.853345 0.976063 -0.587603
H19   H     H_    0.010064 0.861953 0.923505 0.310233
O40   O     O_3   0.135711 0.152582 0.980015 -0.534408
H20   H     H_    0.100527 0.124274 0.930816 0.331785
O41   O     O_3   0.853929 0.983351 0.985420 -0.582204
H21   H     H_    0.860993 0.985748 0.932682 0.303258
O42   O     O_3   0.175495 0.236169 0.117965 -0.556539
H22   H     H_    0.171874 0.269550 0.166636 0.324719
O43   O     O_3   0.053078 0.840664 0.118950 -0.564457
H23   H     H_    0.086988 0.844619 0.168064 0.322067
O44   O     O_3   0.793130 0.932582 0.128950 -0.568313
H24   H     H_    0.756638 0.899288 0.177482 0.326495
O45   O     O_3   0.779524 0.132705 0.625147 -0.671033
H25   H     H_    0.875580 0.161087 0.638116 0.321474
O46   O     O_3   0.802174 0.555966 0.668238 -0.664844
H26   H     H_    0.780806 0.459332 0.670260 0.337008
O47   O     O_3   0.381692 0.220756 0.637636 -0.653822
H27   H     H_    0.478790 0.293019 0.646305 0.340654
O48   O     O_3   0.028827 0.779318 0.403435 -0.671234
H28   H     H_    0.025503 0.864987 0.397678 0.310529
O49   O     O_3   0.656092 0.864846 0.361629 -0.699813
H29   H     H_    0.555272 0.817336 0.353681 0.314380
O50   O     O_3   0.197632 0.297526 0.378026 -0.690444
H30   H     H_    0.243256 0.397147 0.367547 0.319198

loop_
_geom_bond_atom_site_label_1
_geom_bond_atom_site_label_2
_geom_bond_distance
_ccdc_geom_bond_type
O14   Cr2   2.086345 S    
C36   H6    1.083526 S    
C61   O45   1.382352 S    
C7    C48   1.472589 S    
O20   C8    1.303916 A    
N2    O29   1.298043 A    
C54   C66   1.415751 A    
C49   C53   1.403791 A    
O18   Cr6   2.086750 S    
C55   C59   1.399382 A    
O42   H22   0.992380 S    
H12   C60   1.080902 S    
C28   N4    1.444440 S    
C15   C30   1.369421 A    
C68   C70   1.385649 A    
O41   H21   0.991435 S    
C51   C54   1.404264 A    
C48   C54   1.420920 A    
N5    O35   1.303681 A    
C64   O48   1.390354 S    
C62   C68   1.379798 A    
O21   C9    1.325013 A    
C16   C22   1.391911 A    
C38   O40   1.374742 S    
O47   H27   0.991617 S    
O8    Cr2   1.967003 S    
C71   H17   1.077585 S    
C18   C27   1.408490 A    
N1    O28   1.296147 A    
C2    C17   1.467612 S    
O22   Cr4   1.960395 S    
C36   C42   1.392994 A    
O40   H20   0.990785 S    
C14   C20   1.434457 A    
O9    Cr3   1.972818 S    
C17   C25   1.426733 A    
O10   Cr4   1.987373 S    
C64   C70   1.411448 A    
C25   C29   1.378460 A    
O2    C1    1.263971 A    
C63   C69   1.389153 A    
O5    C4    1.296041 A    
O12   Cr6   1.966115 S    
O13   Cr1   2.099650 S    
C49   C61   1.414153 A    
C69   H15   1.080736 S    
O43   H23   0.992245 S    
C34   C40   1.396577 A    
O4    Cr4   2.079387 S    
O21   Cr3   1.958710 S    
N4    O33   1.302993 A    
N2    O30   1.297306 A    
O44   H24   0.991957 S    
C37   C41   1.398980 A    
O1    C3    1.269984 A    
C32   C38   1.408540 A    
C21   C33   1.406830 A    
H11   C59   1.077662 S    
O1    Cr1   2.082951 S    
H10   C58   1.084124 S    
C15   C21   1.428959 A    
C69   C72   1.388436 A    
O4    C6    1.303292 A    
C52   C64   1.424902 A    
O3    Cr3   2.077994 S    
Cr6   O26   2.040198 S    
C3    C16   1.462225 S    
C4    C15   1.448306 S    
C46   C56   1.404475 A    
C63   O47   1.382015 S    
C20   C22   1.406998 A    
O49   H29   0.992252 S    
C26   C28   1.382867 A    
C12   C43   1.477992 S    
C32   H2    1.078045 S    
C34   H4    1.083227 S    
O15   C8    1.293108 A    
C44   C50   1.394057 A    
O18   C11   1.304669 A    
C33   H3    1.073361 S    
C31   C37   1.404021 A    
N1    O27   1.296022 A    
C35   H5    1.083268 S    
C5    C14   1.459048 S    
C20   C32   1.413444 A    
O20   Cr2   1.984134 S    
Cr3   O25   2.040148 S    
H7    C55   1.081858 S    
C33   C39   1.403688 A    
C38   C40   1.397006 A    
C47   C53   1.407098 A    
C45   C51   1.404583 A    
C25   N1    1.423665 S    
C53   C65   1.409729 A    
C11   C44   1.463735 S    
O2    Cr2   2.106375 S    
C23   C35   1.406238 A    
O48   H28   0.994576 S    
O15   Cr3   2.093955 S    
Cr4   O26   2.021373 S    
C66   O50   1.382235 S    
O17   C10   1.286695 A    
O16   Cr4   2.105310 S    
C56   C58   1.389580 A    
O7    Cr1   1.982675 S    
C19   C31   1.415422 A    
C30   N6    1.442719 S    
C50   C52   1.409864 A    
O3    C2    1.262691 A    
C51   C63   1.423027 A    
C48   C57   1.395137 A    
C35   C41   1.395956 A    
N4    O34   1.303232 A    
C39   O41   1.374712 S    
C26   N2    1.410856 S    
C57   C60   1.389477 A    
O39   H19   0.991497 S    
C45   C60   1.408964 A    
O13   C9    1.284209 A    
Cr5   O26   2.022736 S    
C43   C59   1.410741 A    
Cr1   O25   2.023252 S    
C14   C28   1.394778 A    
C6    C13   1.454627 S    
C66   C72   1.382721 A    
C29   N5    1.442909 S    
N3    O31   1.299244 A    
C72   H18   1.060562 S    
C21   C24   1.414840 A    
N5    O36   1.304023 A    
O6    C5    1.308954 A    
O5    Cr5   2.103624 S    
C27   N3    1.391620 S    
C27   C30   1.378697 A    
O8    C2    1.316324 A    
H9    C57   1.078363 S    
C41   O43   1.380420 S    
H8    C56   1.081993 S    
O19   C7    1.301998 A    
C17   C23   1.395578 A    
O11   C5    1.270384 A    
C39   C42   1.406377 A    
C44   C58   1.403883 A    
C16   C26   1.412968 A    
C46   C52   1.435758 A    
N6    O38   1.295950 A    
C40   O42   1.378382 S    
O16   C12   1.290503 A    
O23   C11   1.282736 A    
O17   Cr5   2.087859 S    
O24   C12   1.297040 A    
C67   H13   1.077760 S    
C24   C36   1.399297 A    
O9    C3    1.305776 A    
C10   C45   1.463289 S    
Cr2   O25   2.020907 S    
C65   O49   1.381988 S    
C9    C46   1.475906 S    
C68   H14   1.084340 S    
C31   H1    1.074452 S    
C43   C49   1.410860 A    
C13   C29   1.392810 A    
O11   Cr5   1.968972 S    
C19   C23   1.410072 A    
C61   C67   1.404223 A    
C42   O44   1.380118 S    
C18   C24   1.391822 A    
O50   H30   0.991967 S    
C50   C62   1.416972 A    
N6    O37   1.299214 A    
C65   C71   1.380704 A    
O22   C10   1.282992 A    
C1    C18   1.474882 S    
C8    C47   1.481380 S    
O7    C1    1.306057 A    
C67   C71   1.396924 A    
C62   O46   1.382051 S    
O6    Cr6   2.084341 S    
O12   C6    1.274920 A    
O46   H26   0.992104 S    
C13   C19   1.434212 A    
O23   Cr5   1.980615 S    
O24   Cr6   1.965032 S    
O10   C4    1.261740 A    
C47   C55   1.399840 A    
O45   H25   0.993036 S    
C22   C34   1.404688 A    
C37   O39   1.377661 S    
C70   H16   1.060347 S    
O19   Cr1   1.963162 S    
N3    O32   1.296246 A    
O14   C7    1.274041 A    
