data_mof_unit_63548.cif
_audit_creation_date              2012-12-10T20:49:59-0500
_audit_creation_method            fapswitch 2.2
_symmetry_space_group_name_H-M    P1
_symmetry_Int_Tables_number       1
_space_group_crystal_system       triclinic
_cell_length_a                    19.200255
_cell_length_b                    19.206137
_cell_length_c                    19.21124
_cell_angle_alpha                 94.979144
_cell_angle_beta                  89.838705
_cell_angle_gamma                 85.732831
_cell_volume                      7037.78441529

loop_
_atom_site_label
_atom_site_type_symbol
_atom_type_description
_atom_site_fract_x
_atom_site_fract_y
_atom_site_fract_z
_atom_type_partial_charge
C1    C     C_R   0.492850 0.492349 0.310733 0.792842
C2    C     C_R   0.129793 0.488395 0.575635 -0.191939
C3    C     C_R   0.507109 0.512535 0.766179 -0.038010
C4    C     C_R   0.507013 0.507511 0.689402 0.811151
C5    C     C_R   0.475498 0.462302 0.801730 -0.222742
C6    C     C_R   0.473327 0.467729 0.874356 -0.209937
C7    C     C_R   0.502729 0.523869 0.913100 0.281413
C8    C     C_R   0.533481 0.574745 0.877507 0.157427
C9    C     C_R   0.536277 0.568632 0.804511 -0.242123
C10   C     C_R   0.466139 0.542226 0.126561 -0.151186
C11   C     C_R   0.464365 0.545620 0.199409 -0.225716
C12   C     C_R   0.911454 0.495395 0.476496 0.319856
C13   C     C_R   0.494050 0.480826 0.087593 0.321143
C14   C     C_R   0.491117 0.488258 0.234131 0.001482
C15   C     C_R   0.517846 0.426868 0.195075 -0.210859
C16   C     C_R   0.492850 0.689845 0.508235 0.793341
C17   C     C_R   0.518378 0.423039 0.122382 -0.192102
C18   C     C_R   0.507260 0.233220 0.487026 -0.000988
C19   C     C_R   0.475605 0.200444 0.540040 -0.222806
C20   C     C_R   0.473530 0.127953 0.535030 -0.167333
C21   C     C_R   0.503091 0.086716 0.476513 0.321091
C22   C     C_R   0.533798 0.119545 0.423224 -0.191857
C23   C     C_R   0.874520 0.460306 0.423308 -0.191227
C24   C     C_R   0.536595 0.192249 0.428627 -0.213471
C25   C     C_R   0.466493 0.876255 0.460457 -0.164623
C26   C     C_R   0.464728 0.803538 0.457181 -0.223361
C27   C     C_R   0.493979 0.912878 0.519692 0.318797
C28   C     C_R   0.507028 0.310007 0.491891 0.795949
C29   C     C_R   0.491071 0.766590 0.512463 0.000896
C30   C     C_R   0.517369 0.803415 0.571788 -0.206240
C31   C     C_R   0.517874 0.876073 0.575594 -0.189728
C32   C     C_R   0.310814 0.507834 0.508215 0.792505
C33   C     C_R   0.689384 0.492363 0.491919 0.799188
C34   C     C_R   0.802237 0.457838 0.428731 -0.209977
C35   C     C_R   0.765785 0.491856 0.487047 -0.004094
C36   C     C_R   0.802645 0.527886 0.539950 -0.219572
C37   C     C_R   0.874743 0.529671 0.534917 -0.165552
C38   C     C_R   0.120657 0.530809 0.460511 -0.165693
C39   C     C_R   0.193141 0.532192 0.457210 -0.224640
C40   C     C_R   0.088639 0.507984 0.519744 0.320508
C41   C     C_R   0.234391 0.510077 0.512466 0.002645
C42   C     C_R   0.202174 0.488478 0.571804 -0.209355
H1    H     H_    0.216962 0.549252 0.411056 0.164546
H2    H     H_    0.556144 0.088574 0.377682 0.145657
H3    H     H_    0.089764 0.547853 0.417204 0.152269
H4    H     H_    0.560678 0.216431 0.386705 0.164515
H5    H     H_    0.537298 0.776049 0.615413 0.167389
H6    H     H_    0.448139 0.104344 0.576533 0.152381
H7    H     H_    0.538153 0.903799 0.621781 0.147721
H8    H     H_    0.452272 0.230843 0.585457 0.166704
H9    H     H_    0.901980 0.434289 0.377844 0.145658
H10   H     H_    0.774816 0.430300 0.386896 0.167106
H11   H     H_    0.232944 0.471902 0.615414 0.164621
H12   H     H_    0.445481 0.587203 0.100817 0.160671
H13   H     H_    0.901562 0.558476 0.576330 0.154072
H14   H     H_    0.105644 0.471750 0.621816 0.145696
H15   H     H_    0.775752 0.554872 0.585292 0.170810
H16   H     H_    0.443336 0.593409 0.228546 0.164361
H17   H     H_    0.560244 0.608326 0.777904 0.185317
H18   H     H_    0.538117 0.381668 0.220744 0.162891
H19   H     H_    0.447905 0.428408 0.900145 0.162970
H20   H     H_    0.539041 0.375271 0.092952 0.145604
H21   H     H_    0.452255 0.418738 0.773401 0.172043
H22   H     H_    0.444027 0.776138 0.411027 0.163728
H23   H     H_    0.446113 0.903763 0.417134 0.152210
I1    I     I_    0.577386 0.661109 0.932428 -0.363276
N1    N     N_2   0.984926 0.496333 0.469139 -0.200271
N2    N     N_2   0.015362 0.505948 0.526041 -0.202495
N3    N     N_2   0.500716 0.531101 0.987283 -0.162940
N4    N     N_2   0.496875 0.474385 0.013618 -0.200684
N5    N     N_2   0.501592 0.012676 0.469125 -0.199845
N6    N     N_2   0.496544 0.986637 0.526015 -0.202531
O1    O     O_3   0.500000 0.500000 0.500000 -0.473816
O2    O     O_R   0.340900 0.545940 0.467290 -0.641393
O3    O     O_R   0.655960 0.450920 0.450930 -0.643925
O4    O     O_R   0.347180 0.467040 0.545670 -0.645410
O5    O     O_R   0.655970 0.536100 0.536110 -0.642977
O6    O     O_R   0.536480 0.656330 0.545680 -0.644590
O7    O     O_R   0.545300 0.340270 0.450920 -0.646053
O8    O     O_R   0.451550 0.536740 0.347440 -0.643930
O9    O     O_R   0.466670 0.466660 0.655960 -0.648033
O10   O     O_R   0.536460 0.451300 0.340640 -0.646937
O11   O     O_R   0.545320 0.545300 0.655970 -0.644519
O12   O     O_R   0.451560 0.656600 0.467300 -0.642311
O13   O     O_R   0.466660 0.346810 0.536100 -0.645350
Zn1   Zn    Zn3+2 0.558430 0.558420 0.558430 0.975693
Zn2   Zn    Zn3+2 0.437090 0.558800 0.446440 0.971997
Zn3   Zn    Zn3+2 0.446060 0.446060 0.558420 0.968669
Zn4   Zn    Zn3+2 0.558420 0.436720 0.436720 0.970881

loop_
_geom_bond_atom_site_label_1
_geom_bond_atom_site_label_2
_ccdc_geom_bond_type
C8    I1    S    
C41   C42   A    
C35   C36   A    
O12   Zn2   S    
C7    C8    A    
C39   C41   A    
C12   C23   A    
O10   Zn4   S    
C21   N5    S    
C18   C24   A    
C6    H19   S    
C36   C37   A    
C18   C19   A    
O8    Zn2   S    
C42   H11   S    
C32   O2    A    
C38   C39   A    
C11   C14   A    
C13   N4    S    
C16   O12   A    
C5    H21   S    
C34   C35   A    
C15   H18   S    
C12   C37   A    
C28   O7    A    
C26   H22   S    
O1    Zn2   S    
C38   H3    S    
C33   O3    A    
C22   H2    S    
C4    O9    A    
C19   C20   A    
C8    C9    A    
C32   C41   S    
O2    Zn2   S    
C11   H16   S    
O4    Zn3   S    
O6    Zn1   S    
C21   C22   A    
C31   H7    S    
C12   N1    S    
C27   C31   A    
N1    N2    D    
C30   H5    S    
C25   H23   S    
C36   H15   S    
C39   H1    S    
C1    O10   A    
C9    H17   S    
O1    Zn3   S    
C7    N3    S    
C29   C30   A    
C3    C9    A    
C17   H20   S    
C23   H9    S    
C30   C31   A    
C23   C34   A    
C18   C28   S    
C20   H6    S    
O5    Zn1   S    
C22   C24   A    
C3    C4    S    
O13   Zn3   S    
C15   C17   A    
C3    C5    A    
C10   C13   A    
C32   O4    A    
C6    C7    A    
C25   C27   A    
C34   H10   S    
C13   C17   A    
C24   H4    S    
C25   C26   A    
O1    Zn4   S    
N5    N6    D    
C2    H14   S    
C38   C40   A    
C19   H8    S    
C33   O5    A    
C5    C6    A    
C4    O11   A    
C2    C42   A    
C33   C35   S    
C16   O6    A    
N3    N4    D    
C10   H12   S    
O1    Zn1   S    
O7    Zn4   S    
O9    Zn3   S    
C10   C11   A    
O3    Zn4   S    
C37   H13   S    
C2    C40   A    
O11   Zn1   S    
C20   C21   A    
C16   C29   S    
C26   C29   A    
C40   N2    S    
C28   O13   A    
C1    O8    A    
C14   C15   A    
C1    C14   S    
C27   N6    S    
