data_mof_unit_13459.cif
_audit_creation_date              2012-10-26T20:33:42-0400
_audit_creation_method            fapswitch 2.2
_symmetry_space_group_name_H-M    P1
_symmetry_Int_Tables_number       1
_space_group_crystal_system       triclinic
_cell_length_a                    10.753212
_cell_length_b                    9.083157
_cell_length_c                    7.787454
_cell_angle_alpha                 89.999947
_cell_angle_beta                  89.993968
_cell_angle_gamma                 90.001301
_cell_volume                      760.624868947

loop_
_atom_site_label
_atom_site_type_symbol
_atom_type_description
_atom_site_fract_x
_atom_site_fract_y
_atom_site_fract_z
_atom_type_partial_charge
C1    C     C_R   0.499999 0.220057 0.500000 0.592625
C2    C     C_1   0.500005 0.934630 0.500000 -0.001950
C3    C     C_3   0.071567 0.639975 0.499692 -0.305902
C4    C     C_3   0.928433 0.639973 0.500250 -0.305903
C5    C     C_3   0.122270 0.479822 0.500036 -0.005603
C6    C     C_3   0.877727 0.479817 0.499966 -0.005605
C7    C     C_R   0.259782 0.489841 0.500012 0.565219
C8    C     C_R   0.740218 0.489841 0.499988 0.565210
C9    C     C_R   0.500001 0.779956 0.500000 0.551405
C10   C     C_1   0.500004 0.065416 0.500000 0.022063
C11   C     C_3   0.072336 0.402195 0.666265 0.013006
C12   C     C_3   0.072438 0.401653 0.334125 0.012867
C13   C     C_3   0.927558 0.401695 0.665906 0.012864
C14   C     C_3   0.927659 0.402145 0.333770 0.013009
Cu1   Cu    Cu3+1 0.500000 0.500010 0.669080 1.080973
Cu2   Cu    Cu3+1 0.500000 0.500010 0.330920 1.080968
H1    H     H_    0.100823 0.471862 0.777316 0.123531
H2    H     H_    0.101577 0.470384 0.222598 0.124069
H3    H     H_    0.898419 0.470450 0.777409 0.124060
H4    H     H_    0.899172 0.471777 0.222692 0.123545
H5    H     H_    0.106041 0.701031 0.614222 0.156697
H6    H     H_    0.105608 0.700422 0.384470 0.156581
H7    H     H_    0.894390 0.700447 0.615450 0.156580
H8    H     H_    0.893957 0.700992 0.385696 0.156698
I1    I     I_    0.164289 0.197099 0.735193 -0.230177
I2    I     I_    0.163575 0.195378 0.268086 -0.230525
I3    I     I_    0.836418 0.195433 0.732029 -0.230508
I4    I     I_    0.835703 0.197022 0.264919 -0.230194
N1    N     N_1   0.500000 0.499970 0.076820 -0.064957
N2    N     N_1   0.500000 0.499970 0.923180 -0.064955
O1    O     O_R   0.500000 0.288400 0.642760 -0.475582
O2    O     O_R   0.500000 0.288400 0.357240 -0.475583
O3    O     O_R   0.317700 0.499990 0.642790 -0.501794
O4    O     O_R   0.317700 0.499990 0.357210 -0.502154
O5    O     O_R   0.682300 0.499990 0.642790 -0.502149
O6    O     O_R   0.682300 0.499990 0.357210 -0.501802
O7    O     O_R   0.500000 0.711620 0.642810 -0.498314
O8    O     O_R   0.500000 0.711620 0.357190 -0.498312

loop_
_geom_bond_atom_site_label_1
_geom_bond_atom_site_label_2
_ccdc_geom_bond_type
Cu1   O1    S    
N1    N2    T    
C6    C14   S    
C11   C13   S    
Cu2   O4    S    
C9    O7    A    
Cu2   O6    S    
C6    C13   S    
C7    O3    A    
C5    C12   S    
Cu1   O5    S    
C9    O8    A    
C12   C14   S    
C5    C11   S    
C12   I2    S    
C4    H8    S    
C7    O4    A    
C3    H5    S    
Cu2   O2    S    
C13   H3    S    
C3    C4    S    
C2    C10   T    
C14   H4    S    
C1    O1    A    
Cu1   N2    S    
C4    C6    S    
C8    O6    A    
C12   H2    S    
C5    C7    S    
C4    H7    S    
C11   I1    S    
Cu1   O7    S    
C3    H6    S    
C6    C8    S    
C14   I4    S    
Cu2   N1    S    
C2    C9    S    
Cu1   O3    S    
C1    O2    A    
C13   I3    S    
C1    C10   S    
Cu1   Cu2   S    
Cu2   O8    S    
C3    C5    S    
C8    O5    A    
C11   H1    S    
