data_mof_unit_41064.cif
_audit_creation_date              2012-12-11T14:03:34-0500
_audit_creation_method            fapswitch 2.2
_symmetry_space_group_name_H-M    P1
_symmetry_Int_Tables_number       1
_space_group_crystal_system       triclinic
_cell_length_a                    6.953652
_cell_length_b                    11.502363
_cell_length_c                    18.628769
_cell_angle_alpha                 89.999932
_cell_angle_beta                  92.677135
_cell_angle_gamma                 89.999427
_cell_volume                      1488.36664467

loop_
_atom_site_label
_atom_site_type_symbol
_atom_type_description
_atom_site_fract_x
_atom_site_fract_y
_atom_site_fract_z
_atom_type_partial_charge
O1    O     O_R   0.330540 0.606360 0.598870 -0.503702
O2    O     O_R   0.669460 0.106360 0.401130 -0.503699
O3    O     O_R   0.026770 0.620470 0.750430 -0.545192
O4    O     O_R   0.973230 0.120470 0.249570 -0.545184
O5    O     O_R   0.856460 0.393640 0.750930 -0.536272
O6    O     O_R   0.143540 0.893640 0.249070 -0.536304
C1    C     C_R   0.199301 0.646589 0.775553 0.674417
C2    C     C_R   0.800697 0.146576 0.224439 0.674411
O7    O     O_R   0.000920 0.620350 0.599420 -0.530655
O8    O     O_R   0.999080 0.120350 0.400580 -0.530654
O9    O     O_R   0.830430 0.393520 0.598850 -0.555808
O10   O     O_R   0.169570 0.893520 0.401150 -0.555807
C3    C     C_R   0.167567 0.646798 0.574108 0.827638
C4    C     C_R   0.832433 0.146798 0.425892 0.827658
O11   O     O_R   0.356570 0.606480 0.750960 -0.553218
O12   O     O_R   0.643430 0.106480 0.249040 -0.553223
O13   O     O_3   0.176990 0.425580 0.674890 -0.374362
O14   O     O_3   0.823010 0.925580 0.325110 -0.374378
V1    V     V_3+5 0.902170 0.513810 0.674910 1.535346
V2    V     V_3+5 0.097830 0.013810 0.325090 1.535314
O15   O     O_R   0.500800 0.379530 0.599380 -0.510820
O16   O     O_R   0.499200 0.879530 0.400620 -0.510821
C5    C     C_R   0.666639 0.350706 0.575567 0.754183
C6    C     C_R   0.333362 0.850707 0.424434 0.754198
O17   O     O_R   0.526650 0.379650 0.750390 -0.552858
O18   O     O_R   0.473350 0.879650 0.249610 -0.552844
C7    C     C_R   0.697009 0.351547 0.774218 0.693033
C8    C     C_R   0.302994 0.851549 0.225781 0.693015
V3    V     V_3+5 0.402160 0.486190 0.674900 1.555584
V4    V     V_3+5 0.597840 0.986190 0.325100 1.555560
O19   O     O_3   0.677210 0.574420 0.674910 -0.361294
O20   O     O_3   0.322790 0.074420 0.325090 -0.361287
C9    C     C_R   0.671628 0.073350 0.879639 -0.032341
C10   C     C_R   0.328425 0.573357 0.120358 -0.032282
H1    H     H_    0.690215 0.119730 0.767562 0.171502
H2    H     H_    0.309959 0.619733 0.232438 0.171492
H3    H     H_    0.576766 0.959881 0.002314 0.163208
H4    H     H_    0.423139 0.459866 0.997684 0.163132
C11   C     C_R   0.703522 0.270185 0.834563 -0.060234
C12   C     C_R   0.296496 0.770186 0.165436 -0.060315
C13   C     C_R   0.821000 0.347322 0.181660 -0.155935
C14   C     C_R   0.179038 0.847340 0.818336 -0.156086
C15   C     C_R   0.821649 0.432301 0.128027 -0.037959
C16   C     C_R   0.178405 0.932312 0.871973 -0.038138
C17   C     C_R   0.805339 0.396810 0.054842 -0.067518
C18   C     C_R   0.194618 0.896802 0.945158 -0.067524
C19   C     C_R   0.741304 0.280670 0.036972 0.035872
C20   C     C_R   0.258637 0.780662 0.963025 0.035918
C21   C     C_R   0.724353 0.199710 0.094348 0.048915
C22   C     C_R   0.275591 0.699706 0.905649 0.048977
C23   C     C_R   0.704887 0.239051 0.964335 0.108872
C24   C     C_R   0.295065 0.739048 0.035662 0.108870
C25   C     C_R   0.670809 0.118345 0.951217 0.083980
C26   C     C_R   0.329167 0.618345 0.048781 0.083900
C27   C     C_R   0.628172 0.047711 0.009512 -0.042661
C28   C     C_R   0.371755 0.547702 0.990483 -0.042711
C29   C     C_R   0.657406 0.086739 0.079492 -0.146775
C30   C     C_R   0.342511 0.586728 0.920504 -0.146651
C31   C     C_R   0.695015 0.313279 0.904039 -0.159567
C32   C     C_R   0.304929 0.813281 0.095957 -0.159549
C33   C     C_R   0.689425 0.151240 0.822390 -0.145077
C34   C     C_R   0.310688 0.651245 0.177611 -0.144918
C35   C     C_R   0.781177 0.231773 0.165459 -0.110278
C36   C     C_R   0.218808 0.731784 0.834535 -0.110219
H5    H     H_    0.673996 0.405515 0.909156 0.098854
H6    H     H_    0.325891 0.905520 0.090838 0.098861
H7    H     H_    0.849334 0.371192 0.237481 0.159380
H8    H     H_    0.150752 0.871227 0.762514 0.159403
H9    H     H_    0.632961 0.025259 0.122031 0.121201
H10   H     H_    0.366940 0.525245 0.877964 0.121169
C37   C     C_2   0.826369 0.233537 0.484387 -0.380406
C38   C     C_2   0.173631 0.733537 0.515612 -0.380403
H11   H     H_    0.959900 0.279066 0.498253 0.154867
H12   H     H_    0.040096 0.779059 0.501742 0.154874
C39   C     C_2   0.665241 0.259833 0.519793 0.197734
C40   C     C_2   0.334762 0.759837 0.480210 0.197734
Cl1   Cl    Cl    0.442129 0.186271 0.504829 -0.625750
Cl2   Cl    Cl    0.557884 0.686289 0.495183 -0.625766
C41   C     C_2   0.665898 0.946822 0.861343 0.732399
O21   O     O_2   0.721175 0.873368 0.904965 -0.550286
O22   O     O_R   0.606890 0.911969 0.791802 -0.659280
H13   H     H_    0.614067 0.824623 0.785021 0.304894
C42   C     C_2   0.334140 0.446830 0.138649 0.732401
O23   O     O_2   0.278608 0.373397 0.095052 -0.550285
O24   O     O_R   0.393408 0.411958 0.208159 -0.659292
H14   H     H_    0.386209 0.324613 0.214941 0.304893
C43   C     C_2   0.901256 0.468415 0.000910 0.754128
O25   O     O_2   0.029325 0.424423 0.967349 -0.550102
O26   O     O_R   0.834442 0.579537 0.982631 -0.630777
H15   H     H_    0.905305 0.615343 0.941796 0.311289
C44   C     C_2   0.098606 0.968380 0.999080 0.754076
O27   O     O_2   0.970540 0.924354 0.032625 -0.550104
O28   O     O_R   0.165334 0.079516 0.017373 -0.630768
H16   H     H_    0.094476 0.115278 0.058220 0.311261
C45   C     C_2   0.845053 0.555854 0.151678 0.765545
O29   O     O_2   0.915024 0.577571 0.211648 -0.565573
O30   O     O_R   0.774906 0.647234 0.108671 -0.627964
H17   H     H_    0.796404 0.726180 0.131927 0.319913
C46   C     C_2   0.155208 0.055883 0.848337 0.765612
O31   O     O_2   0.085428 0.077656 0.788349 -0.565508
O32   O     O_R   0.225419 0.147214 0.891382 -0.627989
H18   H     H_    0.204214 0.226172 0.868122 0.319891

loop_
_geom_bond_atom_site_label_1
_geom_bond_atom_site_label_2
_ccdc_geom_bond_type
V4    O20   S    
C43   O25   D    
O28   H16   S    
C21   C35   A    
C22   C36   A    
C4    C37   S    
C45   O29   D    
O4    C2    A    
V1    O19   S    
O30   H17   S    
C21   C29   A    
C19   C21   A    
O24   H14   S    
O9    V1    S    
O32   H18   S    
C12   C32   A    
C17   C43   S    
C40   Cl2   S    
O3    C1    A    
C16   C46   S    
C8    C12   S    
O12   V4    S    
C10   C34   A    
C12   C34   A    
O17   V3    S    
C17   C19   A    
O7    C3    A    
C24   C32   A    
C1    O11   A    
O5    C7    A    
O7    V1    S    
O6    C8    A    
C42   O23   D    
C7    C11   S    
C15   C45   S    
O3    V1    S    
O14   V4    S    
C38   C40   D    
C20   C22   A    
C32   H6    S    
C2    O12   A    
C14   H8    S    
C13   C15   A    
C14   C16   A    
H2    C34   S    
C24   C26   A    
C30   H10   S    
O11   V3    S    
C18   C20   A    
C25   C27   A    
C9    C25   A    
C11   C33   A    
C26   C28   A    
C22   C30   A    
C13   H7    S    
O8    C4    A    
O8    V2    S    
C44   O27   D    
C41   O22   S    
C9    C41   S    
C19   C23   A    
C18   C44   S    
C16   C18   A    
O15   V3    S    
O22   H13   S    
C23   C25   A    
H3    C27   S    
O1    C3    A    
C44   O28   S    
C39   Cl1   S    
C46   O31   D    
C11   C31   A    
O10   V2    S    
O1    V3    S    
H1    C33   S    
C15   C17   A    
C38   H12   S    
C42   O24   S    
C10   C26   A    
O15   C5    A    
O16   C6    A    
C23   C31   A    
C10   C42   S    
C13   C35   A    
C14   C36   A    
C37   H11   S    
V2    O20   S    
O16   V4    S    
C46   O32   S    
C6    C40   S    
C5    C39   S    
C45   O30   S    
O18   V4    S    
O5    V1    S    
C3    C38   S    
O17   C7    A    
O6    V2    S    
O10   C6    A    
O18   C8    A    
O2    V4    S    
C27   C29   A    
V3    O19   S    
O13   V3    S    
C31   H5    S    
C37   C39   D    
O9    C5    A    
O13   V1    S    
C28   C30   A    
O14   V2    S    
O2    C4    A    
C1    C36   S    
C2    C35   S    
C41   O21   D    
O4    V2    S    
C20   C24   A    
H4    C28   S    
C9    C33   A    
C43   O26   S    
C29   H9    S    
O26   H15   S    
