data_mof_unit_64351.cif
_audit_creation_date              2012-12-10T21:34:08-0500
_audit_creation_method            fapswitch 2.2
_symmetry_space_group_name_H-M    P1
_symmetry_Int_Tables_number       1
_space_group_crystal_system       triclinic
_cell_length_a                    13.628098
_cell_length_b                    16.21461
_cell_length_c                    16.804389
_cell_angle_alpha                 86.0056
_cell_angle_beta                  89.333297
_cell_angle_gamma                 95.08973
_cell_volume                      3689.11847542

loop_
_atom_site_label
_atom_site_type_symbol
_atom_type_description
_atom_site_fract_x
_atom_site_fract_y
_atom_site_fract_z
_atom_type_partial_charge
C1    C     C_R   0.499904 0.512223 0.347583 1.033279
C2    C     C_R   0.500096 0.487777 0.652417 1.033278
C3    C     C_R   0.587304 0.572956 0.138307 0.288369
C4    C     C_R   0.412704 0.427042 0.861695 0.288367
C5    C     C_R   0.583535 0.567235 0.222368 0.344723
C6    C     C_R   0.416471 0.432763 0.777633 0.344720
C7    C     C_R   0.451441 0.231281 0.540684 0.365703
C8    C     C_R   0.548558 0.768719 0.459315 0.365702
C9    C     C_R   0.457190 0.144610 0.544358 0.191386
C10   C     C_R   0.542810 0.855390 0.455641 0.191387
C11   C     C_R   0.524310 0.110883 0.493717 0.106863
C12   C     C_R   0.475690 0.889116 0.506283 0.106862
C13   C     C_R   0.585691 0.165389 0.442306 0.289985
C14   C     C_R   0.414309 0.834611 0.557695 0.289986
C15   C     C_R   0.577800 0.252578 0.440976 0.313710
C16   C     C_R   0.422200 0.747422 0.559025 0.313711
C17   C     C_R   0.684862 0.515144 0.500632 0.935303
C18   C     C_R   0.315138 0.484856 0.499368 0.935300
C19   C     C_1   0.211971 0.472958 0.498032 -0.017490
C20   C     C_1   0.788029 0.527042 0.501968 -0.017489
C21   C     C_2   0.020742 0.464573 0.496075 0.282473
C22   C     C_2   0.979258 0.535427 0.503925 0.282473
C23   C     C_1   0.875466 0.534040 0.503090 0.110713
C24   C     C_1   0.124534 0.465960 0.496909 0.110713
C25   C     C_R   0.501649 0.522816 0.261813 -0.220971
C26   C     C_R   0.498354 0.477185 0.738187 -0.220971
C27   C     C_R   0.422921 0.486974 0.219606 0.288262
C28   C     C_R   0.577080 0.513030 0.780392 0.288262
C29   C     C_R   0.427371 0.492676 0.137271 -0.195274
C30   C     C_R   0.572631 0.507331 0.862728 -0.195277
C31   C     C_R   0.510845 0.532905 0.096480 0.146398
C32   C     C_R   0.489161 0.467098 0.903520 0.146400
H1    H     H_    0.633602 0.535688 0.895025 0.244631
H2    H     H_    0.366399 0.464322 0.104972 0.244630
N1    N     N_2   0.520924 0.531807 0.013150 -0.081987
N2    N     N_2   0.479082 0.468197 0.986850 -0.081985
N3    N     N_R   0.511670 0.283920 0.490320 -0.195665
N4    N     N_R   0.488330 0.716080 0.509680 -0.195664
N5    N     N_2   0.538651 0.023950 0.496784 0.005157
N6    N     N_2   0.461349 0.976050 0.503216 0.005158
O1    O     O_R   0.495820 0.577170 0.387320 -0.575763
O2    O     O_R   0.504180 0.422830 0.612680 -0.575761
O3    O     O_R   0.503320 0.438390 0.381110 -0.559809
O4    O     O_R   0.496680 0.561610 0.618890 -0.559809
O5    O     O_R   0.636060 0.579370 0.503570 -0.565166
O6    O     O_R   0.363940 0.420630 0.496430 -0.565167
O7    O     O_R   0.643560 0.440600 0.497360 -0.575708
O8    O     O_R   0.356440 0.559400 0.502640 -0.575706
Zn1   Zn    Zn3+2 0.495000 0.592660 0.504150 1.118205
Zn2   Zn    Zn3+2 0.505000 0.407340 0.495850 1.118205
Cl1   Cl    Cl    0.048082 0.631238 0.515752 -0.450215
Cl2   Cl    Cl    0.951918 0.368762 0.484248 -0.450216
Cl3   Cl    Cl    0.682339 0.565624 0.731759 -0.499224
Cl4   Cl    Cl    0.317659 0.434384 0.268238 -0.499223
Cl5   Cl    Cl    0.689075 0.624989 0.083801 -0.458295
Cl6   Cl    Cl    0.310938 0.375004 0.916203 -0.458296
O9    O     O_3   0.659084 0.600323 0.268029 -0.676295
H3    H     H_    0.710806 0.631475 0.233508 0.410530
O10   O     O_3   0.340924 0.399671 0.731974 -0.676293
H4    H     H_    0.289202 0.368521 0.766495 0.410529
Cl7   Cl    Cl    0.633584 0.728230 0.396643 -0.381572
Cl8   Cl    Cl    0.366416 0.271770 0.603356 -0.381568
Cl9   Cl    Cl    0.614208 0.919131 0.382802 -0.339642
Cl10  Cl    Cl    0.385791 0.080869 0.617197 -0.339642
O11   O     O_3   0.652155 0.130494 0.394820 -0.617397
H5    H     H_    0.692396 0.174004 0.361949 0.405095
O12   O     O_3   0.347846 0.869506 0.605181 -0.617397
H6    H     H_    0.307607 0.825996 0.638053 0.405095
Cl11  Cl    Cl    0.653660 0.321619 0.376146 -0.470313
Cl12  Cl    Cl    0.346340 0.678381 0.623854 -0.470316

loop_
_geom_bond_atom_site_label_1
_geom_bond_atom_site_label_2
_ccdc_geom_bond_type
O4    Zn1   S    
C12   N6    S    
C1    C25   S    
C28   Cl3   S    
C29   H2    S    
C7    Cl8   S    
C14   C16   A    
O5    Zn1   S    
C25   C27   A    
C9    Cl10  S    
C11   C13   A    
O6    Zn2   S    
C26   C28   A    
N1    N2    D    
C20   C23   T    
C5    O9    S    
C8    Cl7   S    
C14   O12   S    
C28   C30   A    
C19   C24   T    
C7    N3    A    
C27   Cl4   S    
O10   H4    S    
C2    C26   S    
N4    Zn1   S    
C6    C26   A    
C21   C22   D    
C4    Cl6   S    
C3    C31   A    
C11   N5    S    
N3    Zn2   S    
C9    C11   A    
O9    H3    S    
C4    C32   A    
C8    N4    A    
C2    O2    A    
C5    C25   A    
C18   O6    A    
C1    O1    A    
O8    Zn1   S    
O2    Zn2   S    
C18   C19   S    
O7    Zn2   S    
C10   C12   A    
C13   C15   A    
C15   Cl11  S    
C31   N1    S    
C8    C10   A    
C27   C29   A    
O12   H6    S    
C30   C32   A    
O3    Zn2   S    
C32   N2    S    
C12   C14   A    
C17   C20   S    
C16   Cl12  S    
C2    O4    A    
C4    C6    A    
O11   H5    S    
C21   C24   S    
O1    Zn1   S    
N5    N6    D    
C7    C9    A    
C22   C23   S    
C15   N3    A    
C13   O11   S    
C30   H1    S    
C16   N4    A    
C29   C31   A    
C3    Cl5   S    
C6    O10   S    
C1    O3    A    
C21   Cl2   S    
C10   Cl9   S    
C17   O7    A    
C17   O5    A    
C22   Cl1   S    
C3    C5    A    
C18   O8    A    
