data_mof_unit_5489.cif
_audit_creation_date              2013-03-05T15:41:28-0500
_audit_creation_method            fapswitch 2.2
_symmetry_space_group_name_H-M    P1
_symmetry_Int_Tables_number       1
_space_group_crystal_system       triclinic
_cell_length_a                    17.015976
_cell_length_b                    7.246242
_cell_length_c                    16.955424
_cell_angle_alpha                 89.134154
_cell_angle_beta                  99.3889
_cell_angle_gamma                 90.97514
_cell_volume                      2062.16908977

loop_
_atom_site_label
_atom_site_type_symbol
_atom_site_description
_atom_site_fract_x
_atom_site_fract_y
_atom_site_fract_z
_atom_type_partial_charge
O1    O     O_R   0.414560 0.494370 0.416770 -0.549780
O2    O     O_R   0.585440 0.994370 0.583230 -0.564607
O3    O     O_R   0.578370 0.819590 0.429320 -0.548242
O4    O     O_R   0.421630 0.319590 0.570680 -0.535283
C1    C     C_R   0.604052 0.657921 0.412822 0.863061
C2    C     C_R   0.396427 0.153481 0.587247 0.867576
O5    O     O_R   0.414740 0.823790 0.407360 -0.561909
O6    O     O_R   0.585260 0.323790 0.592640 -0.551044
O7    O     O_R   0.420650 0.998510 0.561120 -0.559652
O8    O     O_R   0.579350 0.498510 0.438880 -0.529666
C3    C     C_R   0.388360 0.654590 0.384798 0.847362
C4    C     C_R   0.612043 0.154880 0.614583 0.852732
O9    O     O_3   0.502130 0.662240 0.550470 -0.277133
O10   O     O_3   0.497870 0.162240 0.449530 -0.257477
V1    V     V_3+5 0.499600 0.935390 0.490640 1.203324
V2    V     V_3+5 0.500400 0.435390 0.509360 1.223164
C5    C     C_2   0.789751 0.278283 0.781912 0.154216
C6    C     C_2   0.226288 0.773342 0.201771 0.128478
C7    C     C_2   0.820355 0.118373 0.816924 -0.124394
C8    C     C_2   0.179915 0.619595 0.182868 -0.141174
H1    H     H_    0.795285 0.986329 0.796000 0.033593
H2    H     H_    0.189248 0.496466 0.220056 0.041993
C9    C     C_2   0.720087 0.285053 0.715331 -0.100518
C10   C     C_2   0.288804 0.783897 0.275131 -0.101719
C11   C     C_2   0.679060 0.138195 0.681809 -0.174758
C12   C     C_2   0.323683 0.637316 0.315094 -0.192111
H3    H     H_    0.702408 0.421726 0.692595 0.103629
H4    H     H_    0.309363 0.920877 0.294865 0.110260
H5    H     H_    0.695191 0.999500 0.702051 0.076586
H6    H     H_    0.306708 0.498644 0.295221 0.093588
C13   C     C_R   0.334647 0.139147 0.639570 -0.164839
C14   C     C_R   0.665319 0.662098 0.359220 -0.188640
C15   C     C_R   0.170748 0.128421 0.867458 -0.169039
C16   C     C_R   0.829424 0.603857 0.133583 -0.168996
C17   C     C_R   0.308064 0.200944 0.852598 -0.042502
C18   C     C_R   0.718447 0.437132 0.178229 -0.044667
C19   C     C_R   0.249054 0.184449 0.901612 0.302046
C20   C     C_R   0.770931 0.460656 0.123040 0.319799
C21   C     C_R   0.154721 0.084427 0.785869 -0.147403
C22   C     C_R   0.830056 0.727617 0.196570 -0.119814
C23   C     C_R   0.214276 0.100555 0.736711 0.055188
C24   C     C_R   0.776021 0.706121 0.251432 0.048939
C25   C     C_R   0.292007 0.160957 0.770503 -0.078360
C26   C     C_R   0.720522 0.556252 0.243200 -0.082285
C27   C     C_R   0.352123 0.181156 0.721633 0.316299
C28   C     C_R   0.665866 0.532723 0.297857 0.312288
C29   C     C_R   0.258207 0.075524 0.607247 -0.166218
C30   C     C_R   0.720819 0.809212 0.366579 -0.115133
C31   C     C_R   0.197663 0.057417 0.654482 0.176992
C32   C     C_R   0.776244 0.831978 0.314148 0.191615
H7    H     H_    0.245468 0.041747 0.544349 0.068031
H8    H     H_    0.720855 0.908278 0.413845 0.097249
H9    H     H_    0.366961 0.247663 0.879457 0.184644
H10   H     H_    0.674269 0.327194 0.168294 0.183053
H11   H     H_    0.094938 0.039186 0.760903 0.092386
H12   H     H_    0.874549 0.837398 0.203835 0.117808
O11   O     O_R   0.920750 0.773600 0.061260 -0.541815
O12   O     O_R   0.079250 0.273600 0.938740 -0.526698
O13   O     O_R   0.085340 0.439850 0.092570 -0.533341
O14   O     O_R   0.914660 0.939850 0.907430 -0.566664
C33   C     C_R   0.113093 0.609118 0.114095 0.843790
C34   C     C_R   0.887993 0.109132 0.884899 0.860959
O15   O     O_R   0.921720 0.444130 0.070790 -0.540717
O16   O     O_R   0.078280 0.944130 0.929210 -0.564173
O17   O     O_R   0.914480 0.269530 0.916840 -0.508386
O18   O     O_R   0.085520 0.769530 0.083160 -0.547886
C35   C     C_R   0.894798 0.609541 0.084886 0.854345
C36   C     C_R   0.105147 0.114045 0.915399 0.857519
O19   O     O_3   0.997840 0.601520 0.949550 -0.284811
O20   O     O_3   0.002160 0.101520 0.050450 -0.279083
V3    V     V_3+5 0.000400 0.328340 0.009360 1.236614
V4    V     V_3+5 0.999600 0.828340 0.990640 1.188620
N1    N     N_3   0.825120 0.452924 0.807916 -0.436079
H13   H     H_    0.843923 0.519136 0.758888 0.144593
H14   H     H_    0.781104 0.533664 0.826042 0.225354
N2    N     N_3   0.215065 0.935125 0.150934 -0.432928
H15   H     H_    0.250294 0.045209 0.176467 0.211753
H16   H     H_    0.235740 0.904658 0.097875 0.227542
N3    N     N_R   0.431533 0.237211 0.755625 0.066629
O21   O     O_R   0.476504 0.126023 0.803501 -0.320517
O22   O     O_R   0.459708 0.397227 0.737147 -0.328045
N4    N     N_R   0.608753 0.383440 0.288684 0.088249
O23   O     O_R   0.533024 0.417073 0.270694 -0.327633
O24   O     O_R   0.632346 0.213803 0.299784 -0.361299
N5    N     N_3   0.119365 0.994792 0.619079 -0.500259
H17   H     H_    0.119111 0.951960 0.560418 0.170368
H18   H     H_    0.081681 0.108141 0.615463 0.161376
N6    N     N_3   0.831546 0.985488 0.323401 -0.482132
H19   H     H_    0.817621 0.077176 0.365947 0.181044
H20   H     H_    0.887753 0.933214 0.345942 0.147505
N7    N     N_R   0.271462 0.217584 0.986010 0.070349
O25   O     O_R   0.223082 0.295828 0.026713 -0.368026
O26   O     O_R   0.343782 0.184716 0.021281 -0.318092
N8    N     N_R   0.762388 0.340852 0.055194 0.100504
O27   O     O_R   0.766393 0.408323 0.984383 -0.345432
O28   O     O_R   0.740364 0.169265 0.062076 -0.331638

loop_
_geom_bond_atom_site_label_1
_geom_bond_atom_site_label_2
_geom_bond_distance
_ccdc_geom_bond_type
C17   H9    1.081944 S    
N1    H14   1.045553 S    
N1    H13   1.045524 S    
N6    H20   1.045453 S    
O1    C3    1.326755 A    
O2    C4    1.327616 A    
C2    O7    1.310538 A    
C29   C31   1.407621 A    
N5    H17   1.045707 S    
O5    C3    1.338087 A    
C15   C21   1.406063 A    
C6    C10   1.501000 S    
O16   C36   1.336738 A    
C7    H1    1.081826 S    
C10   C12   1.344641 D    
O12   V3    1.986936 S    
O14   V4    2.018021 S    
C7    C34   1.491637 S    
O14   C34   1.343410 A    
C8    C33   1.491823 S    
C28   N4    1.434841 S    
C33   O18   1.328993 A    
C21   H11   1.083450 S    
O18   V4    2.008150 S    
C22   H12   1.083157 S    
O20   V3    1.774244 S    
C9    H3    1.086594 S    
C17   C25   1.407680 A    
C32   N6    1.438392 S    
C1    C14   1.490306 S    
C30   C32   1.403844 A    
C2    C13   1.483501 S    
O6    V2    2.018142 S    
C13   C29   1.399773 A    
C5    N1    1.436121 S    
C23   C25   1.417729 A    
C24   C26   1.420341 A    
O11   C35   1.339477 A    
C23   C31   1.415287 A    
C26   C28   1.422625 A    
N5    H18   1.045535 S    
C11   H5    1.082326 S    
O15   C35   1.329177 A    
O13   C33   1.340983 A    
C19   N7    1.442230 S    
C31   N5    1.438060 S    
N2    H15   1.045263 S    
C21   C23   1.415598 A    
N7    O25   1.299442 A    
N3    O22   1.300610 A    
C29   H7    1.083931 S    
O5    V1    2.015546 S    
C3    C12   1.482928 S    
O17   V3    2.007650 S    
C15   C19   1.418643 A    
O4    V2    1.992906 S    
O19   V4    1.792709 S    
N7    O26   1.301653 A    
O6    C4    1.339446 A    
C20   N8    1.438546 S    
C27   N3    1.434327 S    
O1    V2    2.008374 S    
C5    C9    1.498579 S    
N8    O28   1.301541 A    
O2    V1    2.007889 S    
C25   C27   1.422038 A    
O15   V3    2.025072 S    
C24   C32   1.410810 A    
O4    C2    1.312685 A    
C8    H2    1.083513 S    
C12   H6    1.084109 S    
N4    O24   1.301055 A    
C16   C22   1.403493 A    
C18   C26   1.405305 A    
O3    V1    2.025083 S    
O12   C36   1.332521 A    
C6    N2    1.441234 S    
C34   O17   1.329996 A    
C17   C19   1.406547 A    
C16   C20   1.418360 A    
C14   C28   1.412233 A    
C10   H4    1.086091 S    
N2    H16   1.045833 S    
O3    C1    1.307223 A    
C16   C35   1.489290 S    
C4    C11   1.480110 S    
C18   C20   1.401764 A    
O7    V1    2.000813 S    
C1    O8    1.317133 A    
O8    V2    1.982013 S    
C14   C30   1.405408 A    
C22   C24   1.415891 A    
C5    C7    1.365707 D    
C6    C8    1.365613 D    
O16   V4    1.992893 S    
O11   V4    1.970524 S    
N8    O27   1.301157 A    
C18   H10   1.081874 S    
N3    O21   1.300844 A    
C30   H8    1.083893 S    
C9    C11   1.344016 D    
N6    H19   1.045747 S    
N4    O23   1.301212 A    
C13   C27   1.411341 A    
O9    V2    1.793078 S    
O10   V1    1.774589 S    
C15   C36   1.485644 S    
O13   V3    2.015395 S    
