data_mof_unit_34924.cif
_audit_creation_date              2012-12-11T14:06:05-0500
_audit_creation_method            fapswitch 2.2
_symmetry_space_group_name_H-M    P1
_symmetry_Int_Tables_number       1
_space_group_crystal_system       triclinic
_cell_length_a                    23.765317
_cell_length_b                    23.771868
_cell_length_c                    23.775247
_cell_angle_alpha                 89.926933
_cell_angle_beta                  89.949725
_cell_angle_gamma                 89.923534
_cell_volume                      13431.7021509

loop_
_atom_site_label
_atom_site_type_symbol
_atom_type_description
_atom_site_fract_x
_atom_site_fract_y
_atom_site_fract_z
_atom_type_partial_charge
C1    C     C_R   0.280717 0.719520 0.209561 -0.241278
C2    C     C_R   0.793292 0.719527 0.279098 -0.190666
C3    C     C_1   0.687631 0.830559 0.686973 0.152011
C4    C     C_1   0.827204 0.313881 0.315978 0.117146
C5    C     C_1   0.169504 0.687152 0.686578 0.137903
C6    C     C_1   0.684505 0.826591 0.314541 0.137487
C7    C     C_1   0.311417 0.170280 0.684287 0.164755
C8    C     C_1   0.166251 0.311197 0.688913 0.151856
C9    C     C_1   0.835054 0.688593 0.309712 0.113170
C10   C     C_1   0.313293 0.830048 0.687029 0.122382
C11   C     C_1   0.688924 0.166589 0.311660 0.149408
C12   C     C_1   0.830025 0.687040 0.686881 0.147305
C13   C     C_R   0.207131 0.279464 0.279016 -0.242656
C14   C     C_1   0.169274 0.312777 0.312173 0.154885
C15   C     C_1   0.686455 0.166559 0.690376 0.122727
C16   C     C_1   0.312560 0.830938 0.313359 0.122190
C17   C     C_1   0.312654 0.312223 0.169207 0.154502
C18   C     C_1   0.686433 0.686596 0.829153 0.151554
C19   C     C_1   0.311295 0.687814 0.833203 0.128932
C20   C     C_1   0.684237 0.311563 0.170554 0.165996
C21   C     C_1   0.688798 0.309739 0.835262 0.112212
C22   C     C_1   0.313828 0.686436 0.171586 0.148160
C23   C     C_1   0.690679 0.686787 0.165913 0.121496
C24   C     C_R   0.792327 0.720251 0.720155 -0.236977
C25   C     C_1   0.314114 0.316211 0.826673 0.117020
C26   C     C_R   0.366239 0.431673 0.091263 -0.116752
C27   C     C_R   0.633357 0.567833 0.907910 -0.126347
C28   C     C_R   0.567965 0.365914 0.090639 -0.105942
C29   C     C_R   0.430976 0.634374 0.910255 -0.124008
C30   C     C_R   0.634488 0.568398 0.089722 -0.129258
C31   C     C_R   0.366698 0.432591 0.907855 -0.124174
C32   C     C_R   0.432247 0.633328 0.092139 -0.128654
C33   C     C_R   0.569232 0.365286 0.911110 -0.145840
C34   C     C_R   0.365618 0.568967 0.910305 -0.130476
C35   C     C_R   0.207594 0.720150 0.280500 -0.218428
C36   C     C_R   0.633741 0.431021 0.090887 -0.129667
C37   C     C_R   0.567813 0.633387 0.907950 -0.126903
C38   C     C_R   0.431730 0.366237 0.091256 -0.119138
C39   C     C_R   0.634630 0.430543 0.910813 -0.120869
C40   C     C_R   0.366621 0.568019 0.092014 -0.113200
C41   C     C_R   0.432103 0.366858 0.907764 -0.141748
C42   C     C_R   0.569484 0.634278 0.089612 -0.119126
C43   C     C_R   0.091424 0.366316 0.431739 -0.117063
C44   C     C_R   0.908165 0.633501 0.567905 -0.128801
C45   C     C_R   0.090304 0.568678 0.365843 -0.108921
C46   C     C_R   0.786189 0.283504 0.716241 -0.222845
C47   C     C_R   0.908431 0.431913 0.633553 -0.121789
C48   C     C_R   0.091035 0.633801 0.568154 -0.123993
C49   C     C_R   0.908170 0.366584 0.432380 -0.123094
C50   C     C_R   0.090400 0.431307 0.634112 -0.124853
C51   C     C_R   0.911053 0.569189 0.365300 -0.146091
C52   C     C_R   0.908475 0.366465 0.568110 -0.127907
C53   C     C_R   0.090322 0.634076 0.431234 -0.127649
C54   C     C_R   0.908286 0.568087 0.633517 -0.125869
C55   C     C_R   0.091395 0.431843 0.366305 -0.118117
C56   C     C_R   0.910753 0.634600 0.430536 -0.121051
C57   C     C_R   0.209242 0.718670 0.718884 -0.215707
C58   C     C_R   0.090364 0.365855 0.568786 -0.113564
C59   C     C_R   0.907956 0.432032 0.366749 -0.142362
C60   C     C_R   0.091031 0.568373 0.633736 -0.125384
C61   C     C_R   0.431740 0.091395 0.366298 -0.116941
C62   C     C_R   0.568280 0.908543 0.633634 -0.124036
C63   C     C_R   0.365873 0.090593 0.567952 -0.107975
C64   C     C_R   0.633483 0.908258 0.431927 -0.120702
C65   C     C_R   0.568328 0.089919 0.634366 -0.129319
C66   C     C_R   0.431574 0.909128 0.366182 -0.123372
C67   C     C_R   0.634032 0.090644 0.431562 -0.126763
C68   C     C_R   0.787851 0.282272 0.283462 -0.243625
C69   C     C_R   0.366245 0.908874 0.568325 -0.122971
C70   C     C_R   0.567891 0.908249 0.366559 -0.127077
C71   C     C_R   0.430977 0.090807 0.633741 -0.130479
C72   C     C_R   0.633705 0.908549 0.568097 -0.124341
C73   C     C_R   0.366248 0.091312 0.431727 -0.119295
C74   C     C_R   0.431700 0.908821 0.633765 -0.127490
C75   C     C_R   0.568781 0.090508 0.365959 -0.113364
C76   C     C_R   0.366173 0.909051 0.431741 -0.132317
C77   C     C_R   0.634179 0.089912 0.569322 -0.118220
C78   C     C_3   0.179220 0.655126 0.161787 0.212761
C79   C     C_R   0.721405 0.205425 0.278953 -0.246217
C80   C     C_3   0.117203 0.666139 0.175738 -0.315937
C81   C     C_3   0.081638 0.670113 0.122488 -0.989866
C82   C     C_3   0.761005 0.403236 0.761926 0.207657
C83   C     C_3   0.799204 0.454156 0.770728 -0.291628
C84   C     C_3   0.777471 0.505916 0.739520 -0.962451
C85   C     C_3   0.345696 0.176641 0.162510 0.212086
C86   C     C_3   0.335355 0.115069 0.178749 -0.319668
C87   C     C_3   0.332613 0.077404 0.126909 -1.003992
C88   C     C_3   0.650585 0.836045 0.820725 0.195117
C89   C     C_3   0.657346 0.819864 0.882756 -0.319959
C90   C     C_R   0.281298 0.790571 0.719257 -0.230661
C91   C     C_3   0.658054 0.871774 0.920404 -0.984176
C92   C     C_3   0.747513 0.401923 0.264170 0.223307
C93   C     C_3   0.707818 0.443094 0.234374 -0.282079
C94   C     C_3   0.691693 0.492159 0.272475 -1.038576
C95   C     C_3   0.233427 0.597513 0.764729 0.211273
C96   C     C_3   0.194575 0.547409 0.775367 -0.296951
C97   C     C_3   0.215380 0.494513 0.745533 -0.966561
C98   C     C_3   0.596457 0.753853 0.236804 0.203225
C99   C     C_3   0.544163 0.765253 0.201132 -0.282378
C100  C     C_3   0.494014 0.730284 0.220710 -0.967819
C101  C     C_R   0.279054 0.207216 0.279379 -0.242351
C102  C     C_3   0.401940 0.264171 0.746942 0.223464
C103  C     C_3   0.443104 0.234271 0.707346 -0.282040
C104  C     C_3   0.492171 0.272336 0.691111 -1.038805
C105  C     C_3   0.179935 0.342966 0.841242 0.201758
C106  C     C_3   0.117698 0.330221 0.830511 -0.319289
C107  C     C_3   0.085278 0.324201 0.885616 -0.991696
C108  C     C_3   0.797105 0.605241 0.213511 0.208486
C109  C     C_3   0.853066 0.574626 0.204577 -0.254347
C110  C     C_3   0.849799 0.512917 0.221502 -1.041679
C111  C     C_3   0.402067 0.763408 0.768525 0.218019
C112  C     C_R   0.719748 0.279101 0.793547 -0.189046
C113  C     C_R   0.720531 0.792497 0.720177 -0.236758
C114  C     C_3   0.451652 0.774651 0.807845 -0.302544
C115  C     C_3   0.504575 0.743480 0.789012 -0.961779
C116  C     C_3   0.661998 0.157783 0.175212 0.212508
C117  C     C_3   0.675555 0.174530 0.114412 -0.321063
C118  C     C_3   0.684516 0.122872 0.077447 -0.984862
C119  C     C_3   0.820839 0.651070 0.836241 0.198114
C120  C     C_3   0.882941 0.658589 0.820607 -0.320436
C121  C     C_3   0.920163 0.659689 0.872834 -0.987983
C122  C     C_3   0.162420 0.345457 0.176274 0.212241
C123  C     C_3   0.178859 0.335061 0.114770 -0.320715
C124  C     C_R   0.280755 0.210562 0.716615 -0.214602
C125  C     C_3   0.127116 0.332174 0.076932 -1.003907
C126  C     C_3   0.605075 0.213933 0.796881 0.208253
C127  C     C_3   0.574405 0.204871 0.852761 -0.254131
C128  C     C_3   0.512722 0.221962 0.849491 -1.042289
C129  C     C_3   0.348912 0.836503 0.180855 0.203611
C130  C     C_3   0.341667 0.821540 0.118635 -0.319668
C131  C     C_3   0.339810 0.874253 0.081996 -0.991993
C132  C     C_3   0.157732 0.173833 0.663143 0.214940
C133  C     C_3   0.175332 0.113070 0.675887 -0.318807
C134  C     C_3   0.124218 0.075355 0.685004 -0.998593
C135  C     C_R   0.715980 0.786008 0.283350 -0.222366
C136  C     C_3   0.760491 0.759018 0.403226 0.205028
C137  C     C_3   0.769590 0.795781 0.455121 -0.286168
C138  C     C_3   0.738700 0.772567 0.506410 -0.966595
C139  C     C_3   0.231857 0.764061 0.402199 0.220330
C140  C     C_3   0.192628 0.774505 0.452117 -0.305224
C141  C     C_3   0.212176 0.743196 0.504674 -0.966143
C142  C     C_3   0.752786 0.239065 0.596495 0.199161
C143  C     C_3   0.764563 0.205107 0.543196 -0.272328
C144  C     C_3   0.730365 0.226748 0.493341 -0.978221
C145  C     C_3   0.841932 0.179593 0.342012 0.206062
C146  C     C_R   0.718312 0.207687 0.720650 -0.189485
C147  C     C_3   0.831068 0.117617 0.328215 -0.319740
C148  C     C_3   0.886135 0.085227 0.321448 -0.991413
C149  C     C_3   0.180061 0.836965 0.652890 0.209028
C150  C     C_3   0.117708 0.822245 0.659933 -0.315242
C151  C     C_3   0.081321 0.875107 0.662896 -1.003935
C152  C     C_3   0.839890 0.820277 0.653911 0.196654
C153  C     C_3   0.827086 0.882477 0.664911 -0.316455
C154  C     C_3   0.881059 0.916968 0.668586 -0.990684
C155  C     C_3   0.176135 0.162519 0.345138 0.212361
C156  C     C_3   0.114642 0.179071 0.334627 -0.320889
C157  C     C_R   0.280259 0.791641 0.281363 -0.227405
C158  C     C_3   0.076728 0.127412 0.331592 -1.003261
C159  C     C_R   0.230844 0.696742 0.231608 0.431506
C160  C     C_R   0.763711 0.306858 0.765595 0.415559
C161  C     C_R   0.302645 0.229895 0.230259 0.440844
C162  C     C_R   0.696423 0.769015 0.768763 0.438456
C163  C     C_R   0.759893 0.309074 0.238820 0.434654
C164  C     C_R   0.279391 0.279127 0.207149 -0.242434
C165  C     C_R   0.233037 0.693995 0.767034 0.410890
C166  C     C_R   0.692420 0.762361 0.234825 0.410902
C167  C     C_R   0.309129 0.238774 0.759685 0.434317
C168  C     C_R   0.229859 0.303302 0.768962 0.446015
C169  C     C_R   0.772105 0.697978 0.228169 0.407431
C170  C     C_R   0.305540 0.766456 0.767401 0.422016
C171  C     C_R   0.697453 0.228514 0.230035 0.423856
C172  C     C_R   0.769002 0.696428 0.768803 0.439069
C173  C     C_R   0.230200 0.302673 0.229765 0.441150
C174  C     C_R   0.697882 0.228444 0.772038 0.407180
C175  C     C_R   0.719724 0.719820 0.791516 -0.235893
C176  C     C_R   0.304150 0.768425 0.232536 0.440328
C177  C     C_R   0.228212 0.229554 0.697713 0.422903
C178  C     C_R   0.765066 0.763217 0.307004 0.415909
C179  C     C_R   0.232089 0.767613 0.305673 0.419592
C180  C     C_R   0.762035 0.235440 0.692256 0.411621
C181  C     C_R   0.769284 0.229767 0.303271 0.443761
C182  C     C_R   0.232158 0.767810 0.695712 0.431677
C183  C     C_R   0.769913 0.769885 0.697098 0.438934
C184  C     C_R   0.229751 0.230262 0.302539 0.440844
C185  C     C_R   0.378977 0.378900 0.111408 0.085563
C186  C     C_R   0.716544 0.280884 0.210850 -0.214916
C187  C     C_R   0.620303 0.620358 0.887327 0.088919
C188  C     C_R   0.620700 0.377969 0.110250 0.076891
C189  C     C_R   0.377678 0.622230 0.891542 0.084303
C190  C     C_R   0.622916 0.621720 0.108393 0.084013
C191  C     C_R   0.379664 0.380299 0.887167 0.087664
C192  C     C_R   0.379721 0.620425 0.112713 0.088342
C193  C     C_R   0.622735 0.376919 0.892669 0.089906
C194  C     C_R   0.111604 0.379101 0.378976 0.085134
C195  C     C_R   0.887811 0.620648 0.620533 0.088916
C196  C     C_R   0.109575 0.621714 0.378123 0.083798
C197  C     C_R   0.280497 0.718787 0.791816 -0.209883
C198  C     C_R   0.888285 0.379346 0.620661 0.083226
C199  C     C_R   0.110814 0.621227 0.620971 0.086688
C200  C     C_R   0.887580 0.379507 0.380055 0.087264
C201  C     C_R   0.109719 0.378178 0.621862 0.084800
C202  C     C_R   0.892584 0.622669 0.376923 0.089803
C203  C     C_R   0.378939 0.111533 0.379015 0.085594
C204  C     C_R   0.621003 0.888337 0.620770 0.087226
C205  C     C_R   0.377893 0.110141 0.620698 0.077115
C206  C     C_R   0.620428 0.887960 0.379430 0.083055
C207  C     C_R   0.621561 0.108798 0.622683 0.083666
C208  C     C_R   0.720880 0.718623 0.207130 -0.187757
C209  C     C_R   0.378765 0.889335 0.378910 0.086818
C210  C     C_R   0.621793 0.110028 0.378464 0.085885
C211  C     C_R   0.378933 0.888952 0.621099 0.085384
C212  C     C_1   0.138971 0.658501 0.341152 -0.073525
C213  C     C_1   0.856853 0.343345 0.656447 -0.086396
C214  C     C_1   0.342005 0.141362 0.342305 -0.062986
C215  C     C_1   0.657896 0.858525 0.657380 -0.072603
C216  C     C_1   0.856440 0.343064 0.344571 -0.084740
C217  C     C_1   0.140796 0.657947 0.657361 -0.083674
C218  C     C_1   0.656100 0.856464 0.343365 -0.086002
C219  C     C_R   0.282427 0.283566 0.787478 -0.244304
C220  C     C_1   0.340662 0.140686 0.656021 -0.087752
C221  C     C_1   0.138495 0.340986 0.659114 -0.064951
C222  C     C_1   0.863904 0.659610 0.339315 -0.096404
C223  C     C_1   0.342418 0.858788 0.657659 -0.079933
C224  C     C_1   0.659087 0.138867 0.341408 -0.066140
C225  C     C_1   0.857892 0.657349 0.657190 -0.075861
C226  C     C_1   0.141398 0.342404 0.342031 -0.062892
C227  C     C_1   0.657760 0.137839 0.660545 -0.090429
C228  C     C_1   0.342066 0.859473 0.342425 -0.081642
C229  C     C_1   0.342271 0.342006 0.141246 -0.063276
C230  C     C_R   0.205221 0.278628 0.721426 -0.246953
C231  C     C_1   0.656818 0.656948 0.857131 -0.073117
C232  C     C_1   0.340599 0.658950 0.862280 -0.091619
C233  C     C_1   0.656001 0.340791 0.140899 -0.085597
C234  C     C_1   0.659751 0.339326 0.864054 -0.096553
C235  C     C_1   0.343321 0.656921 0.143282 -0.070524
C236  C     C_1   0.660857 0.658015 0.137243 -0.090989
C237  C     C_1   0.343273 0.344855 0.855895 -0.085817
C238  C     C_1   0.167542 0.687928 0.311883 0.142182
C239  C     C_1   0.826931 0.314625 0.684903 0.137207
C240  C     C_1   0.312175 0.169294 0.312679 0.154977
H1    H     H_    0.325317 0.451528 0.091692 0.098312
H2    H     H_    0.674632 0.450807 0.091863 0.096981
H3    H     H_    0.459739 0.195541 0.727508 0.203824
H4    H     H_    0.420748 0.221953 0.668363 0.201153
H5    H     H_    0.476500 0.310152 0.668513 0.276313
H6    H     H_    0.521448 0.249076 0.663066 0.272858
H7    H     H_    0.515613 0.285807 0.729113 0.262137
H8    H     H_    0.182896 0.381898 0.866874 0.127462
H9    H     H_    0.199469 0.308713 0.866850 0.081281
H10   H     H_    0.098819 0.364830 0.805285 0.209559
H11   H     H_    0.113853 0.290465 0.806296 0.191211
H12   H     H_    0.103005 0.289252 0.911142 0.265167
H13   H     H_    0.547811 0.674229 0.907130 0.098935
H14   H     H_    0.040456 0.314818 0.876472 0.276544
H15   H     H_    0.087444 0.363876 0.910154 0.265625
H16   H     H_    0.764087 0.585130 0.187258 0.113033
H17   H     H_    0.784509 0.600980 0.258529 0.069590
H18   H     H_    0.865388 0.577448 0.159543 0.208819
H19   H     H_    0.886221 0.595523 0.229979 0.199721
H20   H     H_    0.835053 0.508991 0.265618 0.258994
H21   H     H_    0.892166 0.493466 0.218141 0.271006
H22   H     H_    0.820867 0.490092 0.193033 0.287233
H23   H     H_    0.411862 0.781306 0.726425 0.099775
H24   H     H_    0.451575 0.325327 0.091652 0.098205
H25   H     H_    0.396939 0.716989 0.764125 0.080621
H26   H     H_    0.460415 0.820562 0.808963 0.204189
H27   H     H_    0.440501 0.760785 0.851085 0.203375
H28   H     H_    0.539206 0.752100 0.819080 0.288508
H29   H     H_    0.517622 0.757841 0.746478 0.279957
H30   H     H_    0.496950 0.697384 0.788270 0.260966
H31   H     H_    0.624302 0.130193 0.175068 0.128385
H32   H     H_    0.696995 0.132188 0.193364 0.073438
H33   H     H_    0.640330 0.199975 0.097033 0.212469
H34   H     H_    0.714365 0.200530 0.113523 0.194922
H35   H     H_    0.675497 0.450424 0.910752 0.098015
H36   H     H_    0.720133 0.097253 0.093634 0.267335
H37   H     H_    0.694441 0.136418 0.033842 0.276072
H38   H     H_    0.645830 0.096714 0.076555 0.264742
H39   H     H_    0.816468 0.611981 0.861533 0.130065
H40   H     H_    0.806401 0.686309 0.863760 0.074857
H41   H     H_    0.896480 0.623384 0.792958 0.208214
H42   H     H_    0.888468 0.698711 0.797240 0.189192
H43   H     H_    0.907806 0.695085 0.900716 0.267581
H44   H     H_    0.964751 0.665451 0.860101 0.273250
H45   H     H_    0.916451 0.619455 0.896355 0.265326
H46   H     H_    0.325735 0.548215 0.092827 0.097560
H47   H     H_    0.136824 0.384537 0.178450 0.129343
H48   H     H_    0.134888 0.310801 0.192039 0.066392
H49   H     H_    0.206681 0.369610 0.099957 0.210784
H50   H     H_    0.202305 0.294741 0.111386 0.185598
H51   H     H_    0.099082 0.297351 0.090526 0.268400
H52   H     H_    0.140444 0.324379 0.032837 0.270269
H53   H     H_    0.103505 0.372504 0.078456 0.267339
H54   H     H_    0.584902 0.187858 0.763770 0.113141
H55   H     H_    0.600946 0.259020 0.784446 0.069607
H56   H     H_    0.577115 0.159782 0.864940 0.208740
H57   H     H_    0.452073 0.326037 0.906605 0.105756
H58   H     H_    0.595356 0.230107 0.886001 0.199772
H59   H     H_    0.508896 0.266112 0.834785 0.259131
H60   H     H_    0.493262 0.218590 0.891831 0.270925
H61   H     H_    0.489818 0.193581 0.820542 0.287433
H62   H     H_    0.387758 0.862018 0.185567 0.126855
H63   H     H_    0.313365 0.863644 0.195355 0.081151
H64   H     H_    0.377301 0.794494 0.104863 0.208286
H65   H     H_    0.301894 0.797732 0.112845 0.191464
H66   H     H_    0.303994 0.901555 0.094606 0.266155
H67   H     H_    0.334270 0.862039 0.037282 0.275539
H68   H     H_    0.549823 0.675263 0.089550 0.095219
H69   H     H_    0.379691 0.898231 0.086024 0.265175
H70   H     H_    0.129465 0.173739 0.625950 0.128108
H71   H     H_    0.132579 0.191430 0.698720 0.072324
H72   H     H_    0.200590 0.096364 0.640230 0.211202
H73   H     H_    0.201787 0.112084 0.714385 0.193526
H74   H     H_    0.098802 0.090833 0.721051 0.269155
H75   H     H_    0.138398 0.031792 0.694294 0.270692
H76   H     H_    0.097624 0.074563 0.646613 0.266754
H77   H     H_    0.779732 0.717030 0.410825 0.098936
H78   H     H_    0.714307 0.753380 0.397101 0.077843
H79   H     H_    0.092005 0.325444 0.451675 0.099205
H80   H     H_    0.815330 0.798307 0.464530 0.203501
H81   H     H_    0.753961 0.838974 0.446325 0.201183
H82   H     H_    0.745111 0.801231 0.542643 0.298617
H83   H     H_    0.755176 0.730237 0.517517 0.274213
H84   H     H_    0.692828 0.769750 0.497928 0.260644
H85   H     H_    0.273763 0.782363 0.411848 0.100916
H86   H     H_    0.236893 0.717738 0.396703 0.090247
H87   H     H_    0.190909 0.820337 0.461205 0.204435
H88   H     H_    0.149514 0.760224 0.441172 0.202964
H89   H     H_    0.213512 0.697168 0.496731 0.262072
H90   H     H_    0.907360 0.674298 0.547818 0.096555
H91   H     H_    0.182166 0.751246 0.539565 0.290247
H92   H     H_    0.254595 0.757942 0.517513 0.278216
H93   H     H_    0.767299 0.283037 0.589837 0.094790
H94   H     H_    0.706438 0.239570 0.603889 0.083427
H95   H     H_    0.810119 0.207585 0.532834 0.202368
H96   H     H_    0.753701 0.160281 0.550768 0.200098
H97   H     H_    0.684617 0.224071 0.502610 0.262350
H98   H     H_    0.739390 0.200529 0.455794 0.299791
H99   H     H_    0.741705 0.271065 0.483796 0.271205
H100  H     H_    0.867713 0.181829 0.380905 0.126388
H101  H     H_    0.090518 0.548788 0.325002 0.098401
H102  H     H_    0.867468 0.199666 0.308042 0.080955
H103  H     H_    0.805932 0.098182 0.362562 0.210738
H104  H     H_    0.806697 0.114497 0.288479 0.190971
H105  H     H_    0.911561 0.103512 0.286732 0.265298
H106  H     H_    0.876899 0.040602 0.311318 0.276725
H107  H     H_    0.910836 0.086663 0.361067 0.265695
H108  H     H_    0.184922 0.863461 0.614664 0.125837
H109  H     H_    0.194747 0.863072 0.689024 0.084120
H110  H     H_    0.103768 0.796086 0.623813 0.205934
H111  H     H_    0.111776 0.797587 0.699215 0.198884
H112  H     H_    0.674179 0.547775 0.906997 0.096720
H113  H     H_    0.907585 0.451908 0.674296 0.094830
H114  H     H_    0.094080 0.901540 0.699201 0.269525
H115  H     H_    0.036509 0.863030 0.668270 0.271171
H116  H     H_    0.085477 0.899947 0.623507 0.266593
H117  H     H_    0.864757 0.816920 0.614459 0.128660
H118  H     H_    0.866972 0.802798 0.688102 0.074336
H119  H     H_    0.800453 0.899320 0.630332 0.209379
H120  H     H_    0.803542 0.886773 0.705080 0.189804
H121  H     H_    0.870417 0.961715 0.676757 0.276015
H122  H     H_    0.907954 0.901293 0.703458 0.265518
H123  H     H_    0.904850 0.914369 0.628430 0.265024
H124  H     H_    0.091616 0.674592 0.548050 0.098195
H125  H     H_    0.178207 0.136885 0.384188 0.129301
H126  H     H_    0.191935 0.135004 0.310491 0.066711
H127  H     H_    0.099795 0.206872 0.369172 0.210960
H128  H     H_    0.111357 0.202562 0.294333 0.185618
H129  H     H_    0.090356 0.099403 0.296770 0.268724
H130  H     H_    0.032646 0.140822 0.323715 0.270214
H131  H     H_    0.078148 0.103758 0.371891 0.267067
H132  H     H_    0.907422 0.325780 0.452416 0.095714
H133  H     H_    0.090595 0.451232 0.674944 0.099696
H134  H     H_    0.911767 0.549275 0.324545 0.110812
H135  H     H_    0.907616 0.325658 0.548189 0.098744
H136  H     H_    0.090502 0.674877 0.451146 0.096966
H137  H     H_    0.907698 0.548273 0.674442 0.097305
H138  H     H_    0.091904 0.451827 0.325465 0.098599
H139  H     H_    0.910649 0.675459 0.450411 0.097838
H140  H     H_    0.547749 0.325238 0.090999 0.098578
H141  H     H_    0.090500 0.324969 0.548974 0.098902
H142  H     H_    0.906829 0.452023 0.325946 0.105732
H143  H     H_    0.091568 0.548375 0.674543 0.095649
H144  H     H_    0.451708 0.091972 0.325452 0.099064
H145  H     H_    0.548435 0.907983 0.674538 0.096001
H146  H     H_    0.325190 0.090942 0.547715 0.098076
H147  H     H_    0.674284 0.907343 0.451856 0.094229
H148  H     H_    0.547951 0.090057 0.675018 0.094613
H149  H     H_    0.451402 0.908742 0.325272 0.095166
H150  H     H_    0.674788 0.091040 0.451697 0.100759
H151  H     H_    0.450881 0.675184 0.910197 0.096738
H152  H     H_    0.325405 0.908312 0.548401 0.095509
H153  H     H_    0.547777 0.907237 0.325840 0.098678
H154  H     H_    0.450749 0.091723 0.674635 0.096764
H155  H     H_    0.674590 0.908028 0.548182 0.098427
H156  H     H_    0.325325 0.091712 0.451542 0.098022
H157  H     H_    0.451635 0.908170 0.674589 0.098277
H158  H     H_    0.549034 0.090676 0.325035 0.098734
H159  H     H_    0.325333 0.908531 0.451743 0.097402
H160  H     H_    0.675128 0.090101 0.549573 0.094784
H161  H     H_    0.182106 0.616175 0.136164 0.127898
H162  H     H_    0.675152 0.547996 0.089803 0.094584
H163  H     H_    0.196356 0.689777 0.135059 0.071175
H164  H     H_    0.100878 0.631470 0.202580 0.211632
H165  H     H_    0.113273 0.706227 0.199399 0.197122
H166  H     H_    0.096767 0.705078 0.095394 0.267967
H167  H     H_    0.037094 0.678333 0.134017 0.275959
H168  H     H_    0.083767 0.630037 0.098598 0.264587
H169  H     H_    0.719435 0.411834 0.781646 0.098689
H170  H     H_    0.754637 0.397387 0.715818 0.077085
H171  H     H_    0.802003 0.463742 0.816393 0.203457
H172  H     H_    0.842151 0.444063 0.755207 0.202055
H173  H     H_    0.325967 0.452803 0.906845 0.095666
H174  H     H_    0.774432 0.497268 0.693715 0.260176
H175  H     H_    0.807192 0.541335 0.745734 0.295067
H176  H     H_    0.735461 0.518333 0.755884 0.276668
H177  H     H_    0.384851 0.178958 0.137052 0.129512
H178  H     H_    0.311075 0.192432 0.134926 0.066254
H179  H     H_    0.369886 0.100210 0.206594 0.210898
H180  H     H_    0.294988 0.111559 0.202089 0.185702
H181  H     H_    0.297806 0.091046 0.098854 0.267814
H182  H     H_    0.324863 0.033249 0.140086 0.270020
H183  H     H_    0.372992 0.079070 0.103399 0.267398
H184  H     H_    0.452410 0.674034 0.093166 0.099231
H185  H     H_    0.611579 0.861444 0.816084 0.130549
H186  H     H_    0.686049 0.863627 0.806967 0.075457
H187  H     H_    0.621945 0.792142 0.895633 0.207256
H188  H     H_    0.697383 0.796393 0.888573 0.190526
H189  H     H_    0.693628 0.899726 0.908718 0.267263
H190  H     H_    0.663277 0.858649 0.964936 0.274472
H191  H     H_    0.617878 0.895372 0.916393 0.264334
H192  H     H_    0.782168 0.425759 0.284305 0.129443
H193  H     H_    0.723552 0.380964 0.298845 0.073348
H194  H     H_    0.727881 0.459706 0.195600 0.203914
H195  H     H_    0.549336 0.324515 0.911853 0.110892
H196  H     H_    0.668777 0.420770 0.222159 0.200899
H197  H     H_    0.669171 0.476508 0.310330 0.276224
H198  H     H_    0.663590 0.521455 0.249283 0.272864
H199  H     H_    0.729752 0.515559 0.285873 0.262107
H200  H     H_    0.275191 0.588467 0.783754 0.097202
H201  H     H_    0.238990 0.602467 0.718397 0.087217
H202  H     H_    0.192026 0.539098 0.821323 0.204094
H203  H     H_    0.151642 0.557688 0.759963 0.201723
H204  H     H_    0.217733 0.501729 0.699415 0.262605
H205  H     H_    0.185525 0.459522 0.753512 0.294191
H206  H     H_    0.324757 0.549090 0.910264 0.097651
H207  H     H_    0.257560 0.482252 0.761535 0.275022
H208  H     H_    0.588504 0.768807 0.280402 0.094673
H209  H     H_    0.603881 0.707527 0.238037 0.082731
H210  H     H_    0.533140 0.810648 0.203580 0.202025
H211  H     H_    0.553402 0.754870 0.156517 0.201305
H212  H     H_    0.503990 0.684688 0.218110 0.261119
H213  H     H_    0.457353 0.738969 0.193128 0.295027
H214  H     H_    0.482681 0.741234 0.264695 0.275639
H215  H     H_    0.425804 0.284506 0.781454 0.129560
H216  H     H_    0.380866 0.298702 0.722848 0.073622
N1    N     N_R   0.411340 0.449990 0.062390 -0.044750
N2    N     N_R   0.588660 0.449990 0.062390 -0.041795
N3    N     N_R   0.550010 0.588660 0.937610 -0.043304
N4    N     N_R   0.449990 0.411340 0.062390 -0.044553
N5    N     N_R   0.588660 0.449990 0.937610 -0.042638
N6    N     N_R   0.411340 0.550010 0.062390 -0.044429
N7    N     N_R   0.449990 0.411340 0.937610 -0.041541
N8    N     N_R   0.550010 0.588660 0.062390 -0.042908
N9    N     N_R   0.062390 0.411340 0.449990 -0.044802
N10   N     N_R   0.937610 0.588660 0.550010 -0.043704
N11   N     N_R   0.062390 0.550010 0.411340 -0.044442
N12   N     N_R   0.588660 0.550010 0.937610 -0.043704
N13   N     N_R   0.937610 0.449990 0.588660 -0.043045
N14   N     N_R   0.062390 0.588660 0.550010 -0.042813
N15   N     N_R   0.937610 0.411340 0.449990 -0.043449
N16   N     N_R   0.062390 0.449990 0.588660 -0.043001
N17   N     N_R   0.937610 0.550010 0.411340 -0.040614
N18   N     N_R   0.937610 0.411340 0.550010 -0.043624
N19   N     N_R   0.062390 0.588660 0.449990 -0.042308
N20   N     N_R   0.937610 0.550010 0.588660 -0.043238
N21   N     N_R   0.062390 0.449990 0.411340 -0.044438
N22   N     N_R   0.937610 0.588660 0.449990 -0.042595
N23   N     N_R   0.550010 0.411340 0.062390 -0.044415
N24   N     N_R   0.062390 0.411340 0.550010 -0.044312
N25   N     N_R   0.937610 0.449990 0.411340 -0.041371
N26   N     N_R   0.062390 0.550010 0.588660 -0.042373
N27   N     N_R   0.449990 0.062390 0.411340 -0.044776
N28   N     N_R   0.550010 0.937610 0.588660 -0.043312
N29   N     N_R   0.411340 0.062390 0.550010 -0.044545
N30   N     N_R   0.588660 0.937610 0.449990 -0.043282
N31   N     N_R   0.550010 0.062390 0.588660 -0.041652
N32   N     N_R   0.449990 0.937610 0.411340 -0.043678
N33   N     N_R   0.588660 0.062390 0.449990 -0.043446
N34   N     N_R   0.449990 0.588660 0.937610 -0.042704
N35   N     N_R   0.411340 0.937610 0.550010 -0.043582
N36   N     N_R   0.550010 0.937610 0.411340 -0.043555
N37   N     N_R   0.449990 0.062390 0.588660 -0.041636
N38   N     N_R   0.588660 0.937610 0.550010 -0.043562
N39   N     N_R   0.411340 0.062390 0.449990 -0.044630
N40   N     N_R   0.449990 0.937610 0.588660 -0.042619
N41   N     N_R   0.550010 0.062390 0.411340 -0.044435
N42   N     N_R   0.411340 0.937610 0.449990 -0.042660
N43   N     N_R   0.588660 0.062390 0.550010 -0.043219
N44   N     N_R   0.588660 0.550010 0.062390 -0.041689
N45   N     N_R   0.411340 0.449990 0.937610 -0.043327
N46   N     N_R   0.449990 0.588660 0.062390 -0.043014
N47   N     N_R   0.550010 0.411340 0.937610 -0.040786
N48   N     N_R   0.411340 0.550010 0.937610 -0.042878
Ni1   Ni    Ni4+2 0.412730 0.500000 0.000000 0.209548
Ni2   Ni    Ni4+2 0.500000 0.000000 0.587270 0.213406
Ni3   Ni    Ni4+2 0.412730 0.000000 0.500000 0.209711
Ni4   Ni    Ni4+2 0.587270 0.000000 0.500000 0.211641
Ni5   Ni    Ni4+2 0.587270 0.500000 0.000000 0.213953
Ni6   Ni    Ni4+2 0.500000 0.412730 0.000000 0.211307
Ni7   Ni    Ni4+2 0.500000 0.587270 0.000000 0.211266
Ni8   Ni    Ni4+2 0.000000 0.412730 0.500000 0.209897
Ni9   Ni    Ni4+2 0.000000 0.587270 0.500000 0.211408
Ni10  Ni    Ni4+2 0.000000 0.500000 0.412730 0.211321
Ni11  Ni    Ni4+2 1.000000 0.500000 0.587270 0.210800
Ni12  Ni    Ni4+2 0.500000 0.000000 0.412730 0.209590
O1    O     O_3   0.210428 0.645942 0.211642 -0.638774
O2    O     O_3   0.804124 0.661562 0.195817 -0.632841
O3    O     O_3   0.353538 0.789743 0.790972 -0.634597
O4    O     O_3   0.648666 0.205940 0.207540 -0.639497
O5    O     O_3   0.787872 0.644390 0.787201 -0.650354
O6    O     O_3   0.210962 0.353957 0.209639 -0.637313
O7    O     O_3   0.661359 0.196053 0.803890 -0.632937
O8    O     O_3   0.355973 0.787106 0.213366 -0.651221
O9    O     O_3   0.205341 0.206747 0.649231 -0.639991
O10   O     O_3   0.786697 0.785112 0.356522 -0.629521
O11   O     O_3   0.208786 0.790511 0.354047 -0.639561
O12   O     O_3   0.786207 0.355843 0.787808 -0.629453
O13   O     O_3   0.782372 0.214252 0.641831 -0.630673
O14   O     O_3   0.790621 0.207816 0.352904 -0.652452
O15   O     O_3   0.212224 0.787521 0.644554 -0.652390
O16   O     O_3   0.789369 0.789919 0.645884 -0.651120
O17   O     O_3   0.209569 0.210975 0.353763 -0.637411
O18   O     O_3   0.354017 0.209864 0.211151 -0.637276
O19   O     O_3   0.644209 0.787284 0.787306 -0.647910
O20   O     O_3   0.771971 0.364443 0.224481 -0.644169
O21   O     O_3   0.209496 0.645812 0.790079 -0.634997
O22   O     O_3   0.642448 0.783299 0.213083 -0.630526
O23   O     O_3   0.364569 0.224512 0.771625 -0.644497
O24   O     O_3   0.208201 0.353237 0.789859 -0.651128

loop_
_geom_bond_atom_site_label_1
_geom_bond_atom_site_label_2
_ccdc_geom_bond_type
C154  H123  S    
C191  C237  S    
C76   N42   A    
C205  C220  S    
N40   Ni2   S    
C172  O5    S    
C102  H216  S    
N9    N21   A    
C50   N16   A    
C114  C115  S    
C115  H30   S    
C1    C176  A    
C70   N36   A    
C115  H28   S    
C13   C173  A    
C142  O13   S    
C91   H189  S    
C126  C127  S    
C149  H109  S    
C78   H163  S    
C43   C194  A    
N32   N42   A    
N6    N46   A    
C74   H157  S    
C69   H152  S    
C138  H84   S    
C142  H94   S    
C119  H39   S    
C26   C185  A    
C68   C163  A    
N2    Ni5   S    
C86   H180  S    
C106  C107  S    
C3    C215  T    
C143  C144  S    
C65   H148  S    
N10   N20   A    
C108  C109  S    
C122  O6    S    
C157  C179  A    
C184  O17   S    
C57   C182  A    
N34   N48   A    
C60   H143  S    
C5    C217  T    
C149  H108  S    
C47   C198  A    
C69   C211  A    
N8    Ni7   S    
N35   Ni3   S    
C92   H192  S    
C137  H80   S    
C134  H74   S    
C52   N18   A    
C47   H113  S    
C172  C175  A    
C187  C231  S    
C139  H86   S    
N13   Ni11  S    
C101  C240  S    
C64   N30   A    
C62   N28   A    
C33   N47   A    
C61   H144  S    
C44   N10   A    
C144  H99   S    
C59   N25   A    
C129  H62   S    
C210  C224  S    
C48   C199  A    
C76   H159  S    
C1    C159  A    
C140  C141  S    
C70   H153  S    
C117  H33   S    
C118  H38   S    
C41   C191  A    
C136  O10   S    
C94   H198  S    
C95   O21   S    
N39   Ni3   S    
C141  H91   S    
C107  H14   S    
C15   C227  T    
N15   N25   A    
C109  H19   S    
C214  C240  T    
C105  H8    S    
C110  H20   S    
C17   C164  S    
C42   C190  A    
C21   C234  T    
C40   C192  A    
C25   C237  T    
C104  H7    S    
C46   C160  A    
C49   H132  S    
C146  C180  A    
C164  C173  A    
C27   C187  A    
C101  C184  A    
C11   C79   S    
C149  O15   S    
C154  H121  S    
C120  H41   S    
C130  H65   S    
C131  H66   S    
C161  O18   S    
C138  H82   S    
N1    N4    A    
C29   C189  A    
C95   H200  S    
C52   C198  A    
C163  O20   S    
C193  C234  S    
C21   C112  S    
C185  C229  S    
N48   Ni1   S    
C192  C235  S    
N17   N22   A    
C16   C228  T    
C204  C215  S    
N43   Ni4   S    
C112  C160  A    
C78   H161  S    
C82   H169  S    
N7    Ni6   S    
N8    N44   A    
C139  C140  S    
C74   C211  A    
C63   N29   A    
C100  H213  S    
C106  H10   S    
C156  C158  S    
C130  C131  S    
C127  H58   S    
N28   Ni2   S    
N23   Ni6   S    
C128  H61   S    
C37   C187  A    
C36   N2    A    
C146  C174  A    
C181  O14   S    
C135  C166  A    
C71   H154  S    
C48   N14   A    
C88   H186  S    
C65   N31   A    
C2    C169  A    
C20   C186  S    
C196  C212  S    
C96   H202  S    
C71   C205  A    
C88   C89   S    
N11   Ni10  S    
C98   C99   S    
C152  O16   S    
C155  C156  S    
C53   C196  A    
N16   Ni11  S    
C149  C150  S    
N34   Ni7   S    
C188  C233  S    
C91   H190  S    
C126  H54   S    
C92   O20   S    
C45   H101  S    
C75   C210  A    
C180  O13   S    
C4    C216  T    
N41   Ni12  S    
C148  H105  S    
C147  C148  S    
C201  C221  S    
C118  H36   S    
C85   C86   S    
N10   Ni9   S    
C73   C203  A    
C95   H201  S    
C107  H12   S    
N25   Ni10  S    
C114  H26   S    
N9    Ni8   S    
C34   N48   A    
C78   C80   S    
N46   Ni7   S    
N12   Ni5   S    
C155  H125  S    
C123  H50   S    
C67   N33   A    
C9    C222  T    
C136  H78   S    
C93   H194  S    
N14   Ni9   S    
C209  C228  S    
C89   C91   S    
C116  H31   S    
C133  H72   S    
C51   C202  A    
C45   C196  A    
C77   H160  S    
C1    C22   S    
C155  O17   S    
C13   C14   S    
C156  H128  S    
C56   N22   A    
C108  H17   S    
C48   H124  S    
C28   N23   A    
N30   Ni4   S    
C47   N13   A    
C167  C219  A    
C169  O2    S    
C151  H116  S    
N3    Ni7   S    
C35   C179  A    
C171  O4    S    
C29   N34   A    
C195  C225  S    
C107  H15   S    
C189  C232  S    
C111  H25   S    
C58   H141  S    
C152  H117  S    
C177  C230  A    
C4    C68   S    
C162  C175  A    
C158  H129  S    
C143  H95   S    
C178  O10   S    
C97   H204  S    
N31   N43   A    
C122  H47   S    
N28   N38   A    
C6    C135  S    
C50   H133  S    
N4    Ni6   S    
C83   C84   S    
C59   C200  A    
C131  H69   S    
C103  H4    S    
C140  H88   S    
C43   H79   S    
C61   N27   A    
C46   C239  S    
C59   H142  S    
C54   N20   A    
C150  H110  S    
C99   H210  S    
C62   C204  A    
C124  C177  A    
C125  H51   S    
N19   Ni9   S    
C7    C220  T    
C71   N37   A    
N33   N41   A    
C121  H44   S    
C104  H6    S    
C148  H107  S    
C87   H182  S    
N29   N37   A    
C81   H166  S    
C66   N32   A    
C51   H134  S    
C120  C121  S    
C147  H104  S    
C39   H35   S    
C131  H67   S    
N38   Ni4   S    
N2    N23   A    
C136  C137  S    
C15   C146  S    
C115  H29   S    
C65   C207  A    
C12   C24   S    
C55   N21   A    
C36   H2    S    
C55   H138  S    
C117  C118  S    
C85   H178  S    
C62   H145  S    
C113  C183  A    
N15   Ni8   S    
C200  C216  S    
C84   H175  S    
C30   H162  S    
C30   C190  A    
C132  H71   S    
C102  C103  S    
N14   N26   A    
C40   N6    A    
C157  C176  A    
C22   C235  T    
C55   C194  A    
C152  C153  S    
N33   Ni4   S    
C98   H208  S    
C20   C233  T    
C158  H130  S    
C132  O9    S    
N18   Ni8   S    
C150  C151  S    
C83   H172  S    
C121  H43   S    
C102  H215  S    
N31   Ni2   S    
C134  H75   S    
C170  C197  A    
C212  C238  T    
C158  H131  S    
N21   Ni10  S    
C32   N46   A    
C139  H85   S    
C153  H120  S    
C75   N41   A    
C66   H149  S    
N35   N40   A    
C112  C174  A    
C199  C217  S    
C133  H73   S    
C145  H100  S    
C37   N3    A    
C26   H1    S    
C91   H191  S    
C44   H90   S    
C129  O8    S    
C163  C186  A    
C116  O4    S    
N42   Ni3   S    
C144  H97   S    
C75   H158  S    
C14   C226  T    
C18   C231  T    
C28   C188  A    
C123  C125  S    
C57   C165  A    
C94   H199  S    
C31   C191  A    
C151  H114  S    
C32   C192  A    
C79   C171  A    
C109  H18   S    
C110  H21   S    
C6    C218  T    
C41   H57   S    
C102  O23   S    
C89   H188  S    
C177  O9    S    
N30   N36   A    
C73   H156  S    
C179  O11   S    
C81   H168  S    
C19   C232  T    
C72   C204  A    
C130  H64   S    
C154  H122  S    
C120  H42   S    
C145  O14   S    
C33   C193  A    
C138  H83   S    
C108  H16   S    
C24   C183  A    
C166  C208  A    
C39   N5    A    
C145  C147  S    
C60   N26   A    
C43   N9    A    
C68   C181  A    
C19   C197  S    
C82   H170  S    
C46   C180  A    
N20   Ni11  S    
C142  H93   S    
C119  H40   S    
C17   C229  T    
C86   C87   S    
C31   N45   A    
C86   H179  S    
C64   C206  A    
C79   C181  A    
C42   H68   S    
C174  O7    S    
C100  H214  S    
C106  H11   S    
N16   N24   A    
C165  C197  A    
C124  C167  A    
C39   C193  A    
C97   H207  S    
C111  O3    S    
C121  H45   S    
N29   Ni3   S    
C10   C223  T    
C207  C227  S    
C73   N39   A    
C37   H13   S    
C133  C134  S    
N37   Ni2   S    
C25   C219  S    
C190  C236  S    
C145  H102  S    
C99   H211  S    
C161  C164  A    
N24   Ni8   S    
C128  H59   S    
C126  H55   S    
C50   C201  A    
N45   Ni1   S    
C129  H63   S    
C44   C195  A    
C54   C195  A    
C171  C186  A    
C16   C157  S    
C85   O18   S    
C148  H106  S    
C72   H155  S    
C87   H183  S    
C135  C178  A    
C117  H34   S    
N5    N47   A    
C11   C224  T    
C118  H37   S    
C119  C120  S    
C108  O2    S    
C94   H197  S    
N11   N19   A    
C105  C106  S    
C152  H118  S    
C141  H92   S    
C5    C57   S    
C194  C226  S    
C77   C207  A    
C129  C130  S    
C105  H9    S    
C38   N4    A    
C109  C110  S    
C132  H70   S    
C101  C161  A    
C92   C93   S    
C111  C114  S    
C137  H81   S    
C168  C219  A    
C123  H49   S    
C160  O12   S    
N22   Ni9   S    
C56   H139  S    
C34   H206  S    
C26   N1    A    
C10   C90   S    
C82   C83   S    
C63   C205  A    
C103  C104  S    
C84   H174  S    
C142  C143  S    
C36   C188  A    
C116  H32   S    
C198  C213  S    
C139  O11   S    
C98   H209  S    
C127  H56   S    
C76   C209  A    
C41   N7    A    
C93   C94   S    
C23   C208  S    
C202  C222  S    
C203  C214  S    
C95   C96   S    
C64   H147  S    
C7    C124  S    
C159  O1    S    
C169  C208  A    
C27   H112  S    
C206  C218  S    
C31   H173  S    
C29   H151  S    
C114  H27   S    
C32   H184  S    
C78   O1    S    
C126  O7    S    
C56   C202  A    
C166  O22   S    
C116  C117  S    
C67   C210  A    
N6    Ni1   S    
C122  H48   S    
C88   H185  S    
C60   C199  A    
C113  C162  A    
C77   N43   A    
C8    C230  S    
C93   H196  S    
C90   C182  A    
C58   C201  A    
C132  C133  S    
C103  H3    S    
C162  O19   S    
C28   H140  S    
C150  H111  S    
C49   N15   A    
C18   C175  S    
C13   C184  A    
C100  H212  S    
C69   N35   A    
C211  C223  S    
C183  O16   S    
C87   H181  S    
C35   C238  S    
C24   C172  A    
N7    N45   A    
C27   N12   A    
C147  H103  S    
C74   N40   A    
C88   O19   S    
N36   Ni12  S    
C92   H193  S    
C176  O8    S    
C52   H135  S    
C80   H164  S    
C3    C113  S    
C72   N38   A    
N17   Ni10  S    
C155  H126  S    
C167  O23   S    
C182  O15   S    
C53   N19   A    
C38   H24   S    
C33   H195  S    
C85   H177  S    
C151  H115  S    
C99   C100  S    
C136  H77   S    
N27   N39   A    
C96   C97   S    
C90   C170  A    
C98   O22   S    
C84   H176  S    
C53   H136  S    
C51   N17   A    
C66   C209  A    
C111  H23   S    
C45   N11   A    
N27   Ni12  S    
C23   C236  T    
N44   Ni5   S    
C156  H127  S    
N32   Ni12  S    
C54   H137  S    
C83   H171  S    
C119  O5    S    
C134  H76   S    
C105  O24   S    
N5    Ni5   S    
C82   O12   S    
C63   H146  S    
C97   H205  S    
C153  H119  S    
C34   C189  A    
C80   C81   S    
C213  C239  T    
N26   Ni11  S    
C125  H53   S    
N13   N18   A    
C42   N8    A    
C70   C206  A    
C38   C185  A    
C2    C178  A    
C137  C138  S    
N1    Ni1   S    
C143  H96   S    
C144  H98   S    
C122  C123  S    
C30   N44   A    
C61   C203  A    
C128  H60   S    
C2    C9    S    
C96   H203  S    
C12   C225  T    
C40   H46   S    
C173  O6    S    
C140  H87   S    
C141  H89   S    
C67   H150  S    
C80   H165  S    
N3    N12   A    
C35   C159  A    
C110  H22   S    
C125  H52   S    
C168  C230  A    
N47   Ni6   S    
C165  O21   S    
C89   H187  S    
C104  H5    S    
C58   N24   A    
C168  O24   S    
C153  C154  S    
C81   H167  S    
C8    C221  T    
C127  C128  S    
C170  O3    S    
C49   C200  A    
