data_mof_unit_56139.cif
_audit_creation_date              2012-12-10T17:18:55-0500
_audit_creation_method            fapswitch 2.2
_symmetry_space_group_name_H-M    P1
_symmetry_Int_Tables_number       1
_space_group_crystal_system       triclinic
_cell_length_a                    10.194255
_cell_length_b                    10.819239
_cell_length_c                    13.671282
_cell_angle_alpha                 92.299906
_cell_angle_beta                  99.974854
_cell_angle_gamma                 96.079683
_cell_volume                      1474.08106101

loop_
_atom_site_label
_atom_site_type_symbol
_atom_type_description
_atom_site_fract_x
_atom_site_fract_y
_atom_site_fract_z
_atom_type_partial_charge
C1    C     C_R   0.052005 0.732143 0.490635 0.943405
C2    C     C_2   0.997221 0.063141 0.467247 -0.139930
C3    C     C_2   0.430740 0.511324 0.508397 -0.037643
C4    C     C_2   0.569264 0.488614 0.491656 -0.035516
C5    C     C_R   0.094323 0.516448 0.685469 0.884265
C6    C     C_R   0.905867 0.484176 0.314504 0.868779
C7    C     C_R   0.147010 0.532747 0.791750 -0.058300
C8    C     C_R   0.854188 0.470451 0.208056 -0.056603
C9    C     C_R   0.129842 0.584728 0.961904 -0.168770
C10   C     C_R   0.872446 0.418985 0.038090 -0.170878
C11   C     C_R   0.069353 0.562878 0.862148 -0.184084
C12   C     C_R   0.945458 0.267295 0.503701 0.946007
C13   C     C_R   0.931924 0.438871 0.138124 -0.185063
C14   C     C_R   0.281510 0.519782 0.822318 -0.192407
C15   C     C_R   0.720973 0.487803 0.176789 -0.192505
C16   C     C_R   0.337550 0.520727 0.922241 0.119047
C17   C     C_R   0.666110 0.487740 0.076620 0.130492
C18   C     C_R   0.266317 0.568209 0.992818 0.071863
C19   C     C_R   0.737058 0.438652 0.006477 0.070105
C20   C     C_R   0.467168 0.484508 0.951289 -0.019284
C21   C     C_R   0.537217 0.525377 0.047017 -0.008873
C22   C     C_2   0.266239 0.663983 0.163176 0.932712
C23   C     C_R   0.475761 0.600766 0.110943 -0.124849
C24   C     C_2   0.736797 0.341387 0.836563 0.926888
C25   C     C_2   0.560057 0.692084 0.187592 0.913436
C26   C     C_2   0.445740 0.319619 0.809102 0.913634
C27   C     C_R   0.528800 0.409315 0.887260 -0.121762
C28   C     C_R   0.335757 0.606275 0.089272 -0.124642
C29   C     C_R   0.668148 0.401753 0.909710 -0.121982
C30   C     C_2   0.077607 0.863206 0.476199 -0.355471
C31   C     C_2   0.910299 0.134153 0.496756 -0.356838
C32   C     C_2   0.974580 0.930793 0.469661 -0.143973
H1    H     H_    0.657739 0.498621 0.231572 0.156260
H2    H     H_    0.178540 0.904616 0.472781 0.162645
H3    H     H_    0.578692 0.414995 0.437899 0.144897
H4    H     H_    0.421319 0.584882 0.562207 0.150959
H5    H     H_    0.163989 0.803690 0.199119 0.347883
H6    H     H_    0.833783 0.197497 0.801355 0.349712
H7    H     H_    0.726879 0.814725 0.223489 0.346152
H8    H     H_    0.409834 0.248757 0.666954 0.343938
H9    H     H_    0.664787 0.622767 0.589651 0.173134
H10   H     H_    0.335208 0.377227 0.410351 0.166739
H11   H     H_    0.344735 0.511480 0.767202 0.159757
H12   H     H_    0.035869 0.423865 0.160995 0.179836
H13   H     H_    0.964572 0.575192 0.839832 0.182036
H14   H     H_    0.069594 0.616177 0.013589 0.178237
H15   H     H_    0.932463 0.386200 0.986728 0.176665
H16   H     H_    0.091118 0.102563 0.447417 0.190785
H17   H     H_    0.873395 0.889799 0.473098 0.197951
H18   H     H_    0.816728 0.094321 0.516690 0.163547
N1    N     N_2   0.322180 0.446120 0.460900 -0.173596
N2    N     N_2   0.677820 0.553880 0.539100 -0.164497
O1    O     O_R   0.935190 0.693030 0.507870 -0.614076
O2    O     O_R   0.208749 0.774027 0.143187 -0.786598
O3    O     O_2   0.747232 0.390349 0.758800 -0.589707
O4    O     O_R   0.789019 0.228896 0.856700 -0.787295
O5    O     O_2   0.529649 0.709140 0.269351 -0.609538
O6    O     O_R   0.676532 0.757082 0.165730 -0.779925
O7    O     O_2   0.349536 0.254320 0.829010 -0.599577
O8    O     O_R   0.475193 0.311626 0.713051 -0.782988
O9    O     O_R   0.064810 0.306970 0.492130 -0.616586
O10   O     O_R   0.142080 0.658430 0.482770 -0.589144
O11   O     O_R   0.857920 0.341570 0.517230 -0.589146
O12   O     O_R   0.969700 0.527180 0.651960 -0.578524
O13   O     O_R   0.030300 0.472820 0.348040 -0.584432
O14   O     O_R   0.176600 0.492580 0.626860 -0.619662
O15   O     O_R   0.823400 0.507420 0.373140 -0.622151
O16   O     O_2   0.259988 0.615092 0.241588 -0.597207
Zn1   Zn    Zn3+2 0.861850 0.523100 0.516760 1.000443
Zn2   Zn    Zn3+2 0.138150 0.476900 0.483240 0.991812

loop_
_geom_bond_atom_site_label_1
_geom_bond_atom_site_label_2
_ccdc_geom_bond_type
O9    Zn2   S    
O13   Zn2   S    
C7    C11   A    
C8    C13   A    
H8    O8    S    
N1    Zn2   S    
C27   C29   A    
C26   O7    D    
C10   C19   A    
H9    N2    S    
H10   N1    S    
C16   C20   A    
O1    Zn1   S    
C1    O10   A    
C21   C23   A    
C4    H3    S    
H6    O4    S    
C9    H14   S    
C22   O2    S    
C22   C28   S    
C23   C28   A    
C1    C30   S    
C24   O3    D    
C30   C32   D    
C12   O9    A    
C9    C11   A    
C22   O16   D    
C26   C27   S    
O14   Zn2   S    
C25   O5    D    
C3    H4    S    
C4    N2    D    
C6    C8    S    
H5    O2    S    
C2    C31   D    
C2    C32   S    
C6    O15   A    
C20   C27   A    
C8    C15   A    
C5    C7    S    
C23   C25   S    
C12   C31   S    
C14   C16   A    
C32   H17   S    
C11   H13   S    
C24   O4    S    
C25   O6    S    
C30   H2    S    
C31   H18   S    
C3    C4    S    
C19   C29   A    
C9    C18   A    
C18   C28   A    
C20   C21   A    
O10   Zn2   S    
C16   C18   A    
C2    H16   S    
C10   H15   S    
C15   C17   A    
C12   O11   A    
C1    O1    A    
C24   C29   S    
C5    O14   A    
C3    N1    D    
N2    Zn1   S    
C17   C19   A    
C13   H12   S    
O12   Zn1   S    
H7    O6    S    
C26   O8    S    
C15   H1    S    
C6    O13   A    
C7    C14   A    
O11   Zn1   S    
C5    O12   A    
C14   H11   S    
O15   Zn1   S    
C10   C13   A    
C17   C21   A    
