data_mof_unit_63750.cif
_audit_creation_date              2012-12-10T19:51:17-0500
_audit_creation_method            fapswitch 2.2
_symmetry_space_group_name_H-M    P1
_symmetry_Int_Tables_number       1
_space_group_crystal_system       triclinic
_cell_length_a                    18.267379
_cell_length_b                    18.271154
_cell_length_c                    21.382286
_cell_angle_alpha                 89.990882
_cell_angle_beta                  90.000687
_cell_angle_gamma                 89.982433
_cell_volume                      7136.68167161

loop_
_atom_site_label
_atom_site_type_symbol
_atom_type_description
_atom_site_fract_x
_atom_site_fract_y
_atom_site_fract_z
_atom_type_partial_charge
C1    C     C_R   0.500009 0.141246 0.499997 0.925523
C2    C     C_R   0.500027 0.858753 0.500003 0.925312
C3    C     C_R   0.000009 0.641246 0.000008 0.925683
C4    C     C_R   0.000028 0.358753 0.999992 0.925167
C5    C     C_1   0.500022 0.282525 0.500008 -0.192270
C6    C     C_1   0.500063 0.717475 0.499992 -0.192514
C7    C     C_1   0.000022 0.782525 0.000014 -0.192089
C8    C     C_1   0.000063 0.217474 0.999986 -0.192706
C9    C     C_R   0.641213 0.999990 1.000000 0.908207
C10   C     C_R   0.141213 0.499990 0.499999 0.908201
C11   C     C_R   0.499566 0.000021 0.878270 0.947345
C12   C     C_R   0.499572 0.999969 0.121731 0.947462
C13   C     C_R   0.999573 0.499977 0.378269 0.947477
C14   C     C_R   0.999563 0.499997 0.621730 0.947334
C15   C     C_R   0.358676 0.000009 0.000000 0.944087
C16   C     C_R   0.858676 0.500009 0.500001 0.944074
C17   C     C_R   0.640969 0.500005 0.500000 0.929094
C18   C     C_R   0.140969 0.000006 0.000000 0.929093
C19   C     C_R   0.500025 0.359030 0.500004 0.928750
C20   C     C_R   0.500036 0.640969 0.499996 0.928783
C21   C     C_R   0.000025 0.859030 0.000005 0.928752
C22   C     C_R   0.000036 0.140969 0.999995 0.928782
C23   C     C_R   0.359033 0.499993 0.500000 0.925929
C24   C     C_R   0.859033 0.999993 1.000000 0.925929
C25   C     C_1   0.717716 0.999974 0.999999 -0.190341
C26   C     C_1   0.217716 0.499974 0.499999 -0.190339
C27   C     C_1   0.282520 0.499978 0.499999 -0.194813
C28   C     C_1   0.782520 0.999979 0.999999 -0.194813
C29   C     C_1   0.282218 0.000025 0.000000 -0.173378
C30   C     C_1   0.782218 0.500025 0.500001 -0.173389
C31   C     C_R   0.499829 0.000151 0.621741 0.914228
C32   C     C_R   0.499831 0.999765 0.378259 0.914246
C33   C     C_R   0.999832 0.499749 0.121741 0.914251
C34   C     C_R   0.999827 0.500019 0.878258 0.914217
C35   C     C_1   0.717440 0.500020 0.500001 -0.184486
C36   C     C_1   0.217440 0.000020 0.000001 -0.184489
C37   C     C_3   0.536734 0.058831 0.729796 0.091317
C38   C     C_3   0.538264 0.942042 0.270183 0.090666
C39   C     C_3   0.530293 0.062000 0.270283 0.093684
C40   C     C_3   0.531896 0.938712 0.729739 0.093125
C41   C     C_3   0.029955 0.562164 0.229691 0.093810
C42   C     C_3   0.033975 0.439685 0.770247 0.092314
C43   C     C_3   0.034698 0.559902 0.770215 0.092014
C44   C     C_3   0.038582 0.442252 0.229842 0.090564
C45   C     C_3   0.569477 0.997298 0.770987 -0.290653
C46   C     C_3   0.569387 0.004414 0.229015 -0.290565
C47   C     C_3   0.069363 0.504803 0.270985 -0.290592
C48   C     C_3   0.069526 0.499562 0.729012 -0.290485
C49   C     C_3   0.499375 0.000114 0.811091 -0.216339
C50   C     C_3   0.499382 0.999828 0.188910 -0.216325
C51   C     C_3   0.999384 0.499842 0.311089 -0.216337
C52   C     C_3   0.999368 0.499999 0.688909 -0.216294
C53   C     C_3   0.467286 0.061345 0.770451 0.525668
C54   C     C_3   0.468907 0.937779 0.229538 0.525891
C55   C     C_3   0.460952 0.057201 0.229591 0.524568
C56   C     C_3   0.462459 0.941763 0.770420 0.524925
C57   C     C_3   0.960641 0.556995 0.270385 0.524565
C58   C     C_3   0.964478 0.440384 0.729576 0.525142
C59   C     C_3   0.965198 0.560065 0.729549 0.525241
C60   C     C_3   0.969250 0.437619 0.270483 0.525927
C61   C     C_3   0.428928 0.003032 0.730257 -0.048668
C62   C     C_3   0.429037 0.995085 0.269743 -0.048599
C63   C     C_3   0.929067 0.494700 0.230257 -0.048610
C64   C     C_3   0.928866 0.500456 0.769738 -0.048590
C65   C     C_3   0.499027 0.000237 0.689070 -0.292267
C66   C     C_3   0.499040 0.999636 0.310930 -0.292225
C67   C     C_3   0.999044 0.499622 0.189070 -0.292233
C68   C     C_3   0.999020 0.500024 0.810927 -0.292224
C69   C     C_1   0.500013 0.217732 0.500003 -0.210741
C70   C     C_1   0.500063 0.782267 0.499996 -0.210853
C71   C     C_1   0.000013 0.717732 0.000014 -0.210683
C72   C     C_1   0.000063 0.282267 0.999986 -0.210917
H1    H     H_    0.626005 0.994986 0.789950 0.164944
H2    H     H_    0.625835 0.008172 0.210050 0.165003
H3    H     H_    0.125790 0.508875 0.289948 0.165014
H4    H     H_    0.126097 0.499198 0.710044 0.164926
O1    O     O_R   0.439410 0.107330 0.500000 -0.624376
O2    O     O_R   0.439410 0.892670 0.500000 -0.624489
O3    O     O_R   0.939410 0.607330 0.000000 -0.624362
O4    O     O_R   0.939410 0.392670 0.000000 -0.624498
O5    O     O_R   0.392660 0.500000 0.552510 -0.622629
O6    O     O_R   0.392660 0.500000 0.447490 -0.622608
O7    O     O_R   0.892660 1.000000 0.052510 -0.622605
O8    O     O_R   0.892660 1.000000 0.947490 -0.622633
O9    O     O_R   0.560610 0.107310 0.500000 -0.621259
O10   O     O_R   0.560610 0.892690 0.500000 -0.621374
O11   O     O_R   0.060610 0.607310 0.000000 -0.621116
O12   O     O_R   0.060610 0.392690 0.000000 -0.621520
O13   O     O_R   0.439410 1.000000 0.593020 -0.639081
O14   O     O_R   0.439410 0.000000 0.406980 -0.639069
O15   O     O_R   0.939410 0.500000 0.093020 -0.639068
O16   O     O_R   0.939410 0.500000 0.906980 -0.639084
O17   O     O_R   0.560610 1.000000 0.593010 -0.628756
O18   O     O_R   0.560610 1.000000 0.406990 -0.628796
O19   O     O_R   0.060610 0.500000 0.093010 -0.628798
O20   O     O_R   0.060610 0.500000 0.906990 -0.628768
O21   O     O_R   0.607280 0.939410 0.000000 -0.629808
O22   O     O_R   0.607280 0.060590 0.000000 -0.630040
O23   O     O_R   0.107280 0.439410 0.500000 -0.629555
O24   O     O_R   0.107280 0.560590 0.500000 -0.630303
O25   O     O_R   0.499930 0.939410 0.906960 -0.598939
O26   O     O_R   0.499930 0.060590 0.093040 -0.599829
O27   O     O_R   0.499930 0.939410 0.093040 -0.595607
O28   O     O_R   0.499930 0.060590 0.906960 -0.596383
O29   O     O_R   0.999930 0.439410 0.406960 -0.595410
O30   O     O_R   0.999930 0.560590 0.593040 -0.597431
O31   O     O_R   0.999930 0.439410 0.593040 -0.597842
O32   O     O_R   0.999930 0.560590 0.406960 -0.600052
O33   O     O_R   0.392580 0.939390 0.000000 -0.613061
O34   O     O_R   0.392580 0.060610 0.000000 -0.612452
O35   O     O_R   0.892580 0.439390 0.500000 -0.613582
O36   O     O_R   0.892580 0.560610 0.500000 -0.611912
O37   O     O_R   0.607360 0.500000 0.552500 -0.619760
O38   O     O_R   0.607360 0.500000 0.447500 -0.619757
O39   O     O_R   0.107360 1.000000 0.052500 -0.619761
O40   O     O_R   0.107360 0.000000 0.947500 -0.619757
O41   O     O_R   0.500010 0.392660 0.552500 -0.622926
O42   O     O_R   0.500010 0.607340 0.447500 -0.623002
O43   O     O_R   0.500010 0.392660 0.447500 -0.622315
O44   O     O_R   0.500010 0.607340 0.552500 -0.622388
O45   O     O_R   0.000010 0.892660 0.052500 -0.622342
O46   O     O_R   0.000010 0.107340 0.947500 -0.622553
O47   O     O_R   0.000010 0.892660 0.947500 -0.622769
O48   O     O_R   0.000010 0.107340 0.052500 -0.622970
Zn1   Zn    Zn3+2 0.419080 1.000000 0.500000 0.918266
Zn2   Zn    Zn3+2 0.919080 0.500000 0.000000 0.918272
Zn3   Zn    Zn3+2 0.580940 1.000000 0.500000 0.936070
Zn4   Zn    Zn3+2 0.080940 0.500000 0.000000 0.936073
Zn5   Zn    Zn3+2 0.499940 0.919080 0.000000 1.004074
Zn6   Zn    Zn3+2 0.499940 0.080920 0.000000 1.003131
Zn7   Zn    Zn3+2 0.999940 0.419080 0.500000 1.004822
Zn8   Zn    Zn3+2 0.999940 0.580920 0.500000 1.002387
Zn9   Zn    Zn3+2 0.500000 0.500000 0.570120 0.953167
Zn10  Zn    Zn3+2 0.500000 0.500000 0.429880 0.953174
Zn11  Zn    Zn3+2 0.000000 1.000000 0.070120 0.953169
Zn12  Zn    Zn3+2 0.000000 1.000000 0.929880 0.953168
C73   C     C_3   0.581236 0.123085 0.704088 -0.370036
C74   C     C_3   0.617862 0.166316 0.756504 -0.847873
H5    H     H_    0.576716 0.186031 0.790752 0.280788
H6    H     H_    0.658488 0.131543 0.781212 0.253677
H7    H     H_    0.646775 0.214322 0.736437 0.243010
H8    H     H_    0.624313 0.101623 0.672358 0.224167
H9    H     H_    0.545096 0.159665 0.676450 0.188301
C75   C     C_3   0.584455 0.878902 0.295791 -0.368690
C76   C     C_3   0.622039 0.836610 0.243295 -0.849341
H10   H     H_    0.581320 0.815852 0.209136 0.280963
H11   H     H_    0.661673 0.872399 0.218498 0.253808
H12   H     H_    0.652251 0.789355 0.263300 0.242609
H13   H     H_    0.627062 0.901413 0.327438 0.224473
H14   H     H_    0.549331 0.841426 0.323485 0.188431
C77   C     C_3   0.567664 0.130433 0.296368 -0.374534
C78   C     C_3   0.600129 0.177347 0.244259 -0.843300
H15   H     H_    0.644495 0.147085 0.219925 0.253451
H16   H     H_    0.557535 0.192626 0.209643 0.280039
H17   H     H_    0.623561 0.228120 0.264559 0.243580
H18   H     H_    0.527671 0.163005 0.323782 0.188058
H19   H     H_    0.612387 0.113426 0.328420 0.222668
C79   C     C_3   0.571035 0.871196 0.703753 -0.373231
C80   C     C_3   0.604452 0.825067 0.755949 -0.844503
H20   H     H_    0.647873 0.856428 0.780486 0.253444
H21   H     H_    0.562088 0.808645 0.790379 0.280349
H22   H     H_    0.629323 0.774941 0.735699 0.243286
H23   H     H_    0.531956 0.837670 0.676238 0.188122
H24   H     H_    0.615448 0.889270 0.671828 0.222978
C81   C     C_3   0.066942 0.630793 0.203565 -0.374676
C82   C     C_3   0.099149 0.677909 0.255646 -0.843078
H25   H     H_    0.056465 0.692982 0.290243 0.280023
H26   H     H_    0.143668 0.647895 0.280009 0.253431
H27   H     H_    0.122315 0.728793 0.235315 0.243566
H28   H     H_    0.111755 0.614020 0.171520 0.222556
H29   H     H_    0.026767 0.663133 0.176135 0.188060
C83   C     C_3   0.075432 0.373504 0.796140 -0.372092
C84   C     C_3   0.110306 0.328597 0.743871 -0.845760
H30   H     H_    0.068475 0.310810 0.709467 0.280461
H31   H     H_    0.152613 0.361436 0.719317 0.253537
H32   H     H_    0.136878 0.279305 0.764055 0.243365
H33   H     H_    0.119276 0.393029 0.828009 0.223565
H34   H     H_    0.037567 0.338639 0.823687 0.188166
C85   C     C_3   0.076965 0.625573 0.796038 -0.371296
C86   C     C_3   0.112358 0.669994 0.743720 -0.847010
H35   H     H_    0.154272 0.636609 0.719196 0.253593
H36   H     H_    0.070737 0.688262 0.709299 0.280577
H37   H     H_    0.139512 0.718972 0.763852 0.243009
H38   H     H_    0.039538 0.660935 0.823571 0.188114
H39   H     H_    0.120589 0.605519 0.827904 0.223755
C87   C     C_3   0.085123 0.379353 0.204281 -0.368517
C88   C     C_3   0.122910 0.337278 0.256810 -0.849509
H40   H     H_    0.162344 0.373285 0.281601 0.253825
H41   H     H_    0.082289 0.316314 0.290967 0.280998
H42   H     H_    0.153381 0.290177 0.236839 0.242608
H43   H     H_    0.050215 0.341681 0.176592 0.188472
H44   H     H_    0.127626 0.402082 0.172640 0.224535
O49   O     O_3   0.433819 0.123197 0.797930 -0.591949
C89   C     C_3   0.416021 0.175955 0.752136 -0.301194
H45   H     H_    0.413246 0.154617 0.703454 0.134991
H46   H     H_    0.456465 0.221157 0.753819 0.181579
H47   H     H_    0.361597 0.199366 0.763505 0.186587
O50   O     O_3   0.437063 0.875073 0.202096 -0.591444
C90   C     C_3   0.420583 0.821936 0.247923 -0.301123
H48   H     H_    0.417470 0.843191 0.296618 0.134533
H49   H     H_    0.462039 0.777638 0.246155 0.181533
H50   H     H_    0.366672 0.797335 0.236661 0.186702
O51   O     O_3   0.421105 0.115056 0.201955 -0.594179
C91   C     C_3   0.398124 0.165932 0.247591 -0.301202
H51   H     H_    0.434294 0.214633 0.246231 0.181608
H52   H     H_    0.396742 0.144300 0.296224 0.136817
H53   H     H_    0.341926 0.184327 0.235790 0.186370
O52   O     O_3   0.424155 0.882865 0.798001 -0.593617
C92   C     C_3   0.402288 0.831590 0.752297 -0.301041
H54   H     H_    0.439253 0.783474 0.753876 0.181647
H55   H     H_    0.400888 0.853099 0.703622 0.136166
H56   H     H_    0.346320 0.812333 0.763848 0.186508
O53   O     O_3   0.920487 0.614638 0.298003 -0.594310
C93   C     C_3   0.897199 0.665367 0.252345 -0.301156
H57   H     H_    0.896004 0.643743 0.203712 0.136843
H58   H     H_    0.933041 0.714309 0.253721 0.181620
H59   H     H_    0.840869 0.683381 0.264110 0.186359
O54   O     O_3   0.928190 0.380204 0.702037 -0.592900
C94   C     C_3   0.908121 0.328214 0.747770 -0.301149
H60   H     H_    0.905984 0.349680 0.796433 0.135753
H61   H     H_    0.946729 0.281405 0.746212 0.181622
H62   H     H_    0.852855 0.307022 0.736234 0.186461
O55   O     O_3   0.929621 0.620694 0.701998 -0.592590
C95   C     C_3   0.910222 0.672951 0.747714 -0.301244
H63   H     H_    0.949469 0.719204 0.746188 0.181544
H64   H     H_    0.907732 0.651493 0.796372 0.135564
H65   H     H_    0.855267 0.694939 0.736133 0.186770
O56   O     O_3   0.937745 0.374738 0.297938 -0.591341
C96   C     C_3   0.921552 0.321516 0.252123 -0.301130
H66   H     H_    0.963239 0.277435 0.253910 0.181530
H67   H     H_    0.918335 0.342753 0.203422 0.134482
H68   H     H_    0.867769 0.296631 0.263384 0.186692
C97   C     C_3   0.349310 0.006279 0.707324 -0.349051
C98   C     C_3   0.295077 0.008630 0.761588 -0.823908
H69   H     H_    0.300370 0.958975 0.791120 0.283766
H70   H     H_    0.304315 0.057873 0.790889 0.283927
H71   H     H_    0.238421 0.010855 0.742895 0.233084
H72   H     H_    0.341370 0.055482 0.677723 0.208731
H73   H     H_    0.337329 0.957749 0.677930 0.209955
C99   C     C_3   0.349542 0.989787 0.292695 -0.349163
C100  C     C_3   0.295373 0.986009 0.238445 -0.823609
H74   H     H_    0.299341 0.035775 0.208901 0.283786
H75   H     H_    0.305902 0.937012 0.209154 0.283980
H76   H     H_    0.238801 0.982324 0.257151 0.233028
H77   H     H_    0.342928 0.940417 0.322327 0.208293
H78   H     H_    0.336276 0.038008 0.322064 0.210336
C101  C     C_3   0.849602 0.488967 0.207303 -0.349178
C102  C     C_3   0.795455 0.484870 0.261553 -0.823619
H79   H     H_    0.806247 0.435914 0.290838 0.283993
H80   H     H_    0.799159 0.534640 0.291104 0.283758
H81   H     H_    0.738904 0.480892 0.242847 0.233028
H82   H     H_    0.836066 0.537126 0.177937 0.210400
H83   H     H_    0.843264 0.439574 0.177668 0.208221
C103  C     C_3   0.849184 0.500956 0.792668 -0.348986
C104  C     C_3   0.794902 0.501330 0.738403 -0.823763
H84   H     H_    0.802456 0.550797 0.709009 0.283934
H85   H     H_    0.801883 0.451820 0.708966 0.283832
H86   H     H_    0.738204 0.501662 0.757096 0.233069
H87   H     H_    0.838917 0.452096 0.822150 0.209441
H88   H     H_    0.839517 0.549909 0.822181 0.209246

loop_
_geom_bond_atom_site_label_1
_geom_bond_atom_site_label_2
_ccdc_geom_bond_type
C83   H33   S    
C81   H29   S    
C32   O18   A    
O51   C91   S    
C104  H85   S    
O6    Zn10  S    
C9    O22   A    
O44   Zn9   S    
O15   Zn2   S    
O25   Zn5   S    
C61   C97   S    
C48   H4    S    
C89   H46   S    
O55   C95   S    
C50   C54   S    
C46   H2    S    
C39   C66   S    
C73   H8    S    
O41   Zn9   S    
C95   H63   S    
C42   C58   S    
C20   O42   A    
C76   H10   S    
C91   H52   S    
C9    C25   S    
C41   C67   S    
C81   C82   S    
O13   Zn1   S    
C101  H82   S    
C102  H79   S    
C25   C28   T    
O30   Zn8   S    
C29   C36   T    
C43   C85   S    
C59   C64   S    
C96   H66   S    
O39   Zn11  S    
C30   C35   T    
C60   C63   S    
C2    O2    A    
C64   C68   S    
C40   C79   S    
C23   O6    A    
C24   O7    A    
C34   O20   A    
C4    O4    A    
C96   H68   S    
C33   O15   A    
C7    C71   T    
C1    O1    A    
C93   H58   S    
C89   H47   S    
C16   C30   S    
C55   C62   S    
C39   C77   S    
C92   H56   S    
C62   C99   S    
O20   Zn4   S    
C45   H1    S    
C100  H74   S    
C95   H64   S    
C87   H43   S    
C15   O33   A    
O56   C96   S    
C88   H42   S    
C75   H14   S    
C92   H55   S    
C4    O12   A    
C13   C51   S    
C53   C61   S    
O19   Zn4   S    
C32   O14   A    
C38   C66   S    
C102  H80   S    
O52   C92   S    
C31   O13   A    
C20   O44   A    
C41   C81   S    
C78   H15   S    
C90   H50   S    
C8    C22   S    
C77   C78   S    
C80   H21   S    
C22   O46   A    
O50   C90   S    
C51   C57   S    
C103  H88   S    
O21   Zn5   S    
C44   C47   S    
C43   C48   S    
O7    Zn11  S    
O42   Zn10  S    
C102  H81   S    
C79   H24   S    
C37   C53   S    
C10   C26   S    
C89   H45   S    
C73   H9    S    
C104  H86   S    
C19   O43   A    
C90   H48   S    
C37   C73   S    
C1    O9    A    
C15   O34   A    
C97   H73   S    
C98   H70   S    
C13   O32   A    
C33   O19   A    
O11   Zn4   S    
C76   H11   S    
C86   H36   S    
C17   O38   A    
C15   C29   S    
C64   C103  S    
C84   H31   S    
C58   C64   S    
C40   C45   S    
C52   C58   S    
C63   C67   S    
C8    C72   T    
O43   Zn10  S    
C88   H41   S    
C62   C66   S    
C17   O37   A    
C22   O48   A    
C6    C70   T    
C21   O45   A    
C24   C28   S    
C82   H26   S    
C12   O27   A    
C13   O29   A    
C18   O40   A    
C94   H60   S    
C93   H57   S    
C43   C68   S    
C47   C51   S    
C54   C62   S    
C40   C56   S    
O18   Zn3   S    
C3    O11   A    
C99   H78   S    
C1    C69   S    
C85   C86   S    
C37   C65   S    
C100  H75   S    
C98   H71   S    
C79   C80   S    
C21   O47   A    
C3    C71   S    
C97   H72   S    
O17   Zn3   S    
C12   O26   A    
C103  C104  S    
C11   C49   S    
C52   C59   S    
C42   C68   S    
C94   H61   S    
C80   H20   S    
C56   O52   S    
C78   H17   S    
C45   C49   S    
C55   O51   S    
O22   Zn6   S    
O24   Zn8   S    
C92   H54   S    
C41   C47   S    
C80   H22   S    
C11   O25   A    
C42   C48   S    
C77   H18   S    
O36   Zn8   S    
C10   O24   A    
O27   Zn5   S    
O46   Zn12  S    
C3    O3    A    
C11   O28   A    
O29   Zn7   S    
C59   O55   S    
C79   H23   S    
C39   C46   S    
C5    C19   S    
C101  H83   S    
O35   Zn7   S    
C14   O31   A    
O28   Zn6   S    
O3    Zn2   S    
C78   H16   S    
C23   C27   S    
C40   C65   S    
C26   C27   T    
C82   H25   S    
C74   H6    S    
O9    Zn3   S    
C98   H69   S    
C34   C68   S    
C104  H84   S    
C95   H65   S    
C77   H19   S    
C4    C72   S    
C76   H12   S    
O1    Zn1   S    
C86   H35   S    
C33   C67   S    
C32   C66   S    
C85   H38   S    
C97   C98   S    
C84   H32   S    
C83   H34   S    
C81   H28   S    
C31   C65   S    
O8    Zn12  S    
O32   Zn8   S    
C9    O21   A    
C16   O36   A    
C23   O5    A    
O48   Zn11  S    
O10   Zn3   S    
O2    Zn1   S    
C38   C75   S    
C42   C83   S    
C57   C63   S    
C57   O53   S    
C75   C76   S    
C74   H7    S    
O16   Zn2   S    
C18   O39   A    
C12   C50   S    
C101  C102  S    
C86   H37   S    
O5    Zn9   S    
O40   Zn12  S    
C43   C59   S    
C39   C55   S    
C49   C56   S    
C63   C101  S    
C73   C74   S    
C46   C50   S    
O34   Zn6   S    
C50   C55   S    
C54   O50   S    
O23   Zn7   S    
O47   Zn12  S    
C100  H76   S    
O31   Zn7   S    
C24   O8    A    
C41   C57   S    
C88   H40   S    
O12   Zn4   S    
C31   O17   A    
C53   O49   S    
C94   H62   S    
O33   Zn5   S    
C58   O54   S    
C18   C36   S    
O54   C94   S    
C99   H77   S    
O4    Zn2   S    
C6    C20   S    
C44   C60   S    
O53   C93   S    
C7    C21   S    
C14   C52   S    
C99   C100  S    
O38   Zn10  S    
O14   Zn1   S    
C85   H39   S    
C2    O10   A    
C91   H53   S    
C93   H59   S    
C61   C65   S    
C87   H44   S    
C10   O23   A    
C75   H13   S    
C34   O16   A    
C38   C46   S    
C49   C53   S    
C74   H5    S    
C47   H3    S    
C83   C84   S    
C38   C54   S    
C48   C52   S    
C103  H87   S    
C91   H51   S    
O45   Zn11  S    
C82   H27   S    
C96   H67   S    
O49   C89   S    
C14   O30   A    
C90   H49   S    
C56   C61   S    
C44   C67   S    
O37   Zn9   S    
C51   C60   S    
C17   C35   S    
C60   O56   S    
C87   C88   S    
C2    C70   S    
C84   H30   S    
C37   C45   S    
C5    C69   T    
C16   O35   A    
C44   C87   S    
C19   O41   A    
O26   Zn6   S    
