data_mof_unit_58033.cif
_audit_creation_date              2012-12-10T19:24:31-0500
_audit_creation_method            fapswitch 2.2
_symmetry_space_group_name_H-M    P1
_symmetry_Int_Tables_number       1
_space_group_crystal_system       triclinic
_cell_length_a                    18.075391
_cell_length_b                    16.630049
_cell_length_c                    11.073698
_cell_angle_alpha                 89.044057
_cell_angle_beta                  95.642077
_cell_angle_gamma                 90.260831
_cell_volume                      3312.0930474

loop_
_atom_site_label
_atom_site_type_symbol
_atom_type_description
_atom_site_fract_x
_atom_site_fract_y
_atom_site_fract_z
_atom_type_partial_charge
C1    C     C_R   0.354849 0.499686 0.501368 0.954878
C2    C     C_R   0.644994 0.499874 0.498904 0.871603
C3    C     C_R   0.885947 0.491851 0.491405 -0.149831
C4    C     C_R   0.112453 0.492770 0.498280 -0.149281
C5    C     C_1   0.965801 0.489657 0.493499 0.249602
C6    C     C_1   0.032559 0.490011 0.495498 0.251306
C7    C     C_R   0.541115 0.830268 0.591080 -0.181386
C8    C     C_R   0.452575 0.169551 0.416187 -0.186086
C9    C     C_R   0.458993 0.831712 0.408195 -0.179875
C10   C     C_R   0.549780 0.167864 0.578802 -0.175781
C11   C     C_R   0.545839 0.744485 0.586992 0.515036
C12   C     C_R   0.451109 0.255718 0.417198 0.473708
C13   C     C_R   0.454275 0.745821 0.412683 0.529178
C14   C     C_R   0.550164 0.254012 0.580308 0.487959
C15   C     C_R   0.500051 0.874079 0.499503 -0.081078
C16   C     C_R   0.500849 0.125694 0.497818 -0.081024
C17   C     C_1   0.500324 0.963115 0.498792 0.040103
C18   C     C_1   0.500535 0.036592 0.498124 0.033079
C19   C     C_R   0.509058 0.501032 0.262788 0.848901
C20   C     C_R   0.490990 0.499465 0.737446 0.946961
C21   C     C_R   0.547595 0.651076 0.098475 0.387180
C22   C     C_R   0.463259 0.347653 0.907989 0.398072
C23   C     C_R   0.447272 0.647079 0.890023 0.373651
C24   C     C_R   0.570488 0.368249 0.103701 0.244946
C25   C     C_R   0.524836 0.723332 0.038386 -0.100115
C26   C     C_R   0.492624 0.279600 0.975651 -0.087336
C27   C     C_R   0.469367 0.721438 0.941643 -0.109804
C28   C     C_R   0.548557 0.290358 0.071443 -0.095847
C29   C     C_R   0.480402 0.573886 0.937336 -0.075311
C30   C     C_R   0.522864 0.431770 0.063437 -0.032158
C31   C     C_R   0.515749 0.576380 0.058012 -0.040715
C32   C     C_R   0.487327 0.426548 0.944404 -0.062914
C33   C     C_R   0.478454 0.499160 0.872591 -0.051365
C34   C     C_R   0.522067 0.503918 0.128203 -0.074205
C35   C     C_R   0.847782 0.564358 0.462900 0.338116
C36   C     C_R   0.151857 0.424039 0.470606 0.315877
C37   C     C_R   0.151188 0.563918 0.530806 0.323599
C38   C     C_R   0.846120 0.421468 0.515490 0.339011
C39   C     C_R   0.771426 0.569042 0.479512 -0.156452
C40   C     C_R   0.229997 0.424229 0.491808 -0.168014
C41   C     C_R   0.227997 0.568963 0.516611 -0.170900
C42   C     C_R   0.767825 0.423117 0.500106 -0.102525
C43   C     C_R   0.728800 0.497925 0.495147 -0.183386
C44   C     C_R   0.270583 0.498051 0.502631 -0.171704
Cu1   Cu    Cu3+1 0.500000 0.580420 0.500000 1.176238
Cu2   Cu    Cu3+1 0.500000 0.419580 0.500000 1.127545
N1    N     N_R   0.500000 0.701220 0.500000 -0.265876
N2    N     N_R   0.500000 0.298780 0.500000 -0.286059
O1    O     O_R   0.391260 0.567930 0.500000 -0.538838
O2    O     O_R   0.608740 0.432070 0.500000 -0.604411
O3    O     O_R   0.608740 0.567930 0.500000 -0.528053
O4    O     O_R   0.391260 0.432070 0.500000 -0.539914
O5    O     O_R   0.500000 0.567910 0.319660 -0.507818
O6    O     O_R   0.500000 0.432090 0.680340 -0.515621
O7    O     O_R   0.500000 0.567910 0.680340 -0.529061
O8    O     O_R   0.500000 0.432090 0.319660 -0.575026
C45   C     C_1   0.583160 0.222282 0.137596 0.350555
N3    N     N_1   0.610626 0.167895 0.190701 -0.210392
C46   C     C_1   0.439808 0.797026 0.889609 0.420125
N4    N     N_1   0.416451 0.857200 0.848276 -0.200697
C47   C     C_1   0.469316 0.198371 0.943076 0.462489
N5    N     N_1   0.450951 0.133641 0.917176 -0.199545
C48   C     C_1   0.553823 0.800631 0.081415 0.433007
N6    N     N_1   0.576708 0.862162 0.115580 -0.201873
S1    S     S_3+6 0.624652 0.657617 0.208130 0.029806
O9    O     O_2   0.599063 0.701566 0.313315 -0.308956
O10   O     O_2   0.654896 0.577257 0.248841 -0.315565
O11   O     O_3   0.692606 0.711330 0.151209 -0.454147
H1    H     H_    0.703216 0.682472 0.077318 0.381694
S2    S     S_3+6 0.385615 0.330739 0.801719 0.003551
O12   O     O_2   0.412692 0.288158 0.696530 -0.286153
O13   O     O_2   0.330838 0.276734 0.857559 -0.283607
O14   O     O_3   0.341898 0.415365 0.753945 -0.554786
H2    H     H_    0.303044 0.422752 0.809919 0.390237
S3    S     S_3+6 0.369720 0.649868 0.781840 0.006221
O15   O     O_2   0.395272 0.691369 0.672406 -0.310549
O16   O     O_2   0.339494 0.568463 0.750173 -0.330989
O17   O     O_3   0.302110 0.704761 0.833980 -0.459199
H3    H     H_    0.292522 0.678337 0.911779 0.369601
S4    S     S_3+6 0.667210 0.389392 0.108118 0.085335
O18   O     O_2   0.711306 0.314891 0.090076 -0.223541
O19   O     O_2   0.679767 0.449433 0.009140 -0.177865
O20   O     O_3   0.698273 0.428924 0.240417 -0.475522
H4    H     H_    0.654053 0.428129 0.286014 0.302008
S5    S     S_3+6 0.894163 0.649912 0.404064 0.083112
O21   O     O_2   0.915939 0.706230 0.506279 -0.212262
O22   O     O_2   0.962040 0.626123 0.345184 -0.234658
O23   O     O_3   0.836543 0.698204 0.298719 -0.465958
H5    H     H_    0.862779 0.748726 0.280493 0.400323
S6    S     S_3+6 0.104169 0.335987 0.414145 0.080506
O24   O     O_2   0.086234 0.283867 0.519547 -0.208382
O25   O     O_2   0.033669 0.358040 0.337613 -0.217594
O26   O     O_3   0.157970 0.284017 0.327884 -0.466083
H6    H     H_    0.130434 0.233383 0.309257 0.403077
S7    S     S_3+6 0.104426 0.647960 0.588149 0.074710
O27   O     O_2   0.082777 0.705681 0.485030 -0.208680
O28   O     O_2   0.036376 0.622229 0.646600 -0.241452
O29   O     O_3   0.161472 0.695323 0.693248 -0.469651
H7    H     H_    0.134780 0.744995 0.710937 0.401157
S8    S     S_3+6 0.893613 0.329627 0.556679 0.090913
O30   O     O_2   0.910665 0.288274 0.443110 -0.195488
O31   O     O_2   0.964689 0.345935 0.634777 -0.229802
O32   O     O_3   0.840827 0.268483 0.634972 -0.457478
H8    H     H_    0.868725 0.217286 0.644924 0.400597
C49   C     C_1   0.739453 0.648268 0.475237 0.600979
N7    N     N_1   0.717316 0.713418 0.469906 -0.087536
C50   C     C_1   0.263931 0.347271 0.521374 0.595945
N8    N     N_1   0.287810 0.284227 0.547022 -0.102973
C51   C     C_1   0.259063 0.648716 0.517081 0.607950
N9    N     N_1   0.279559 0.714634 0.518917 -0.087716
C52   C     C_1   0.730585 0.348788 0.463934 0.545248
N10   N     N_1   0.701572 0.289839 0.430586 -0.209189
C53   C     C_1   0.578921 0.874902 0.690835 0.431079
N11   N     N_1   0.608798 0.910017 0.770900 -0.195654
C54   C     C_1   0.404400 0.124237 0.328849 0.435837
N12   N     N_1   0.365873 0.088563 0.259124 -0.178460
C55   C     C_1   0.421762 0.877931 0.307626 0.436125
N13   N     N_1   0.392318 0.914263 0.226896 -0.194092
C56   C     C_1   0.601153 0.120749 0.660674 0.433670
N14   N     N_1   0.642291 0.083572 0.725789 -0.184331
S9    S     S_3+6 0.615399 0.702893 0.701071 0.012226
O33   O     O_2   0.592798 0.722558 0.822896 -0.369397
O34   O     O_2   0.632469 0.615047 0.703361 -0.271170
O35   O     O_3   0.695660 0.753049 0.691407 -0.532829
H9    H     H_    0.728254 0.736449 0.764678 0.395900
S10   S     S_3+6 0.383067 0.298209 0.301810 0.025108
O36   O     O_2   0.309316 0.258999 0.315181 -0.269896
O37   O     O_2   0.370448 0.386941 0.292573 -0.263167
O38   O     O_3   0.406935 0.269040 0.167584 -0.595376
H10   H     H_    0.361745 0.277052 0.110471 0.405972
S11   S     S_3+6 0.386504 0.705732 0.296277 0.007765
O39   O     O_2   0.412119 0.726955 0.176026 -0.369675
O40   O     O_2   0.368708 0.617927 0.295247 -0.286980
O41   O     O_3   0.306121 0.755818 0.299539 -0.534500
H11   H     H_    0.275039 0.739970 0.224968 0.393250
S12   S     S_3+6 0.619107 0.294010 0.694558 0.046969
O42   O     O_2   0.693636 0.262140 0.670608 -0.272954
O43   O     O_2   0.626963 0.382730 0.711204 -0.235987
O44   O     O_3   0.602185 0.253412 0.828214 -0.580744
H12   H     H_    0.650834 0.252156 0.877846 0.411671

loop_
_geom_bond_atom_site_label_1
_geom_bond_atom_site_label_2
_ccdc_geom_bond_type
C19   O8    A    
C4    C36   A    
O26   H6    S    
Cu2   O4    S    
C9    C55   S    
O14   H2    S    
C11   N1    A    
C52   N10   T    
C12   N2    A    
S11   O41   S    
S6    O24   D    
S7    O29   S    
Cu1   Cu2   S    
C7    C11   A    
C21   C31   A    
S10   O36   D    
C22   C32   A    
S6    O26   S    
C23   C29   A    
C26   C47   S    
C38   C42   A    
S4    O20   S    
C5    C6    T    
C12   S10   S    
Cu1   O3    S    
C54   N12   T    
C29   C33   A    
C37   S7    S    
C15   C17   S    
C25   C48   S    
C9    C13   A    
S9    O35   S    
C10   C56   S    
C2    O2    A    
C8    C54   S    
C24   S4    S    
S7    O27   D    
C3    C38   A    
O11   H1    S    
S1    O10   D    
C50   N8    T    
S2    O12   D    
C3    C35   A    
C19   O5    A    
C7    C15   A    
Cu1   O5    S    
C46   N4    T    
C8    C16   A    
C41   C51   S    
C37   C41   A    
C11   S9    S    
C20   O7    A    
S3    O17   S    
Cu1   N1    S    
O44   H12   S    
Cu2   N2    S    
S2    O13   D    
C30   C34   A    
S5    O22   D    
C36   C40   A    
C20   O6    A    
C10   C14   A    
C13   N1    A    
O17   H3    S    
S4    O18   D    
C39   C43   A    
S10   O38   S    
S11   O40   D    
S5    O21   D    
S8    O32   S    
S12   O44   S    
C28   C45   S    
S3    O15   D    
C1    C44   S    
S6    O25   D    
O20   H4    S    
Cu1   O1    S    
C2    C43   S    
C8    C12   A    
S1    O11   S    
Cu2   O6    S    
S2    O14   S    
S8    O31   D    
C17   C18   T    
C13   S11   S    
C31   C34   A    
O23   H5    S    
S3    O16   D    
S9    O33   D    
C40   C50   S    
C20   C33   S    
S4    O19   D    
O29   H7    S    
C23   C27   A    
C41   C44   A    
C4    C6    S    
C42   C43   A    
S11   O39   D    
S12   O43   D    
C53   N11   T    
S5    O23   S    
C36   S6    S    
C39   C49   S    
C21   C25   A    
S10   O37   D    
C21   S1    S    
C42   C52   S    
C24   C28   A    
C23   S3    S    
S12   O42   D    
C3    C5    S    
C19   C34   S    
C14   N2    A    
C56   N14   T    
S7    O28   D    
O41   H11   S    
C25   C27   A    
C49   N7    T    
Cu2   O2    S    
C26   C28   A    
C32   C33   A    
C7    C53   S    
O38   H10   S    
C29   C31   A    
C10   C16   A    
C51   N9    T    
C30   C32   A    
C35   S5    S    
C38   S8    S    
C45   N3    T    
C14   S12   S    
C35   C39   A    
S8    O30   D    
C9    C15   A    
C47   N5    T    
C1    O4    A    
C24   C30   A    
S9    O34   D    
C2    O3    A    
C48   N6    T    
C40   C44   A    
C4    C37   A    
Cu1   O7    S    
C16   C18   S    
S1    O9    D    
C22   C26   A    
Cu2   O8    S    
O32   H8    S    
C27   C46   S    
C55   N13   T    
C1    O1    A    
C22   S2    S    
O35   H9    S    
