data_mof_unit_20771.cif
_audit_creation_date              2012-12-10T16:56:36-0500
_audit_creation_method            fapswitch 2.2
_symmetry_space_group_name_H-M    P1
_symmetry_Int_Tables_number       1
_space_group_crystal_system       triclinic
_cell_length_a                    7.77278
_cell_length_b                    8.573113
_cell_length_c                    15.726892
_cell_angle_alpha                 90.906989
_cell_angle_beta                  85.849951
_cell_angle_gamma                 93.663001
_cell_volume                      1043.04231991

loop_
_atom_site_label
_atom_site_type_symbol
_atom_type_description
_atom_site_fract_x
_atom_site_fract_y
_atom_site_fract_z
_atom_type_partial_charge
C1    C     C_R   0.545782 0.794726 0.497810 0.966241
C2    C     C_3   0.448282 0.356382 0.027703 0.372190
C3    C     C_1   0.506187 0.500335 0.750488 -0.129008
C4    C     C_1   0.493813 0.499665 0.249512 -0.129008
C5    C     C_3   0.338378 0.459515 0.975538 -0.396981
C6    C     C_3   0.661622 0.540485 0.024462 -0.396981
C7    C     C_3   0.502184 0.501326 0.916532 -0.070226
C8    C     C_3   0.497816 0.498674 0.083468 -0.070226
C9    C     C_1   0.506055 0.500768 0.825695 0.138937
C10   C     C_1   0.493945 0.499232 0.174305 0.138937
C11   C     C_R   0.454217 0.205274 0.502189 0.966241
C12   C     C_R   0.502132 0.500171 0.661876 0.896808
C13   C     C_R   0.497868 0.499829 0.338124 0.896808
C14   C     C_2   0.569869 0.958229 0.496557 -0.350604
C15   C     C_2   0.430131 0.041771 0.503443 -0.350604
C16   C     C_3   0.391222 0.601099 0.031830 0.414999
C17   C     C_3   0.608778 0.398901 0.968169 0.414999
C18   C     C_3   0.551718 0.643618 0.972297 0.372190
Cl1   Cl    Cl    0.615966 0.834875 0.934564 -0.488128
Cl2   Cl    Cl    0.384034 0.165125 0.065436 -0.488128
H1    H     H_    0.793130 0.571381 0.045240 0.214837
H2    H     H_    0.206870 0.428619 0.954760 0.214837
H3    H     H_    0.701836 0.009316 0.489988 0.184094
H4    H     H_    0.298164 0.990684 0.510012 0.184094
H5    H     H_    0.013402 0.382002 0.436431 0.200716
H6    H     H_    0.986598 0.617998 0.563569 0.200716
H7    H     H_    0.225614 0.753998 0.019714 0.371798
H8    H     H_    0.774385 0.246002 0.980286 0.371798
N1    N     N_2   0.950320 0.457950 0.477300 -0.166844
N2    N     N_2   0.049680 0.542050 0.522700 -0.166844
O1    O     O_R   0.389250 0.738570 0.505570 -0.612701
O2    O     O_3   0.721796 0.291992 0.931673 -0.676003
O3    O     O_R   0.610750 0.261430 0.494430 -0.612701
O4    O     O_R   0.678390 0.711630 0.491020 -0.628214
O5    O     O_R   0.321610 0.288370 0.508980 -0.628215
O6    O     O_R   0.355460 0.513480 0.630490 -0.606587
O7    O     O_R   0.644540 0.486520 0.369510 -0.606587
O8    O     O_R   0.644600 0.486540 0.615950 -0.614375
O9    O     O_R   0.355400 0.513460 0.384050 -0.614374
O10   O     O_3   0.278204 0.708008 0.068327 -0.676003
Zn1   Zn    Zn3+2 0.306940 0.517990 0.509710 0.979051
Zn2   Zn    Zn3+2 0.693060 0.482010 0.490290 0.979051

loop_
_geom_bond_atom_site_label_1
_geom_bond_atom_site_label_2
_ccdc_geom_bond_type
C14   H3    S    
N2    Zn1   S    
O8    Zn2   S    
N1    N2    D    
C3    C9    T    
C11   O3    A    
N1    Zn2   S    
C12   O6    A    
C13   O7    A    
O4    Zn2   S    
C1    O1    A    
H7    O10   S    
C7    C18   S    
O7    Zn2   S    
C11   O5    A    
C8    C16   S    
C2    C17   S    
C12   O8    A    
O6    Zn1   S    
C11   C15   S    
C16   O10   S    
C6    C18   S    
O3    Zn2   S    
C16   C18   S    
C15   H4    S    
C1    O4    A    
H6    N2    S    
H5    N1    S    
O5    Zn1   S    
C13   O9    A    
C2    C5    S    
C4    C10   T    
C6    C17   S    
C7    C9    S    
C1    C14   S    
H8    O2    S    
O9    Zn1   S    
C8    C10   S    
C18   Cl1   S    
C4    C13   S    
C5    C7    S    
C17   O2    S    
C14   C15   D    
C5    C16   S    
C6    C8    S    
C3    C12   S    
O1    Zn1   S    
C6    H1    S    
C2    Cl2   S    
C2    C8    S    
C5    H2    S    
C7    C17   S    
