data_mof_unit_48606.cif
_audit_creation_date              2012-12-10T20:49:47-0500
_audit_creation_method            fapswitch 2.2
_symmetry_space_group_name_H-M    P1
_symmetry_Int_Tables_number       1
_space_group_crystal_system       triclinic
_cell_length_a                    8.1004
_cell_length_b                    8.922722
_cell_length_c                    16.507766
_cell_angle_alpha                 90.098115
_cell_angle_beta                  84.134634
_cell_angle_gamma                 89.995285
_cell_volume                      1186.89384191

loop_
_atom_site_label
_atom_site_type_symbol
_atom_type_description
_atom_site_fract_x
_atom_site_fract_y
_atom_site_fract_z
_atom_type_partial_charge
C1    C     C_R   0.500028 0.782038 0.499918 1.000940
C2    C     C_R   0.438337 0.339508 0.237340 -0.218176
C3    C     C_R   0.469162 0.302170 0.848366 -0.139743
C4    C     C_R   0.459541 0.279054 0.160175 -0.164069
C5    C     C_R   0.439371 0.415773 0.906059 -0.054416
C6    C     C_R   0.591499 0.325572 0.105017 0.014891
C7    C     C_R   0.417792 0.566975 0.882247 0.376220
C8    C     C_R   0.713466 0.424438 0.129714 0.385356
C9    C     C_R   0.413890 0.598682 0.797933 0.304000
C10   C     C_R   0.681205 0.499718 0.205615 0.294857
C11   C     C_2   0.437751 0.374263 0.991384 -0.116535
C12   C     C_R   0.499982 0.217957 0.500123 0.901993
C13   C     C_2   0.570756 0.309266 0.018432 -0.067540
C14   C     C_1   0.500014 0.934789 0.500067 -0.140319
C15   C     C_1   0.499998 0.065191 0.500141 -0.167593
C16   C     C_R   0.475542 0.504981 0.654191 0.977115
C17   C     C_R   0.524570 0.496800 0.345470 0.992701
C18   C     C_R   0.456109 0.481969 0.741283 -0.203101
C19   C     C_R   0.544829 0.451910 0.260062 -0.208128
C20   C     C_R   0.482052 0.335896 0.766750 -0.214921
H1    H     H_    0.367082 0.201957 0.141522 0.205365
H2    H     H_    0.507013 0.966917 0.711846 0.359527
H3    H     H_    0.486443 0.187124 0.866792 0.226071
H4    H     H_    0.510988 0.246933 0.722767 0.161941
H5    H     H_    0.336140 0.299501 0.279239 0.197024
H6    H     H_    0.674296 0.275210 0.975547 0.225935
H7    H     H_    0.340234 0.421030 0.034118 0.234275
H8    H     H_    0.480364 0.746794 0.078666 0.401550
H9    H     H_    0.051453 0.315775 0.976684 0.382712
H10   H     H_    0.750212 0.853952 0.309923 0.380624
N1    N     N_1   0.926360 0.500000 0.499990 -0.000081
N2    N     N_1   0.073640 0.500000 0.500010 -0.000945
O1    O     O_R   0.363150 0.714660 0.500000 -0.588705
O2    O     O_2   0.230299 0.746164 0.984920 -0.188454
O3    O     O_3   0.506460 0.665480 0.038467 -0.542070
O4    O     O_2   0.874616 0.568560 0.002743 -0.192312
O5    O     O_2   0.041085 0.497057 0.112721 -0.229101
O6    O     O_3   0.956522 0.289087 0.016718 -0.562270
O7    O     O_2   0.943464 0.617723 0.269847 -0.260669
O8    O     O_2   0.847865 0.750646 0.153205 -0.170863
O9    O     O_3   0.673832 0.776494 0.292312 -0.593220
O10   O     O_2   0.283369 0.769703 0.683693 -0.326351
O11   O     O_2   0.239175 0.858332 0.823174 -0.183681
O12   O     O_R   0.636850 0.285340 0.500000 -0.623754
O13   O     O_3   0.535214 0.882955 0.747097 -0.523597
O14   O     O_R   0.636850 0.714660 0.500000 -0.610110
O15   O     O_R   0.363150 0.285340 0.500000 -0.621711
O16   O     O_R   0.346950 0.500000 0.615800 -0.581339
O17   O     O_R   0.653050 0.500000 0.384200 -0.579669
O18   O     O_R   0.620700 0.500000 0.615800 -0.612753
O19   O     O_R   0.379300 0.500000 0.384200 -0.616927
O20   O     O_2   0.491158 0.853506 0.922069 -0.206041
S1    S     S_3+6 0.409190 0.713568 0.957074 0.120747
S2    S     S_3+6 0.901417 0.450497 0.064911 0.084834
S3    S     S_3+6 0.793600 0.663593 0.229146 0.092150
S4    S     S_3+6 0.360749 0.780288 0.762390 0.071502
Zn1   Zn    Zn3+2 0.317220 0.500000 0.500010 1.061346
Zn2   Zn    Zn3+2 0.682780 0.500000 0.499990 1.055485

loop_
_geom_bond_atom_site_label_1
_geom_bond_atom_site_label_2
_ccdc_geom_bond_type
H9    O6    S    
C2    C4    A    
H10   O9    S    
C4    H1    S    
O1    Zn1   S    
O3    S1    S    
O11   S4    D    
C3    H3    S    
N1    N2    T    
O6    S2    S    
C12   C15   S    
C11   H7    S    
C10   C19   A    
O8    S3    D    
C16   O16   A    
C1    O1    A    
C3    C20   A    
C12   O12   A    
C9    S4    S    
O14   Zn2   S    
C6    C13   S    
C10   S3    S    
C11   C13   D    
C17   O19   A    
N2    Zn1   S    
C12   O15   A    
O19   Zn1   S    
O5    S2    D    
N1    Zn2   S    
C8    C10   A    
C17   C19   S    
C16   O18   A    
C5    C11   S    
C2    H5    S    
C18   C20   A    
C1    O14   A    
C13   H6    S    
C4    C6    A    
O15   Zn1   S    
C7    S1    S    
C8    S2    S    
O18   Zn2   S    
C7    C9    A    
C9    C18   A    
O16   Zn1   S    
H2    O13   S    
O4    S2    D    
O20   S1    D    
H8    O3    S    
O2    S1    D    
C16   C18   S    
C17   O17   A    
C5    C7    A    
C14   C15   T    
O9    S3    S    
C6    C8    A    
C1    C14   S    
O10   S4    D    
C2    C19   A    
O7    S3    D    
O17   Zn2   S    
C20   H4    S    
O13   S4    S    
O12   Zn2   S    
C3    C5    A    
