data_mof_unit_28962.cif
_audit_creation_date              2012-10-26T18:52:14-0400
_audit_creation_method            fapswitch 2.2
_symmetry_space_group_name_H-M    P1
_symmetry_Int_Tables_number       1
_space_group_crystal_system       triclinic
_cell_length_a                    13.872859
_cell_length_b                    14.714677
_cell_length_c                    14.853377
_cell_angle_alpha                 115.114024
_cell_angle_beta                  106.615643
_cell_angle_gamma                 72.104131
_cell_volume                      2569.70256161

loop_
_atom_site_label
_atom_site_type_symbol
_atom_type_description
_atom_site_fract_x
_atom_site_fract_y
_atom_site_fract_z
_atom_type_partial_charge
C1    C     C_R   0.516238 0.119110 0.687823 0.550228
C2    C     C_R   0.529149 0.507676 0.882357 -0.094305
C3    C     C_R   0.563101 0.383937 0.101532 0.262024
C4    C     C_R   0.522912 0.612416 0.910629 0.251158
C5    C     C_R   0.302049 0.319743 0.363766 0.209552
C6    C     C_R   0.686605 0.693229 0.658381 0.247870
C7    C     C_R   0.343732 0.223548 0.373010 0.401648
C8    C     C_R   0.647811 0.785033 0.639067 0.427390
C9    C     C_R   0.491079 0.282787 0.485946 -0.014028
C10   C     C_R   0.514420 0.712929 0.510053 -0.032498
C11   C     C_R   0.457944 0.378066 0.471645 -0.061947
C12   C     C_R   0.484131 0.881485 0.312375 0.563715
C13   C     C_R   0.540794 0.624791 0.536257 -0.060250
C14   C     C_R   0.361264 0.395296 0.409181 -0.011150
C15   C     C_R   0.630491 0.614502 0.609324 0.002738
C16   C     C_R   0.687091 0.986470 0.503780 0.527440
C17   C     C_R   0.312852 0.013193 0.495635 0.541461
C18   C     C_R   0.516108 0.457009 0.517931 0.023106
C19   C     C_R   0.480202 0.548156 0.494472 0.032082
C20   C     C_R   0.382025 0.562757 0.435035 -0.166558
C21   C     C_R   0.606497 0.450004 0.590089 -0.144994
C22   C     C_R   0.323887 0.488165 0.393507 -0.141133
C23   C     C_R   0.529008 0.360727 0.923344 -0.011868
C24   C     C_R   0.660062 0.528411 0.636901 -0.088649
C25   C     C_1   0.207093 0.020740 0.492485 -0.022267
C26   C     C_1   0.792816 0.978495 0.506274 -0.036846
C27   C     C_2   0.012372 0.032813 0.487393 -0.122362
C28   C     C_2   0.987519 0.965714 0.510545 -0.126710
C29   C     C_1   0.881776 0.972059 0.508394 -0.061145
C30   C     C_1   0.118124 0.026777 0.489918 -0.059070
C31   C     C_R   0.528198 0.187715 0.795119 -0.000739
C32   C     C_R   0.485644 0.814648 0.206115 0.003172
C33   C     C_R   0.577971 0.211507 0.972264 -0.144539
C34   C     C_R   0.504382 0.641065 0.079486 -0.013233
C35   C     C_R   0.511783 0.783957 0.040618 -0.133843
C36   C     C_R   0.566591 0.146723 0.871092 -0.209945
C37   C     C_R   0.503100 0.849935 0.139462 -0.211541
C38   C     C_R   0.502929 0.295482 0.821806 0.239129
C39   C     C_R   0.476036 0.712732 0.172567 0.244002
C40   C     C_3   0.131719 0.370350 0.370633 -0.013583
C41   C     C_3   0.024377 0.394503 0.311256 -0.367802
C42   C     C_3   0.858291 0.622888 0.694751 -0.037327
C43   C     C_3   0.938218 0.590569 0.776143 -0.376947
C44   C     C_3   0.506066 0.363745 0.221294 -0.008431
C45   C     C_R   0.557258 0.318568 0.999518 0.024815
C46   C     C_3   0.438937 0.284830 0.158410 -0.405208
C47   C     C_3   0.432367 0.651923 0.772359 -0.012679
C48   C     C_3   0.406500 0.746704 0.745533 -0.359628
C49   C     C_3   0.322912 0.693451 0.179405 -0.014889
C50   C     C_3   0.265535 0.673078 0.239531 -0.382380
C51   C     C_3   0.342848 0.361090 0.750650 0.001815
C52   C     C_3   0.283353 0.398694 0.665174 -0.366738
C53   C     C_3   0.777171 0.878802 0.707436 0.040384
C54   C     C_3   0.843987 0.898005 0.812236 -0.381769
C55   C     C_3   0.291790 0.104413 0.220637 0.011144
C56   C     C_R   0.513149 0.679221 0.009807 0.022918
C57   C     C_3   0.239524 0.013420 0.169610 -0.369724
C58   C     C_R   0.524035 0.467063 0.951375 -0.035973
C59   C     C_R   0.521459 0.533435 0.053231 -0.036932
C60   C     C_R   0.545077 0.490056 0.127419 -0.091536
Cu1   Cu    Cu3+1 0.526370 0.916390 0.524860 0.981309
Cu2   Cu    Cu3+1 0.473630 0.083610 0.475140 0.986977
H1    H     H_    0.046346 0.905901 0.531337 0.125337
H2    H     H_    0.544935 0.458821 0.807504 0.181321
H3    H     H_    0.248982 0.503640 0.347887 0.156091
H4    H     H_    0.725295 0.520819 0.696079 0.158564
H5    H     H_    0.452390 0.721877 0.449258 0.165042
H6    H     H_    0.561599 0.265030 0.535152 0.147658
H7    H     H_    0.144999 0.441088 0.437763 0.114646
H8    H     H_    0.134707 0.308624 0.396639 0.161869
H9    H     H_    0.008201 0.324953 0.244472 0.167328
H10   H     H_    0.966238 0.419763 0.359967 0.097326
H11   H     H_    0.018420 0.456920 0.285343 0.154367
H12   H     H_    0.953543 0.092651 0.466652 0.135896
H13   H     H_    0.892665 0.664424 0.669099 0.117462
H14   H     H_    0.842461 0.551915 0.629283 0.113892
H15   H     H_    0.906986 0.547179 0.802728 0.156678
H16   H     H_    0.008552 0.540692 0.745060 0.087522
H17   H     H_    0.959235 0.659355 0.841194 0.150137
H18   H     H_    0.458279 0.442983 0.234977 0.136079
H19   H     H_    0.536081 0.357375 0.296557 0.170917
H20   H     H_    0.485426 0.206079 0.148964 0.143931
H21   H     H_    0.374843 0.299814 0.196785 0.128367
H22   H     H_    0.405137 0.290099 0.083002 0.144144
H23   H     H_    0.346302 0.633503 0.422765 0.097995
H24   H     H_    0.365771 0.654845 0.802460 0.105828
H25   H     H_    0.439955 0.582162 0.702635 0.159352
H26   H     H_    0.472894 0.751718 0.721782 0.185675
H27   H     H_    0.339108 0.742974 0.682901 0.096312
H28   H     H_    0.387716 0.816909 0.812406 0.136062
H29   H     H_    0.314399 0.634964 0.101109 0.128838
H30   H     H_    0.285980 0.771408 0.176987 0.117649
H31   H     H_    0.270900 0.731408 0.317643 0.152201
H32   H     H_    0.183100 0.677994 0.203301 0.100504
H33   H     H_    0.298849 0.594861 0.241366 0.145087
H34   H     H_    0.635649 0.386815 0.615961 0.099272
H35   H     H_    0.325460 0.423330 0.823514 0.119762
H36   H     H_    0.316008 0.292346 0.739480 0.127152
H37   H     H_    0.296758 0.336948 0.591198 0.174159
H38   H     H_    0.199656 0.420302 0.666874 0.076518
H39   H     H_    0.308867 0.466830 0.673504 0.135973
H40   H     H_    0.770653 0.946613 0.689708 0.156450
H41   H     H_    0.815952 0.811008 0.649236 0.095377
H42   H     H_    0.921907 0.901817 0.809917 0.081138
H43   H     H_    0.808975 0.972198 0.866908 0.148524
H44   H     H_    0.851810 0.836199 0.839229 0.202958
H45   H     H_    0.510034 0.928505 0.163614 0.128662
H46   H     H_    0.372687 0.077266 0.207631 0.117975
H47   H     H_    0.250286 0.161138 0.183991 0.159583
H48   H     H_    0.156853 0.039794 0.176140 0.151496
H49   H     H_    0.245763 0.976457 0.088366 0.086638
H50   H     H_    0.276653 0.956045 0.205960 0.160496
H51   H     H_    0.585703 0.064463 0.852505 0.177063
H52   H     H_    0.603879 0.177227 0.029084 0.170376
H53   H     H_    0.521421 0.814445 0.989721 0.172581
H54   H     H_    0.557082 0.536869 0.207055 0.179350
N1    N     N_R   0.433980 0.209250 0.437830 -0.259088
N2    N     N_R   0.566020 0.790750 0.562170 -0.261020
O1    O     O_R   0.534760 0.019630 0.662610 -0.467556
O2    O     O_3   0.769474 0.687517 0.735870 -0.554748
O3    O     O_3   0.591721 0.343373 0.176576 -0.573491
O4    O     O_3   0.527138 0.649934 0.841077 -0.557129
O5    O     O_3   0.427881 0.687262 0.225772 -0.573817
O6    O     O_3   0.449097 0.336619 0.748729 -0.565060
O7    O     O_3   0.677278 0.874945 0.709750 -0.522174
O8    O     O_3   0.288376 0.146814 0.325000 -0.515598
O9    O     O_R   0.465240 0.980370 0.337390 -0.495207
O10   O     O_R   0.490220 0.160840 0.620610 -0.456402
O11   O     O_R   0.509780 0.839160 0.379390 -0.461909
O12   O     O_R   0.663260 0.919400 0.523940 -0.506961
O13   O     O_R   0.336740 0.080600 0.476060 -0.450972
O14   O     O_R   0.618720 0.060610 0.481950 -0.507885
O15   O     O_R   0.381280 0.939390 0.518050 -0.511045
O16   O     O_3   0.204719 0.338454 0.307778 -0.586434

loop_
_geom_bond_atom_site_label_1
_geom_bond_atom_site_label_2
_ccdc_geom_bond_type
C51   H35   S    
C23   C58   A    
C11   C18   A    
C34   C56   A    
C23   C45   A    
Cu1   O1    S    
C18   C21   A    
C33   C45   A    
C7    N1    A    
C19   C20   A    
C1    O10   A    
C8    N2    A    
C12   O9    A    
C10   H5    S    
C43   H16   S    
C42   H13   S    
C40   H8    S    
C54   H42   S    
C28   C29   S    
C35   C37   A    
C37   H45   S    
Cu2   O9    S    
C11   C14   A    
C50   H33   S    
C57   H50   S    
C17   O13   A    
C43   H17   S    
C49   O5    S    
C44   O3    S    
C1    C31   S    
C33   C36   A    
C39   O5    S    
C18   C19   A    
C1    O1    A    
C32   C39   A    
Cu2   N1    S    
C6    C15   A    
C46   H20   S    
C47   C48   S    
C44   C46   S    
C48   H26   S    
C35   H53   S    
C27   H12   S    
C16   O12   A    
C24   H4    S    
C41   H9    S    
C3    C60   A    
C51   H36   S    
C35   C56   A    
C59   C60   A    
C48   H28   S    
C4    C56   A    
C27   C30   S    
C51   O6    S    
C49   H29   S    
C36   H51   S    
C6    O2    S    
C2    H2    S    
C16   C26   S    
C5    O16   S    
C52   H39   S    
C40   H7    S    
C13   C19   A    
Cu1   O15   S    
C51   C52   S    
C47   H24   S    
Cu2   O14   S    
C44   H18   S    
C44   H19   S    
C12   O11   A    
C5    C7    A    
C54   H44   S    
C50   H32   S    
C47   O4    S    
C6    C8    A    
C58   C59   A    
C53   C54   S    
C40   O16   S    
C3    C45   A    
C34   C39   A    
C47   H25   S    
C2    C4    A    
C22   H3    S    
C10   N2    A    
C57   H48   S    
C55   O8    S    
C53   H40   S    
C20   H23   S    
C33   H52   S    
C4    O4    S    
C32   C37   A    
C9    C11   A    
C5    C14   A    
C53   O7    S    
Cu1   O12   S    
C41   H10   S    
C46   H22   S    
C40   C41   S    
C20   C22   A    
C48   H27   S    
C55   C57   S    
C17   O15   A    
C34   C59   A    
C60   H54   S    
C12   C32   S    
C42   C43   S    
C49   H30   S    
C25   C30   T    
C15   C24   A    
C54   H43   S    
Cu1   N2    S    
Cu2   O13   S    
C10   C13   A    
C2    C58   A    
C50   H31   S    
C21   H34   S    
Cu1   O11   S    
C43   H15   S    
C23   C38   A    
C52   H37   S    
C42   H14   S    
C31   C38   A    
C55   H46   S    
C17   C25   S    
C14   C22   A    
C13   C15   A    
C9    H6    S    
Cu2   O10   S    
C42   O2    S    
C57   H49   S    
C53   H41   S    
C52   H38   S    
C7    O8    S    
Cu1   Cu2   S    
C16   O14   A    
C38   O6    S    
C41   H11   S    
C46   H21   S    
C28   H1    S    
C8    O7    S    
C26   C29   T    
C49   C50   S    
C21   C24   A    
C27   C28   D    
C31   C36   A    
C55   H47   S    
C9    N1    A    
C3    O3    S    
