data_mof_unit_43645.cif
_audit_creation_date              2012-12-11T14:13:10-0500
_audit_creation_method            fapswitch 2.2
_symmetry_space_group_name_H-M    P1
_symmetry_Int_Tables_number       1
_space_group_crystal_system       triclinic
_cell_length_a                    11.73289
_cell_length_b                    18.489983
_cell_length_c                    10.128884
_cell_angle_alpha                 90.57787
_cell_angle_beta                  110.538408
_cell_angle_gamma                 89.583968
_cell_volume                      2057.57774363

loop_
_atom_site_label
_atom_site_type_symbol
_atom_type_description
_atom_site_fract_x
_atom_site_fract_y
_atom_site_fract_z
_atom_type_partial_charge
C1    C     C_R   0.072199 0.646896 0.139987 0.588094
C2    C     C_R   0.928078 0.352906 0.859990 0.588481
C3    C     C_R   0.927352 0.147158 0.859399 0.606761
C4    C     C_R   0.072772 0.852906 0.140630 0.607015
C5    C     C_R   0.398774 0.464744 0.515968 -0.001241
C6    C     C_R   0.603186 0.536490 0.488343 -0.005206
C7    C     C_R   0.604337 0.960159 0.505395 0.019485
C8    C     C_R   0.395223 0.040101 0.493857 0.019175
C9    C     C_2   0.405359 0.924156 0.923858 -0.069927
C10   C     C_2   0.595500 0.075114 0.074138 -0.066067
C11   C     C_2   0.595698 0.424183 0.080565 -0.112073
C12   C     C_2   0.395805 0.569624 0.937796 -0.096420
C13   C     C_2   0.497902 0.961182 0.010122 -0.091372
C14   C     C_2   0.505636 0.037334 0.984980 -0.089196
C15   C     C_2   0.489808 0.455354 0.013851 -0.151179
C16   C     C_2   0.479813 0.531881 0.034819 -0.146400
C17   C     C_2   0.999433 0.918052 0.108024 0.288732
C18   C     C_2   0.001249 0.082236 0.892117 0.288712
C19   C     C_2   0.996301 0.420302 0.885998 0.255458
C20   C     C_2   0.005521 0.578865 0.114063 0.255602
C21   C     C_2   0.040817 0.973037 0.049569 0.186417
C22   C     C_2   0.960041 0.026974 0.950059 0.186566
C23   C     C_2   0.005561 0.459650 0.000865 0.156062
C24   C     C_2   0.997502 0.539421 0.999459 0.153980
C25   C     C_R   0.472565 0.647717 0.443296 0.572462
C26   C     C_R   0.527738 0.352599 0.557328 0.574527
C27   C     C_R   0.529358 0.147294 0.556423 0.584868
C28   C     C_R   0.470552 0.852782 0.443437 0.585665
C29   C     C_R   0.374272 0.643835 0.967106 0.540744
C30   C     C_R   0.623922 0.354388 0.036493 0.543012
C31   C     C_R   0.623853 0.145579 0.035490 0.565730
C32   C     C_R   0.376327 0.854223 0.964125 0.567908
C33   C     C_R   0.492934 0.424404 0.490078 0.016521
C34   C     C_R   0.508762 0.576688 0.513343 0.016900
C35   C     C_R   0.501190 0.924338 0.514376 0.024708
C36   C     C_R   0.498419 0.075889 0.484982 0.024739
C37   C     C_R   0.284958 0.434994 0.511986 0.255257
C38   C     C_R   0.716395 0.566810 0.492035 0.252634
C39   C     C_R   0.714459 0.923196 0.520340 0.257333
C40   C     C_R   0.285235 0.077166 0.479190 0.256905
C41   C     C_R   0.197591 0.480290 0.534973 0.014443
C42   C     C_R   0.803904 0.522213 0.467596 0.012712
C43   C     C_R   0.798854 0.954308 0.470183 0.001489
C44   C     C_R   0.200939 0.046114 0.529564 0.001483
C45   C     C_R   0.224482 0.551430 0.578210 0.148195
C46   C     C_R   0.777874 0.450904 0.424946 0.148892
C47   C     C_R   0.784237 0.025309 0.423674 0.133504
C48   C     C_R   0.215449 0.975094 0.575954 0.133140
C49   C     C_R   0.338306 0.578113 0.597053 -0.103817
C50   C     C_R   0.665009 0.423418 0.408423 -0.102813
C51   C     C_R   0.684553 0.065434 0.426594 -0.089877
C52   C     C_R   0.314913 0.934857 0.572627 -0.090189
C53   C     C_R   0.417959 0.539507 0.546222 -0.069821
C54   C     C_R   0.584634 0.461688 0.458668 -0.072215
C55   C     C_R   0.595192 0.034293 0.471429 -0.051198
C56   C     C_R   0.404290 0.965942 0.527718 -0.051711
Cr1   Cr    Cr6+3 0.187610 0.750000 0.979860 1.193620
Cr2   Cr    Cr6+3 0.812390 0.250000 0.020140 1.193314
Cr3   Cr    Cr6+3 0.245810 0.750000 0.341640 1.111386
Cr4   Cr    Cr6+3 0.754190 0.250000 0.658360 1.111077
Cr5   Cr    Cr6+3 0.485760 0.750000 0.219910 1.132555
Cr6   Cr    Cr6+3 0.514240 0.250000 0.780090 1.133280
H1    H     H_    0.108230 0.460179 0.519098 0.255880
H2    H     H_    0.892552 0.543031 0.481851 0.254485
H3    H     H_    0.874460 0.922561 0.465090 0.231636
H4    H     H_    0.125543 0.077946 0.535032 0.231536
H5    H     H_    0.360084 0.632234 0.640224 0.159503
H6    H     H_    0.643761 0.369370 0.364775 0.161074
H7    H     H_    0.673790 0.119729 0.384921 0.162458
H8    H     H_    0.325585 0.880560 0.614265 0.162951
H9    H     H_    0.441726 0.061358 0.889787 0.186104
H10   H     H_    0.563163 0.936817 0.103954 0.189186
H11   H     H_    0.543102 0.557400 0.129235 0.175815
H12   H     H_    0.416527 0.426830 0.933650 0.189286
H13   H     H_    0.661043 0.048121 0.161664 0.160841
H14   H     H_    0.338554 0.951620 0.838109 0.162582
H15   H     H_    0.330409 0.541987 0.849165 0.153810
H16   H     H_    0.669896 0.455636 0.151856 0.159768
O1    O     O_R   0.267710 0.668200 0.902110 -0.457484
O2    O     O_R   0.732290 0.331800 0.097890 -0.457903
O3    O     O_R   0.732290 0.168200 0.097890 -0.453833
O4    O     O_R   0.267710 0.831800 0.902110 -0.452720
O5    O     O_R   0.099480 0.674460 0.038850 -0.473429
O6    O     O_R   0.900520 0.325540 0.961150 -0.473083
O7    O     O_R   0.900520 0.174460 0.961150 -0.467484
O8    O     O_R   0.099480 0.825540 0.038850 -0.467091
O9    O     O_R   0.116720 0.669210 0.267660 -0.450202
O10   O     O_R   0.883280 0.330790 0.732340 -0.450800
O11   O     O_R   0.883280 0.169210 0.732340 -0.470273
O12   O     O_R   0.116720 0.830790 0.267660 -0.470146
O13   O     O_R   0.366710 0.675440 0.427590 -0.516070
O14   O     O_R   0.633290 0.324560 0.572410 -0.517649
O15   O     O_R   0.633290 0.175440 0.572410 -0.513558
O16   O     O_R   0.366710 0.824560 0.427590 -0.513552
O17   O     O_R   0.534870 0.669390 0.371760 -0.455846
O18   O     O_R   0.465130 0.330610 0.628240 -0.450043
O19   O     O_R   0.465130 0.169390 0.628240 -0.461691
O20   O     O_R   0.534870 0.830610 0.371760 -0.460793
O21   O     O_R   0.453080 0.674480 0.075160 -0.505219
O22   O     O_R   0.546920 0.325520 0.924840 -0.505195
O23   O     O_R   0.546920 0.174480 0.924840 -0.499462
O24   O     O_R   0.453080 0.825520 0.075160 -0.498366
O25   O     O_3   0.306390 0.750000 0.180470 -0.311742
O26   O     O_3   0.693610 0.250000 0.819530 -0.310804
Br1   Br    Br    0.106162 0.616003 0.602609 -0.312469
Br2   Br    Br    0.895621 0.387137 0.396679 -0.310916
Br3   Br    Br    0.897142 0.067948 0.350910 -0.411211
Br4   Br    Br    0.102747 0.932663 0.649308 -0.411388
Cl1   Cl    Cl    0.235923 0.345136 0.462360 -0.387919
Cl2   Cl    Cl    0.763764 0.656778 0.543040 -0.389608
Cl3   Cl    Cl    0.755647 0.841359 0.613609 -0.424102
Cl4   Cl    Cl    0.244310 0.159242 0.386605 -0.425262
Br5   Br    Br    0.783970 0.015664 0.878829 -0.434795
Br6   Br    Br    0.217012 0.983698 0.119547 -0.434222
Br7   Br    Br    0.933388 0.588509 0.824341 -0.323275
Br8   Br    Br    0.074207 0.410290 0.174936 -0.322175
Cl5   Cl    Cl    0.142499 0.087661 0.867558 -0.526649
Cl6   Cl    Cl    0.858559 0.913385 0.133652 -0.528745
Cl7   Cl    Cl    0.946326 0.549307 0.241066 -0.567276
Cl8   Cl    Cl    0.059461 0.448217 0.761366 -0.571283

loop_
_geom_bond_atom_site_label_1
_geom_bond_atom_site_label_2
_ccdc_geom_bond_type
C1    O9    A    
Cr6   O18   S    
C12   C29   S    
C3    O7    A    
C14   H9    S    
Cr1   O1    S    
C44   H4    S    
Cr5   O20   S    
C7    C55   A    
C8    C56   A    
Cr4   O10   S    
C40   Cl4   S    
Cr4   O11   S    
C50   C54   A    
C31   O23   A    
C5    C53   A    
Cr5   O25   S    
C38   C42   A    
C5    C37   A    
C42   C46   A    
C4    O8    A    
C26   O14   A    
C15   C16   S    
C30   O22   A    
Cr1   O8    S    
C3    C18   S    
C28   O16   A    
C8    C36   A    
C9    C13   D    
C9    C32   S    
C23   Br8   S    
C11   C15   D    
C10   C31   S    
C22   Br5   S    
C20   C24   D    
C11   C30   S    
C5    C33   A    
C23   C24   S    
C6    C38   A    
C2    O10   A    
C9    H14   S    
C38   Cl2   S    
C40   C44   A    
Cr6   O26   S    
Cr2   O2    S    
C25   C34   S    
Cr6   O23   S    
C30   O2    A    
Cr4   O15   S    
C39   Cl3   S    
C35   C56   A    
C21   C22   S    
Cr5   O21   S    
C7    C35   A    
C6    C54   A    
C45   Br1   S    
C4    O12   A    
Cr4   O14   S    
C26   O18   A    
Cr1   O25   S    
C25   O13   A    
C29   O21   A    
C16   H11   S    
C12   C16   D    
C28   C35   S    
C10   C14   D    
Cr2   O3    S    
C39   C43   A    
C17   C21   D    
C6    C34   A    
Cr3   O12   S    
C19   C23   D    
C11   H16   S    
Cr2   O6    S    
Cr6   O19   S    
C10   H13   S    
C26   C33   S    
C29   O1    A    
C45   C49   A    
C43   H3    S    
C12   H15   S    
Cr1   O5    S    
C2    O6    A    
Cr3   O13   S    
C18   Cl5   S    
C17   Cl6   S    
C24   Br7   S    
Cr6   O22   S    
C4    C17   S    
Cr3   O16   S    
C19   Cl8   S    
C25   O17   A    
C47   Br3   S    
C32   O24   A    
C27   O15   A    
Cr2   O26   S    
C41   H1    S    
Cr2   O7    S    
C42   H2    S    
C8    C40   A    
C28   O20   A    
C33   C54   A    
C27   O19   A    
C1    C20   S    
C7    C39   A    
C49   H5    S    
C2    C19   S    
C18   C22   D    
C37   Cl1   S    
C21   Br6   S    
C47   C51   A    
Cr5   O17   S    
C13   H10   S    
C27   C36   S    
C1    O5    A    
C32   O4    A    
C46   C50   A    
C31   O3    A    
C3    O11   A    
Cr3   O25   S    
Cr5   O24   S    
C36   C55   A    
Cr4   O26   S    
C48   Br4   S    
C50   H6    S    
C49   C53   A    
C46   Br2   S    
C51   C55   A    
C37   C41   A    
Cr3   O9    S    
C52   H8    S    
C44   C48   A    
C48   C52   A    
C15   H12   S    
C34   C53   A    
C41   C45   A    
Cr1   O4    S    
C51   H7    S    
C13   C14   S    
C43   C47   A    
C20   Cl7   S    
C52   C56   A    
