data_mof_unit_59251.cif
_audit_creation_date              2013-03-05T15:54:38-0500
_audit_creation_method            fapswitch 2.2
_symmetry_space_group_name_H-M    P1
_symmetry_Int_Tables_number       1
_space_group_crystal_system       triclinic
_cell_length_a                    9.901963
_cell_length_b                    10.724495
_cell_length_c                    16.818446
_cell_angle_alpha                 92.005185
_cell_angle_beta                  85.683602
_cell_angle_gamma                 88.377129
_cell_volume                      1778.99540847

loop_
_atom_site_label
_atom_site_type_symbol
_atom_site_description
_atom_site_fract_x
_atom_site_fract_y
_atom_site_fract_z
_atom_type_partial_charge
O1    O     O_R   0.385310 0.683220 0.500000 -0.649207
O2    O     O_R   0.614640 0.683250 0.500010 -0.620413
C1    C     C_R   0.497607 0.740109 0.495160 0.878041
O3    O     O_R   0.371780 0.500010 0.615800 -0.647377
O4    O     O_R   0.601110 0.500030 0.615800 -0.638988
C2    C     C_R   0.481473 0.506168 0.653061 0.840797
Zn1   Zn    Zn3+2 0.346870 0.499980 0.499990 0.932094
Zn2   Zn    Zn3+2 0.653130 0.500020 0.500010 0.954582
O5    O     O_R   0.385360 0.316750 0.499990 -0.615958
O6    O     O_R   0.614690 0.316780 0.500000 -0.613833
O7    O     O_R   0.398890 0.499970 0.384200 -0.616194
O8    O     O_R   0.628220 0.499990 0.384200 -0.617488
C3    C     C_R   0.500685 0.260984 0.506775 0.882932
C4    C     C_R   0.518228 0.501993 0.347008 0.864647
C5    C     C_R   0.470406 0.544309 0.737384 -0.023817
C6    C     C_R   0.584081 0.592891 0.770822 -0.214728
C7    C     C_R   0.573060 0.645028 0.847268 -0.155950
C8    C     C_R   0.450129 0.641322 0.893958 0.208839
C9    C     C_R   0.334748 0.596795 0.860331 -0.172916
C10   C     C_R   0.344515 0.549203 0.781903 -0.210658
C11   C     C_R   0.415603 0.561121 0.142261 -0.146194
C12   C     C_R   0.409917 0.525834 0.220793 -0.204484
C13   C     C_R   0.652232 0.553597 0.223010 -0.193628
C14   C     C_R   0.657816 0.589068 0.144342 -0.179080
C15   C     C_R   0.539382 0.595202 0.104110 0.204811
C16   C     C_2   0.446276 0.662066 0.980445 -0.240783
C17   C     C_2   0.551265 0.621674 0.019524 -0.228295
C18   C     C_R   0.527814 0.523298 0.261906 -0.040771
H1    H     H_    0.681965 0.591980 0.737986 0.150217
H2    H     H_    0.312949 0.501732 0.249437 0.158175
H3    H     H_    0.744587 0.552557 0.253688 0.162850
H4    H     H_    0.646840 0.592727 0.987397 0.148363
H5    H     H_    0.238972 0.593643 0.895771 0.124254
H6    H     H_    0.323676 0.558359 0.111429 0.125139
H7    H     H_    0.254593 0.515002 0.756581 0.156042
H8    H     H_    0.350064 0.689466 0.012368 0.146668
H9    H     H_    0.662475 0.683437 0.870811 0.125557
H10   H     H_    0.754565 0.611985 0.114831 0.127288
H11   H     H_    0.706040 0.881331 0.456887 0.230690
C19   C     C_R   0.236285 0.900204 0.502608 -0.265357
H12   H     H_    0.219819 0.816309 0.467964 0.212682
C20   C     C_R   0.121233 0.969241 0.535054 0.372892
C21   C     C_R   0.138889 0.080644 0.578099 -0.239783
H13   H     H_    0.052953 0.133113 0.607259 0.183859
C22   C     C_R   0.266968 0.130332 0.578597 -0.219644
H14   H     H_    0.276425 0.218857 0.610327 0.174637
C23   C     C_R   0.379715 0.068582 0.536225 0.108204
C24   C     C_R   0.368404 0.944805 0.509950 0.043374
C25   C     C_R   0.490613 0.874011 0.490024 -0.140179
C26   C     C_R   0.613424 0.933302 0.476252 -0.142667
H15   H     H_    0.711701 0.105511 0.468633 0.193726
C27   C     C_R   0.617792 0.060463 0.485581 -0.146928
C28   C     C_R   0.501505 0.128454 0.514909 -0.137780
H16   H     H_    0.890616 0.363464 0.407416 0.143175
C29   C     C_R   0.842274 0.659666 0.608103 -0.105036
H17   H     H_    0.734963 0.669363 0.609629 0.192856
C30   C     C_R   0.903587 0.733938 0.663661 -0.131992
H18   H     H_    0.842188 0.794676 0.705604 0.153318
C31   C     C_R   0.043369 0.733110 0.663821 -0.189995
H19   H     H_    0.091036 0.793424 0.705682 0.152200
C32   C     C_R   0.122456 0.658092 0.608366 -0.173550
H20   H     H_    0.229112 0.667362 0.609090 0.207788
C33   C     C_R   0.063490 0.577872 0.553544 0.177905
C34   C     C_R   0.918885 0.578163 0.553464 0.201815
N1    N     N_R   0.857140 0.501200 0.500750 -0.122823
C35   C     C_R   0.937280 0.424863 0.449014 -0.111174
H21   H     H_    0.141546 0.363611 0.407368 0.149417
C36   C     C_R   0.080477 0.424963 0.448993 -0.105723
N2    N     N_R   0.142740 0.501280 0.500770 -0.126881
N3    N     N_R   0.987382 0.926954 0.523827 0.196560
O9    O     O_R   0.968524 0.840100 0.470162 -0.449546
O10   O     O_R   0.882770 0.977942 0.565398 -0.446573

loop_
_geom_bond_atom_site_label_1
_geom_bond_atom_site_label_2
_geom_bond_distance
_ccdc_geom_bond_type
Zn1   N2    2.019992 S    
O4    Zn2   1.976539 S    
C35   C36   1.417934 A    
C13   C14   1.386970 A    
C25   C26   1.395895 A    
N3    O9    1.301348 A    
H16   C35   1.081767 S    
C15   C17   1.457132 S    
C14   H10   1.083886 S    
C23   C24   1.394546 A    
C8    C16   1.461247 S    
C23   C28   1.410689 A    
Zn2   O8    1.981622 S    
C29   C34   1.408989 A    
C32   H20   1.064515 S    
C29   H17   1.063026 S    
C19   C20   1.405052 A    
C7    C8    1.400343 A    
C1    C25   1.441662 S    
C33   N2    1.373295 A    
C31   H19   1.082722 S    
C36   N2    1.366674 A    
C12   C18   1.400975 A    
C11   C12   1.384139 A    
C34   N1    1.378411 A    
Zn1   O7    1.976539 S    
C2    C5    1.457416 S    
C21   C22   1.389970 A    
C30   H18   1.082777 S    
C5    C10   1.403691 A    
O3    Zn1   1.981622 S    
C5    C6    1.400969 A    
C16   H8    1.085503 S    
C24   C25   1.422037 A    
O8    C4    1.296188 A    
O2    C1    1.303504 A    
C3    C28   1.432499 S    
C29   C30   1.391710 A    
C21   H13   1.082590 S    
C16   C17   1.340772 D    
O4    C2    1.296673 A    
Zn2   O6    2.012231 S    
O7    C4    1.295863 A    
C30   C31   1.384100 A    
Zn2   N1    2.021468 S    
C31   C32   1.390063 A    
C20   C21   1.397288 A    
C7    H9    1.082756 S    
H21   C36   1.081750 S    
C22   H14   1.082573 S    
C20   N3    1.436562 S    
H11   C26   1.082189 S    
H15   C27   1.083746 S    
C14   C15   1.398445 A    
C6    H1    1.078435 S    
O3    C2    1.296340 A    
N1    C35   1.366184 A    
C9    H5    1.083484 S    
C22   C23   1.413553 A    
C26   C27   1.369546 A    
Zn1   O5    1.991045 S    
C8    C9    1.400878 A    
C11   C15   1.403888 A    
C19   C24   1.418152 A    
C19   H12   1.077743 S    
O1    Zn1   2.012231 S    
O5    C3    1.288580 A    
C11   H6    1.081594 S    
C12   H2    1.083502 S    
C4    C18   1.453771 S    
C17   H4    1.085640 S    
C13   C18   1.402687 A    
C10   H7    1.083225 S    
N3    O10   1.301154 A    
C32   C33   1.408950 A    
O2    Zn2   1.991043 S    
C9    C10   1.393058 A    
C6    C7    1.379382 A    
C27   C28   1.393784 A    
C33   C34   1.431896 A    
O1    C1    1.282032 A    
O6    C3    1.291926 A    
C13   H3    1.083275 S    
