data_mof_unit_13247.cif
_audit_creation_date              2012-10-26T18:54:56-0400
_audit_creation_method            fapswitch 2.2
_symmetry_space_group_name_H-M    P1
_symmetry_Int_Tables_number       1
_space_group_crystal_system       triclinic
_cell_length_a                    10.822616
_cell_length_b                    9.610829
_cell_length_c                    10.848482
_cell_angle_alpha                 90.374939
_cell_angle_beta                  94.02646
_cell_angle_gamma                 90.032661
_cell_volume                      1125.58749776

loop_
_atom_site_label
_atom_site_type_symbol
_atom_type_description
_atom_site_fract_x
_atom_site_fract_y
_atom_site_fract_z
_atom_type_partial_charge
C1    C     C_R   0.262354 0.499733 0.500784 0.561830
C2    C     C_R   0.491454 0.624814 0.938309 0.012583
C3    C     C_R   0.482781 0.499031 0.128766 0.021796
C4    C     C_R   0.488260 0.500293 0.870740 0.007443
C5    C     C_R   0.463670 0.374624 0.061268 -0.147043
C6    C     C_R   0.466098 0.375348 0.932712 -0.146178
C7    C     C_3   0.585972 0.738750 0.945567 -0.231830
C8    C     C_3   0.578867 0.739419 0.084080 -0.264233
C9    C     C_R   0.065725 0.376249 0.527665 -0.123105
C10   C     C_R   0.937633 0.376243 0.527164 -0.119614
C11   C     C_R   0.871360 0.498401 0.498079 0.021368
C12   C     C_R   0.737537 0.499644 0.499040 0.563330
C13   C     C_R   0.128290 0.498932 0.500927 0.011188
C14   C     C_R   0.933853 0.619537 0.468331 -0.089368
C15   C     C_R   0.061712 0.620599 0.472612 -0.094879
C16   C     C_R   0.418007 0.076348 0.425140 0.041476
C17   C     C_R   0.582257 0.077549 0.574554 0.036146
C18   C     C_R   0.416361 0.929257 0.422717 0.326767
C19   C     C_R   0.585191 0.930491 0.575351 0.327383
C20   C     C_R   0.496380 0.499469 0.262476 0.560594
C21   C     C_R   0.498941 0.500305 0.737728 0.562632
C22   C     C_R   0.487383 0.624065 0.065088 0.065960
Cu1   Cu    Cu3+1 0.500000 0.640660 0.500000 1.118500
Cu2   Cu    Cu3+1 0.500000 0.359340 0.500000 0.966299
H1    H     H_    0.452832 0.276323 0.107610 0.163326
H2    H     H_    0.108068 0.716136 0.452519 0.217687
H3    H     H_    0.353346 0.135210 0.365233 0.182689
H4    H     H_    0.649176 0.137528 0.631583 0.186224
H5    H     H_    0.258682 0.919434 0.116910 0.375781
H6    H     H_    0.815970 0.942357 0.835193 0.374319
H7    H     H_    0.455947 0.277475 0.882961 0.156416
H8    H     H_    0.678377 0.703181 0.920471 0.200446
H9    H     H_    0.537477 0.835956 0.119537 0.210555
H10   H     H_    0.550297 0.835918 0.901003 0.200556
H11   H     H_    0.666430 0.706291 0.135411 0.134920
H12   H     H_    0.115566 0.281027 0.550283 0.156259
H13   H     H_    0.890811 0.281173 0.550126 0.160008
H14   H     H_    0.884058 0.712953 0.440565 0.189242
N1    N     N_R   0.500000 0.852070 0.500000 -0.279364
N2    N     N_R   0.500000 0.147940 0.500000 -0.317620
O1    O     O_R   0.319640 0.618740 0.499990 -0.462383
O2    O     O_2   0.178662 0.924216 0.343158 -0.332611
O3    O     O_3   0.331997 0.940237 0.173913 -0.581335
O4    O     O_2   0.714010 0.720460 0.707224 -0.284356
O5    O     O_2   0.828611 0.890939 0.594948 -0.316944
O6    O     O_3   0.734262 0.968525 0.795212 -0.589407
O7    O     O_R   0.680360 0.618740 0.500010 -0.445657
O8    O     O_R   0.319620 0.381170 0.499990 -0.519396
O9    O     O_R   0.680380 0.381170 0.500010 -0.520280
O10   O     O_R   0.499990 0.618810 0.319660 -0.458148
O11   O     O_R   0.500010 0.618810 0.680340 -0.459665
O12   O     O_R   0.499960 0.381240 0.319650 -0.517637
O13   O     O_R   0.500040 0.381240 0.680350 -0.518391
O14   O     O_2   0.287816 0.714141 0.287959 -0.267321
S1    S     S_3+6 0.301160 0.867453 0.308961 -0.010593
S2    S     S_3+6 0.716883 0.868694 0.667072 -0.016365

loop_
_geom_bond_atom_site_label_1
_geom_bond_atom_site_label_2
_ccdc_geom_bond_type
C19   S2    S    
Cu2   O12   S    
C9    H12   S    
C8    C22   S    
C18   N1    A    
C1    O8    A    
C2    C22   A    
O2    S1    D    
C14   H14   S    
C9    C10   A    
O4    S2    D    
C2    C4    A    
C2    C7    S    
Cu1   O1    S    
C21   O11   A    
C8    H11   S    
C11   C12   S    
C16   H3    S    
C13   C15   A    
C12   O9    A    
C7    C8    S    
C20   O12   A    
H5    O3    S    
C21   O13   A    
C4    C21   S    
C19   N1    A    
C18   S1    S    
C16   N2    A    
C12   O7    A    
Cu1   N1    S    
O3    S1    S    
Cu2   N2    S    
C6    H7    S    
C8    H9    S    
C10   H13   S    
C5    C6    A    
C11   C14   A    
C5    H1    S    
C4    C6    A    
Cu1   O7    S    
C10   C11   A    
Cu1   Cu2   S    
Cu2   O8    S    
C3    C5    A    
C3    C20   S    
C1    C13   S    
C7    H10   S    
C16   C18   A    
Cu1   O10   S    
O6    S2    S    
Cu2   O9    S    
C9    C13   A    
C14   C15   A    
C3    C22   A    
C20   O10   A    
C7    H8    S    
C17   C19   A    
Cu2   O13   S    
O14   S1    D    
C17   H4    S    
Cu1   O11   S    
H6    O6    S    
C1    O1    A    
O5    S2    D    
C15   H2    S    
C17   N2    A    
