data_mof_unit_6487.cif
_audit_creation_date              2012-12-10T17:06:02-0500
_audit_creation_method            fapswitch 2.2
_symmetry_space_group_name_H-M    P1
_symmetry_Int_Tables_number       1
_space_group_crystal_system       triclinic
_cell_length_a                    25.865841
_cell_length_b                    25.84787
_cell_length_c                    18.353769
_cell_angle_alpha                 89.721696
_cell_angle_beta                  134.768933
_cell_angle_gamma                 90.264358
_cell_volume                      8711.64770187

loop_
_atom_site_label
_atom_site_type_symbol
_atom_type_description
_atom_site_fract_x
_atom_site_fract_y
_atom_site_fract_z
_atom_type_partial_charge
C1    C     C_R   0.890797 0.750147 0.780107 0.952085
C2    C     C_R   0.458480 0.200146 0.472971 0.028972
C3    C     C_R   0.226932 0.526790 0.421971 -0.206923
C4    C     C_R   0.750261 0.554374 0.643754 0.139560
C5    C     C_R   0.748475 0.445411 0.642567 0.147305
C6    C     C_R   0.233108 0.054110 0.626156 0.160670
C7    C     C_R   0.242694 0.945653 0.636105 0.147889
C8    C     C_R   0.748864 0.526482 0.707264 -0.196204
C9    C     C_R   0.747815 0.473254 0.706506 -0.173327
C10   C     C_R   0.227082 0.025927 0.684562 -0.162117
C11   C     C_R   0.232536 0.972889 0.690283 -0.218357
C12   C     C_R   0.749411 0.472112 0.574503 -0.005958
C13   C     C_R   0.963299 0.302094 0.481119 0.030332
C14   C     C_R   0.749932 0.527738 0.574754 0.001679
C15   C     C_R   0.244987 0.972299 0.569680 0.007761
C16   C     C_R   0.242186 0.027813 0.566786 -0.012037
C17   C     C_R   0.749846 0.554043 0.506081 -0.137338
C18   C     C_R   0.750519 0.445964 0.507209 -0.141628
C19   C     C_R   0.248997 0.054203 0.505453 -0.136211
C20   C     C_R   0.252423 0.946183 0.509041 -0.131326
C21   C     C_R   0.750197 0.527050 0.440261 0.094660
C22   C     C_R   0.752411 0.473190 0.442744 0.099204
C23   C     C_R   0.257515 0.027344 0.448245 0.088990
C24   C     C_R   0.961959 0.698496 0.479711 0.033886
C25   C     C_R   0.263379 0.973680 0.454742 0.093491
C26   C     C_R   0.746526 0.889876 0.496426 0.806513
C27   C     C_R   0.746926 0.109864 0.497807 0.800339
C28   C     C_R   0.253458 0.390052 0.503774 0.813531
C29   C     C_R   0.252963 0.610067 0.503156 0.787616
C30   C     C_R   0.888860 0.748914 0.497820 0.804494
C31   C     C_R   0.888968 0.251201 0.497996 0.804844
C32   C     C_R   0.389422 0.249504 0.498907 0.794213
C33   C     C_R   0.389478 0.750459 0.499139 0.804425
C34   C     C_R   0.609816 0.749974 0.499618 0.999868
C35   C     C_R   0.493400 0.788679 0.431579 -0.081401
C36   C     C_R   0.609361 0.249229 0.498734 0.984169
C37   C     C_R   0.108715 0.251231 0.497307 0.966332
C38   C     C_R   0.108941 0.748768 0.497848 0.947070
C39   C     C_R   0.487514 0.825162 0.367251 0.568586
C40   C     C_R   0.523796 0.152658 0.443176 0.567288
C41   C     C_R   0.032783 0.350663 0.458350 0.565589
C42   C     C_R   0.030591 0.649970 0.456428 0.567007
C43   C     C_R   0.427862 0.859138 0.305477 -0.244540
C44   C     C_R   0.485522 0.107757 0.424390 -0.153626
C45   C     C_R   0.001944 0.396642 0.453167 -0.217460
C46   C     C_R   0.512437 0.199650 0.471081 -0.108412
C47   C     C_R   0.997180 0.604260 0.447402 -0.212907
C48   C     C_R   0.373415 0.856788 0.303760 -0.228878
C49   C     C_R   0.434408 0.108465 0.428980 -0.198145
C50   C     C_R   0.951487 0.395894 0.459111 -0.196872
C51   C     C_R   0.945716 0.605195 0.451390 -0.199972
C52   C     C_3   0.568455 0.627916 0.548415 -0.277306
C53   C     C_3   0.524384 0.373641 0.450827 -0.243146
C54   C     C_3   0.003365 0.132127 0.411793 -0.246670
C55   C     C_3   0.070487 0.875178 0.576192 -0.318089
C56   C     C_3   0.228146 0.762860 0.776435 -0.257799
C57   C     C_R   0.016464 0.302434 0.477500 -0.100200
C58   C     C_3   0.491319 0.332891 0.778922 -0.328599
C59   C     C_3   0.761163 0.156295 0.785144 -0.175599
C60   C     C_3   0.978560 0.849877 0.787477 -0.363205
C61   C     C_3   0.514227 0.955380 0.485393 -0.209328
C62   C     C_3   0.667047 0.033348 0.716169 -0.271016
C63   C     C_3   0.345284 0.415951 0.861044 -0.274711
C64   C     C_3   0.481312 0.565682 0.929499 -0.251266
C65   C     C_3   0.517527 0.817669 0.276580 -0.356381
C66   C     C_3   0.537586 0.152219 0.334315 -0.397741
C67   C     C_3   0.039099 0.354425 0.341260 -0.374104
C68   C     C_R   0.015703 0.698076 0.477338 -0.100711
C69   C     C_3   0.040464 0.646238 0.343146 -0.367597
C70   C     C_3   0.638527 0.838392 0.103304 -0.173493
C71   C     C_3   0.488716 0.151563 0.111153 -0.310478
C72   C     C_3   0.046188 0.368496 0.131355 -0.230752
C73   C     C_3   0.013753 0.644427 0.121231 -0.274016
C74   C     C_3   0.404275 0.676636 0.179946 -0.305414
C75   C     C_3   0.565868 0.456384 0.140702 -0.216321
C76   C     C_3   0.027654 0.070331 0.195478 -0.242643
C77   C     C_3   0.105432 0.953952 0.176646 -0.220347
C78   C     C_R   0.550895 0.751840 0.494054 -0.203781
C79   C     C_R   0.550470 0.246630 0.493238 -0.213356
C80   C     C_R   0.048646 0.254313 0.489276 -0.212664
C81   C     C_R   0.887437 0.251989 0.780504 0.893189
C82   C     C_R   0.049902 0.746001 0.492103 -0.224358
C83   C     C_R   0.550293 0.713738 0.548420 0.503783
C84   C     C_R   0.531072 0.293139 0.508329 0.508800
C85   C     C_R   0.022446 0.207302 0.492213 0.507690
C86   C     C_R   0.028079 0.793073 0.502215 0.514374
C87   C     C_R   0.498739 0.716050 0.552478 -0.274956
C88   C     C_R   0.478213 0.292675 0.509943 -0.298987
C89   C     C_R   0.970500 0.207919 0.495369 -0.293206
C90   C     C_R   0.972424 0.792385 0.498751 -0.315049
C91   C     C_R   0.443287 0.752355 0.494768 -0.088937
C92   C     C_R   0.390475 0.249863 0.780082 0.966079
C93   C     C_R   0.442864 0.246950 0.493842 -0.096748
C94   C     C_R   0.942102 0.254384 0.492112 -0.104254
C95   C     C_R   0.942093 0.746008 0.492266 -0.096177
C96   C     C_R   0.466259 0.693299 0.095159 -0.249193
C97   C     C_R   0.574499 0.346304 0.105571 -0.270225
C98   C     C_R   0.028699 0.156609 0.097398 -0.235092
C99   C     C_R   0.048932 0.850583 0.101880 -0.276006
C100  C     C_R   0.394939 0.684809 0.047285 0.534901
C101  C     C_R   0.560547 0.391593 0.051985 0.536830
C102  C     C_R   0.976316 0.117298 0.050493 0.543448
C103  C     C_R   0.389184 0.750842 0.780087 0.939246
C104  C     C_R   0.020463 0.897211 0.045904 0.503097
C105  C     C_R   0.338154 0.706784 0.952057 -0.340899
C106  C     C_R   0.518072 0.388924 0.947358 -0.221823
C107  C     C_R   0.905116 0.128064 0.958666 -0.363690
C108  C     C_R   0.976281 0.895874 0.940931 -0.267360
C109  C     C_R   0.610231 0.748732 0.219353 0.853319
C110  C     C_R   0.610590 0.250786 0.219880 0.850950
C111  C     C_R   0.111005 0.249174 0.219729 0.837736
C112  C     C_R   0.111280 0.751795 0.219908 0.832996
C113  C     C_R   0.351306 0.735693 0.900509 0.531575
C114  C     C_R   0.378368 0.821702 0.365996 -0.129785
C115  C     C_R   0.482909 0.342993 0.893038 0.456530
C116  C     C_R   0.886239 0.176780 0.909319 0.519616
C117  C     C_R   0.959350 0.849247 0.890406 0.495166
C118  C     C_R   0.424574 0.739080 0.946483 -0.030500
C119  C     C_R   0.488998 0.298225 0.944474 -0.056891
C120  C     C_R   0.943313 0.212518 0.949441 -0.034910
C121  C     C_R   0.978457 0.801229 0.943345 -0.062296
C122  C     C_R   0.482312 0.726019 0.051091 -0.115641
C123  C     C_R   0.539494 0.299171 0.053321 -0.101271
C124  C     C_R   0.009969 0.206053 0.052054 -0.108253
C125  C     C_R   0.420002 0.154172 0.451394 -0.127930
C126  C     C_R   0.028161 0.801972 0.052035 -0.080400
C127  C     C_R   0.553359 0.746158 0.106390 -0.184743
C128  C     C_R   0.555894 0.252569 0.107367 -0.169435
C129  C     C_R   0.054861 0.249678 0.107189 -0.183179
C130  C     C_R   0.056109 0.754197 0.107275 -0.178323
C131  C     C_R   0.568674 0.766918 0.052276 0.460617
C132  C     C_R   0.522722 0.205875 0.053996 0.486691
C133  C     C_R   0.039391 0.296418 0.054901 0.467801
C134  C     C_R   0.032565 0.706938 0.054652 0.477713
C135  C     C_R   0.516380 0.763557 0.945763 0.040108
C136  C     C_R   0.931035 0.349232 0.470625 -0.124801
C137  C     C_R   0.472642 0.204924 0.947228 0.044461
C138  C     C_R   0.984852 0.297771 0.947740 0.071547
C139  C     C_R   0.983112 0.706121 0.948231 0.063206
C140  C     C_R   0.443131 0.753021 0.891904 -0.188689
C141  C     C_R   0.450860 0.251503 0.891958 -0.204416
C142  C     C_R   0.937233 0.254982 0.893180 -0.190588
C143  C     C_R   0.951773 0.752774 0.891842 -0.215962
C144  C     C_R   0.655928 0.944212 0.513863 -0.295853
C145  C     C_R   0.675569 0.049772 0.550336 -0.318106
C146  C     C_R   0.334060 0.447716 0.700286 -0.371739
C147  C     C_R   0.927084 0.651733 0.465284 -0.120910
C148  C     C_R   0.342816 0.554569 0.700404 -0.361195
C149  C     C_R   0.625938 0.968646 0.544520 0.465335
C150  C     C_R   0.641072 0.021203 0.570854 0.423751
C151  C     C_R   0.365552 0.475482 0.789248 0.472255
C152  C     C_R   0.374231 0.528781 0.790643 0.509875
C153  C     C_R   0.705426 0.025855 0.517150 0.024436
C154  C     C_R   0.699870 0.971417 0.506592 0.005442
C155  C     C_R   0.300225 0.527867 0.605966 0.030913
C156  C     C_R   0.298116 0.473181 0.606167 0.040038
C157  C     C_R   0.749955 0.610002 0.500939 0.891401
C158  C     C_R   0.438063 0.787718 0.430923 0.031258
C159  C     C_R   0.750126 0.389983 0.501827 0.884575
C160  C     C_R   0.249791 0.110072 0.501216 0.892760
C161  C     C_R   0.250378 0.890087 0.501384 0.876744
C162  C     C_R   0.737518 0.945672 0.487381 -0.025017
C163  C     C_R   0.740627 0.053545 0.494035 -0.028758
C164  C     C_R   0.260790 0.446235 0.512387 -0.028004
C165  C     C_R   0.261056 0.554180 0.511615 -0.023216
C166  C     C_R   0.770557 0.973580 0.463994 -0.212130
C167  C     C_R   0.770717 0.026813 0.465165 -0.205792
C168  C     C_R   0.227572 0.473529 0.422659 -0.219336
H1    H     H_    0.284021 0.700112 0.919468 0.166058
H2    H     H_    0.678988 0.090297 0.564418 0.255217
H3    H     H_    0.583099 0.431744 0.204513 0.162394
H4    H     H_    0.505487 0.459545 0.079210 0.202686
H5    H     H_    0.587828 0.495786 0.171966 0.211982
H6    H     H_    0.002536 0.099342 0.207569 0.145624
H7    H     H_    0.086697 0.078165 0.247091 0.178816
H8    H     H_    0.022652 0.031972 0.217436 0.201287
H9    H     H_    0.140496 0.941140 0.165398 0.165131
H10   H     H_    0.122409 0.935579 0.245580 0.171011
H11   H     H_    0.113649 0.996192 0.190686 0.234594
H12   H     H_    0.339832 0.406541 0.708202 0.241533
H13   H     H_    0.353351 0.595545 0.706947 0.191477
H14   H     H_    0.748852 0.546321 0.759100 0.175233
H15   H     H_    0.746987 0.453377 0.757768 0.173524
H16   H     H_    0.219951 0.045426 0.729096 0.172159
H17   H     H_    0.230491 0.952809 0.740156 0.159082
H18   H     H_    0.424205 0.888318 0.259532 0.148409
H19   H     H_    0.495349 0.072018 0.405253 0.147881
H20   H     H_    0.016257 0.433220 0.442088 0.158737
H21   H     H_    0.511787 0.423067 0.907254 0.171017
H22   H     H_    0.010404 0.567757 0.435031 0.158093
H23   H     H_    0.927021 0.431701 0.452795 0.193679
H24   H     H_    0.919110 0.569692 0.441829 0.193336
H25   H     H_    0.327597 0.882990 0.255048 0.185538
H26   H     H_    0.405205 0.073398 0.413802 0.197988
H27   H     H_    0.334878 0.821310 0.362619 0.149134
H28   H     H_    0.377773 0.153060 0.450362 0.179744
H29   H     H_    0.889021 0.350796 0.469902 0.180782
H30   H     H_    0.884202 0.650424 0.462926 0.177982
H31   H     H_    0.501106 0.688400 0.599398 0.158458
H32   H     H_    0.864851 0.098423 0.929269 0.160943
H33   H     H_    0.466161 0.328078 0.527015 0.157440
H34   H     H_    0.953811 0.171666 0.503724 0.165653
H35   H     H_    0.953032 0.828097 0.503093 0.154475
H36   H     H_    0.506928 0.670570 0.162913 0.212556
H37   H     H_    0.613919 0.348644 0.188191 0.186802
H38   H     H_    0.084080 0.148291 0.168475 0.178637
H39   H     H_    0.085903 0.853435 0.183643 0.189410
H40   H     H_    0.546084 0.629875 0.469877 0.165659
H41   H     H_    0.525023 0.616612 0.544542 0.151085
H42   H     H_    0.609657 0.596655 0.590741 0.204025
H43   H     H_    0.956968 0.931847 0.898228 0.187486
H44   H     H_    0.481942 0.389231 0.445727 0.150956
H45   H     H_    0.498775 0.356177 0.376279 0.164433
H46   H     H_    0.558208 0.406728 0.465630 0.195639
H47   H     H_    0.982155 0.155033 0.343766 0.158190
H48   H     H_    0.957632 0.117818 0.400724 0.148148
H49   H     H_    0.031640 0.097841 0.417316 0.193020
H50   H     H_    0.091589 0.856660 0.647825 0.136790
H51   H     H_    0.019686 0.897090 0.536499 0.169605
H52   H     H_    0.111588 0.903808 0.598789 0.209663
H53   H     H_    0.231496 0.779058 0.835694 0.140451
H54   H     H_    0.798267 0.954074 0.447334 0.162267
H55   H     H_    0.204097 0.723361 0.752186 0.174653
H56   H     H_    0.190460 0.787995 0.707960 0.198559
H57   H     H_    0.520438 0.295465 0.815174 0.178273
H58   H     H_    0.530993 0.365100 0.811172 0.169907
H59   H     H_    0.458923 0.330111 0.695899 0.177240
H60   H     H_    0.756698 0.137833 0.835318 0.127869
H61   H     H_    0.771463 0.127371 0.751859 0.151625
H62   H     H_    0.707584 0.174251 0.720708 0.214166
H63   H     H_    0.009768 0.813020 0.820923 0.163697
H64   H     H_    0.016235 0.883578 0.828028 0.166937
H65   H     H_    0.797598 0.047205 0.447629 0.166829
H66   H     H_    0.950960 0.851483 0.706343 0.178214
H67   H     H_    0.481737 0.925310 0.481717 0.218534
H68   H     H_    0.490983 0.960130 0.406610 0.126818
H69   H     H_    0.507977 0.991647 0.510634 0.205839
H70   H     H_    0.724822 0.041093 0.758422 0.136293
H71   H     H_    0.660288 0.992283 0.726425 0.216546
H72   H     H_    0.654011 0.057782 0.750987 0.190433
H73   H     H_    0.362849 0.407520 0.935119 0.186337
H74   H     H_    0.345715 0.378696 0.831621 0.184085
H75   H     H_    0.289039 0.431952 0.808013 0.176317
H76   H     H_    0.199095 0.453506 0.351129 0.169466
H77   H     H_    0.483723 0.590713 0.882435 0.143041
H78   H     H_    0.511034 0.528784 0.949583 0.188714
H79   H     H_    0.509716 0.586456 0.002206 0.205884
H80   H     H_    0.477674 0.846276 0.215789 0.161827
H81   H     H_    0.493756 0.778035 0.252502 0.164929
H82   H     H_    0.564570 0.817996 0.285471 0.181716
H83   H     H_    0.504607 0.188245 0.297370 0.156073
H84   H     H_    0.502822 0.117554 0.290848 0.164836
H85   H     H_    0.579224 0.153475 0.331879 0.198102
H86   H     H_    0.003782 0.389260 0.302209 0.169845
H87   H     H_    0.197646 0.546733 0.349888 0.179475
H88   H     H_    0.005955 0.318520 0.303089 0.153136
H89   H     H_    0.077773 0.355679 0.333312 0.176124
H90   H     H_    0.006983 0.681889 0.303850 0.157443
H91   H     H_    0.005755 0.611134 0.303476 0.167045
H92   H     H_    0.080495 0.645825 0.337650 0.180759
H93   H     H_    0.619813 0.854719 0.137544 0.141241
H94   H     H_    0.604471 0.853998 0.024449 0.168213
H95   H     H_    0.695178 0.851890 0.150377 0.191053
H96   H     H_    0.433176 0.145599 0.033515 0.189041
H97   H     H_    0.487468 0.184170 0.149170 0.128260
H98   H     H_    0.642799 0.903837 0.493967 0.235199
H99   H     H_    0.503739 0.115692 0.155740 0.192727
H100  H     H_    0.038032 0.344296 0.172848 0.104545
H101  H     H_    0.993040 0.384629 0.060588 0.174055
H102  H     H_    0.081885 0.401393 0.181924 0.183191
H103  H     H_    0.037298 0.608956 0.169308 0.183353
H104  H     H_    0.958144 0.634684 0.046376 0.184642
H105  H     H_    0.010138 0.674249 0.160978 0.121471
H106  H     H_    0.382431 0.716600 0.164046 0.148528
H107  H     H_    0.464751 0.676978 0.242746 0.171874
H108  H     H_    0.384363 0.653731 0.207427 0.203329
I1    I     I_    0.556020 0.767964 0.874890 -0.274175
I2    I     I_    0.748889 0.364071 0.666064 -0.281255
I3    I     I_    0.228320 0.135156 0.644238 -0.297629
I4    I     I_    0.262351 0.866097 0.678239 -0.311310
I5    I     I_    0.435451 0.130482 0.874949 -0.271897
I6    I     I_    0.974524 0.368545 0.876548 -0.224457
I7    I     I_    0.960979 0.631424 0.880496 -0.232469
I8    I     I_    0.746074 0.568867 0.334610 -0.374427
I9    I     I_    0.761024 0.431763 0.350433 -0.372449
I10   I     I_    0.256092 0.068654 0.345069 -0.465035
I11   I     I_    0.295560 0.933651 0.389604 -0.464565
I12   I     I_    0.753869 0.635732 0.669263 -0.302376
O1    O     O_3   0.750020 0.750020 0.500000 -0.499483
O2    O     O_R   0.750010 0.134170 0.560720 -0.659778
O3    O     O_R   0.250010 0.365830 0.560720 -0.617708
O4    O     O_R   0.250010 0.634170 0.560720 -0.617518
O5    O     O_R   0.896180 0.719660 0.731600 -0.622001
O6    O     O_R   0.896180 0.280340 0.731600 -0.612380
O7    O     O_R   0.396180 0.219660 0.731600 -0.616188
O8    O     O_R   0.396180 0.780340 0.731600 -0.614238
O9    O     O_R   0.664580 0.780370 0.268400 -0.607598
O10   O     O_R   0.664580 0.219630 0.268400 -0.596317
O11   O     O_R   0.164580 0.280370 0.268400 -0.587412
O12   O     O_3   0.750020 0.249980 0.500000 -0.498909
O13   O     O_R   0.164580 0.719630 0.268400 -0.590296
O14   O     O_R   0.835450 0.780390 0.731600 -0.586457
O15   O     O_R   0.835450 0.219610 0.731600 -0.606141
O16   O     O_R   0.335450 0.280390 0.731600 -0.628939
O17   O     O_R   0.335450 0.719610 0.731600 -0.610918
O18   O     O_R   0.603870 0.719650 0.268400 -0.676871
O19   O     O_R   0.603870 0.280350 0.268400 -0.670308
O20   O     O_R   0.103870 0.219650 0.268400 -0.667419
O21   O     O_R   0.103870 0.780350 0.268400 -0.666724
O22   O     O_R   0.810750 0.634210 0.560720 -0.606975
O23   O     O_3   0.250020 0.250020 0.500000 -0.499229
O24   O     O_R   0.810750 0.365790 0.560720 -0.605443
O25   O     O_R   0.310750 0.134210 0.560720 -0.601054
O26   O     O_R   0.310750 0.865790 0.560720 -0.595438
O27   O     O_R   0.750010 0.865820 0.439280 -0.663460
O28   O     O_R   0.750010 0.134180 0.439280 -0.635904
O29   O     O_R   0.250010 0.365820 0.439280 -0.647413
O30   O     O_R   0.250010 0.634180 0.439280 -0.642790
O31   O     O_R   0.896180 0.719650 0.560720 -0.647547
O32   O     O_R   0.896180 0.280350 0.560720 -0.639196
O33   O     O_R   0.396180 0.219650 0.560720 -0.641075
O34   O     O_3   0.250020 0.749980 0.500000 -0.511059
O35   O     O_R   0.396180 0.780350 0.560720 -0.608105
O36   O     O_R   0.664570 0.780390 0.560720 -0.601869
O37   O     O_R   0.664570 0.219610 0.560720 -0.606921
O38   O     O_R   0.164570 0.280390 0.560720 -0.594821
O39   O     O_R   0.164570 0.719610 0.560720 -0.588438
O40   O     O_R   0.835460 0.780370 0.439280 -0.629395
O41   O     O_R   0.835460 0.219630 0.439280 -0.643388
O42   O     O_R   0.335460 0.280370 0.439280 -0.635695
O43   O     O_R   0.335460 0.719630 0.439280 -0.649783
O44   O     O_R   0.603860 0.719660 0.439280 -0.665368
O45   O     O_R   0.689310 0.634210 0.439280 -0.630579
O46   O     O_R   0.603860 0.280340 0.439280 -0.636333
O47   O     O_R   0.103860 0.219660 0.439280 -0.629486
O48   O     O_R   0.103860 0.780340 0.439280 -0.596220
O49   O     O_3   0.602262 0.675083 0.601242 -0.592557
O50   O     O_3   0.569843 0.338084 0.532577 -0.596738
O51   O     O_3   0.053768 0.160770 0.503420 -0.588841
O52   O     O_3   0.059701 0.839102 0.508926 -0.578900
O53   O     O_3   0.296856 0.763410 0.809972 -0.586520
O54   O     O_3   0.443403 0.342564 0.789738 -0.637397
O55   O     O_3   0.814771 0.195485 0.838553 -0.581231
O56   O     O_R   0.689310 0.365790 0.439280 -0.637381
O57   O     O_3   0.925098 0.852002 0.789455 -0.589997
O58   O     O_3   0.587566 0.939184 0.556656 -0.596264
O59   O     O_3   0.618860 0.046256 0.611309 -0.619267
O60   O     O_3   0.395169 0.451337 0.879440 -0.614797
O61   O     O_3   0.408788 0.556448 0.879157 -0.573886
O62   O     O_3   0.542921 0.831161 0.371721 -0.646420
O63   O     O_3   0.574072 0.149082 0.437657 -0.626905
O64   O     O_3   0.079906 0.354324 0.446738 -0.599009
O65   O     O_3   0.079317 0.646022 0.447860 -0.596151
O66   O     O_3   0.638228 0.783718 0.104047 -0.568423
O67   O     O_R   0.189310 0.134210 0.439280 -0.645993
O68   O     O_3   0.540600 0.160328 0.107256 -0.566443
O69   O     O_3   0.080029 0.340544 0.108401 -0.556570
O70   O     O_3   0.059086 0.660601 0.108280 -0.560727
O71   O     O_3   0.379394 0.652955 0.090688 -0.578560
O72   O     O_3   0.594180 0.437873 0.102369 -0.583976
O73   O     O_3   0.992309 0.068012 0.092099 -0.574893
O74   O     O_3   0.030998 0.944715 0.089679 -0.571461
O75   O     O_R   0.189310 0.865790 0.439280 -0.633057
O76   O     O_R   0.750010 0.865830 0.560720 -0.610259
Zn1   Zn    Zn3+2 0.663270 0.706640 0.413250 0.978094
Zn2   Zn    Zn3+2 0.750020 0.206610 0.413240 0.994349
Zn3   Zn    Zn3+2 0.250020 0.293390 0.413240 1.001126
Zn4   Zn    Zn3+2 0.250020 0.706610 0.413240 0.985016
Zn5   Zn    Zn3+2 0.750010 0.793400 0.586760 1.068875
Zn6   Zn    Zn3+2 0.750010 0.206600 0.586760 1.010619
Zn7   Zn    Zn3+2 0.250010 0.293400 0.586760 1.034311
Zn8   Zn    Zn3+2 0.250010 0.706600 0.586760 1.043727
Zn9   Zn    Zn3+2 0.663270 0.293360 0.413250 0.984249
Zn10  Zn    Zn3+2 0.163270 0.206640 0.413250 0.975611
Zn11  Zn    Zn3+2 0.163270 0.793360 0.413250 1.011077
Zn12  Zn    Zn3+2 0.836780 0.706640 0.586750 1.026185
Zn13  Zn    Zn3+2 0.836780 0.293360 0.586750 1.023842
Zn14  Zn    Zn3+2 0.336780 0.206640 0.586750 1.025934
Zn15  Zn    Zn3+2 0.336780 0.793360 0.586750 1.038392
Zn16  Zn    Zn3+2 0.750020 0.793390 0.413240 0.986393

loop_
_geom_bond_atom_site_label_1
_geom_bond_atom_site_label_2
_ccdc_geom_bond_type
C70   H93   S    
C72   H102  S    
C53   H46   S    
C87   C91   A    
C10   H16   S    
C57   C80   A    
C160  O67   A    
C62   O59   S    
C103  O8    A    
C54   H48   S    
C131  O66   S    
O26   Zn15  S    
C105  H1    S    
C110  O19   A    
C116  O55   S    
C101  O72   S    
O22   Zn12  S    
C46   C79   A    
C63   H73   S    
C89   C94   A    
C18   C159  S    
C109  C127  S    
C103  O17   A    
O1    Zn16  S    
C30   O40   A    
C58   H58   S    
O36   Zn5   S    
C7    C15   A    
O23   Zn14  S    
C60   H64   S    
C21   C22   A    
C92   O16   A    
C52   H42   S    
C130  C134  A    
C118  C140  A    
C55   H50   S    
C15   C20   A    
C84   O50   S    
C164  C168  A    
C5    C12   A    
C86   C90   A    
C132  C137  A    
C98   C102  A    
C36   C79   S    
O18   Zn1   S    
C17   C21   A    
C62   H71   S    
C99   H39   S    
C31   O32   A    
C19   C23   A    
C150  O59   S    
C66   H85   S    
C104  O74   S    
C146  H12   S    
C60   O57   S    
C50   H23   S    
C160  O25   A    
C69   H92   S    
C129  C133  A    
C119  C141  A    
C40   C46   A    
C48   C114  A    
C71   H96   S    
C167  H65   S    
O8    Zn15  S    
C145  H2    S    
C76   H7    S    
C84   C88   A    
C119  C123  A    
C13   C94   A    
C35   C78   A    
C43   H18   S    
C106  C115  A    
O24   Zn13  S    
C37   O38   A    
O67   Zn10  S    
O31   Zn12  S    
C168  H76   S    
O5    Zn12  S    
C45   C50   A    
C155  C165  A    
C110  O10   A    
C27   O2    A    
C4    C14   A    
C56   H53   S    
C127  C131  A    
O28   Zn2   S    
C6    C16   A    
C70   O66   S    
C64   H78   S    
C49   H26   S    
C155  C156  A    
C41   C45   A    
C98   H38   S    
C147  H30   S    
O34   Zn4   S    
O56   Zn9   S    
C30   O31   A    
C110  C128  S    
O20   Zn10  S    
C112  O21   A    
C48   H25   S    
C60   H63   S    
C74   H107  S    
O13   Zn4   S    
C67   H88   S    
C98   C124  A    
C52   O49   S    
C92   O7    A    
C153  C163  A    
C19   C160  S    
C105  C113  A    
C73   O70   S    
C134  O70   S    
C67   O64   S    
C13   C57   A    
C72   H100  S    
C157  O45   A    
C36   O37   A    
C33   O35   A    
C118  C122  A    
C122  C127  A    
C91   C158  A    
C27   C163  S    
C29   O30   A    
C139  C143  A    
C115  O54   S    
C148  H13   S    
O39   Zn8   S    
C148  C155  A    
C17   C157  S    
C71   O68   S    
C145  C150  A    
C89   H34   S    
C36   O46   A    
C65   H82   S    
O40   Zn16  S    
C144  C154  A    
C14   C17   A    
C56   O53   S    
C81   O15   A    
C96   H36   S    
C99   C126  A    
C37   C80   S    
O37   Zn6   S    
C157  O22   A    
O46   Zn9   S    
C134  C139  A    
C55   H51   S    
C55   O52   S    
C77   H9    S    
C116  C120  A    
O76   Zn5   S    
C81   O6    A    
C5    C9    A    
C76   O73   S    
C159  O24   A    
C102  C107  A    
O33   Zn14  S    
C92   C141  S    
C37   O47   A    
C29   O4    A    
C81   C142  S    
C65   H80   S    
C64   O61   S    
C115  C119  A    
C72   H101  S    
C61   H67   S    
C1    O14   A    
C31   O41   A    
O1    Zn1   S    
C59   H61   S    
C3    C165  A    
C67   H86   S    
C101  C106  A    
C70   H94   S    
C53   H45   S    
C111  O20   A    
O23   Zn3   S    
C18   C22   A    
C108  C117  A    
C154  C162  A    
C144  H98   S    
C5    I2    S    
C148  C152  A    
C109  O9    A    
C24   C147  A    
C90   C95   A    
C63   O60   S    
C56   H55   S    
O21   Zn11  S    
O2    Zn6   S    
C31   C94   S    
C26   O27   A    
C74   H106  S    
C75   O72   S    
C1    O5    A    
C149  O58   S    
C68   C82   A    
C28   O29   A    
C47   H22   S    
C76   H6    S    
C97   C123  A    
C103  C140  S    
C32   O42   A    
O12   Zn9   S    
C53   H44   S    
C96   C100  A    
C107  C116  A    
O6    Zn13  S    
C10   C11   A    
C44   H19   S    
C137  I5    S    
C146  C151  A    
C23   I10   S    
C40   C44   A    
C42   O65   S    
C34   O36   A    
C75   H4    S    
C112  C130  S    
C58   H59   S    
C53   O50   S    
O29   Zn3   S    
O15   Zn6   S    
C83   C87   A    
C87   H31   S    
C166  H54   S    
O41   Zn2   S    
C152  O61   S    
C77   H11   S    
O7    Zn14  S    
C85   O51   S    
C65   O62   S    
C33   C91   S    
C20   C25   A    
C126  C130  A    
O47   Zn10  S    
O12   Zn13  S    
C62   H72   S    
C29   C165  S    
C38   O39   A    
C114  C158  A    
C162  C166  A    
C78   C83   A    
C111  C129  S    
C151  C152  A    
O3    Zn7   S    
C161  O26   A    
C113  O53   S    
C69   H91   S    
C99   C104  A    
O48   Zn11  S    
O12   Zn6   S    
C133  C138  A    
C11   H17   S    
C38   C82   S    
C83   O49   S    
C38   O48   A    
C6    I3    S    
C66   H84   S    
C135  C140  A    
C59   O55   S    
C114  H27   S    
C76   H8    S    
C60   H66   S    
C138  C142  A    
C24   C95   A    
C85   C89   A    
C47   C51   A    
C82   C86   A    
C63   H74   S    
C26   C162  S    
C74   O71   S    
C25   I11   S    
C35   C39   A    
C117  O57   S    
C80   C85   A    
C9    H15   S    
C22   I9    S    
C138  I6    S    
C112  O13   A    
O43   Zn4   S    
C4    I12   S    
C136  H29   S    
C67   H89   S    
C58   H57   S    
C77   O74   S    
C111  O11   A    
O34   Zn11  S    
C73   H103  S    
C52   H41   S    
C72   O69   S    
C7    I4    S    
C104  C108  A    
C54   H49   S    
C90   H35   S    
C8    H14   S    
O27   Zn16  S    
C137  C141  A    
C66   H83   S    
C71   H99   S    
O14   Zn5   S    
C135  I1    S    
C33   O43   A    
C28   O3    A    
C73   H104  S    
O35   Zn15  S    
C6    C10   A    
O38   Zn7   S    
C49   C125  A    
C62   H70   S    
C96   C122  A    
C35   C158  A    
C41   C57   A    
C149  C150  A    
C79   C84   A    
C16   C19   A    
C58   O54   S    
C54   O51   S    
C86   O52   S    
C124  C129  A    
C151  O60   S    
C132  O68   S    
C24   C68   A    
C26   O76   A    
O34   Zn15  S    
C159  O56   A    
C97   H37   S    
O32   Zn13  S    
C44   C49   A    
C39   O62   S    
C65   H81   S    
C75   H5    S    
C121  C143  A    
C4    C8    A    
C2    C46   A    
C7    C11   A    
C100  C105  A    
C30   C95   S    
O34   Zn8   S    
O9    Zn16  S    
C21   I8    S    
C131  C135  A    
C40   O63   S    
C15   C16   A    
C61   O58   S    
C117  C121  A    
O25   Zn14  S    
C64   H77   S    
C73   H105  S    
C8    C9    A    
C32   O33   A    
C88   H33   S    
C43   C48   A    
C161  O75   A    
C145  C153  A    
C71   H97   S    
C42   C68   A    
O11   Zn3   S    
C107  H32   S    
C128  C132  A    
O75   Zn11  S    
C3    C168  A    
C70   H95   S    
C120  C142  A    
O42   Zn3   S    
C56   H56   S    
O44   Zn1   S    
C39   C43   A    
C125  H28   S    
C109  O18   A    
C34   O44   A    
C66   O63   S    
C69   O65   S    
C163  C167  A    
C2    C125  A    
C144  C149  A    
C1    C143  S    
C51   C147  A    
C63   H75   S    
O30   Zn4   S    
O45   Zn1   S    
C12   C14   A    
C27   O28   A    
O16   Zn7   S    
C75   H3    S    
C166  C167  A    
C13   C136  A    
C133  O69   S    
C41   O64   S    
O4    Zn8   S    
C108  H43   S    
C28   C164  S    
C102  O73   S    
C88   C93   A    
C52   H40   S    
C2    C93   A    
C45   H20   S    
C55   H52   S    
O1    Zn5   S    
C77   H10   S    
C139  I7    S    
C61   H69   S    
C54   H47   S    
O10   Zn2   S    
C121  C126  A    
C50   C136  A    
C34   C78   S    
C123  C128  A    
C64   H79   S    
O23   Zn7   S    
C59   H60   S    
C20   C161  S    
C74   H108  S    
O19   Zn9   S    
C32   C93   S    
C42   C47   A    
C23   C25   A    
C3    H87   S    
C113  C118  A    
O17   Zn8   S    
C146  C156  A    
C156  C164  A    
O1    Zn12  S    
C12   C18   A    
C61   H68   S    
C106  H21   S    
C153  C154  A    
C59   H62   S    
C100  O71   S    
C97   C101  A    
C51   H24   S    
C120  C124  A    
O12   Zn2   S    
C69   H90   S    
O23   Zn10  S    
