data_mof_unit_47955.cif
_audit_creation_date              2012-12-11T15:27:27-0500
_audit_creation_method            fapswitch 2.2
_symmetry_space_group_name_H-M    P1
_symmetry_Int_Tables_number       1
_space_group_crystal_system       triclinic
_cell_length_a                    13.866699
_cell_length_b                    13.973712
_cell_length_c                    27.410556
_cell_angle_alpha                 89.754924
_cell_angle_beta                  90.131405
_cell_angle_gamma                 119.938035
_cell_volume                      4602.56794294

loop_
_atom_site_label
_atom_site_type_symbol
_atom_type_description
_atom_site_fract_x
_atom_site_fract_y
_atom_site_fract_z
_atom_type_partial_charge
C1    C     C_R   0.233511 0.787217 0.568363 0.559366
C2    C     C_1   0.707126 0.861893 0.858742 -0.077114
C3    C     C_2   0.506551 0.891901 0.717031 0.184154
C4    C     C_2   0.088177 0.625170 0.721672 0.190309
C5    C     C_2   0.366254 0.470672 0.722872 0.183032
C6    C     C_2   0.474027 0.602929 0.349809 0.268627
C7    C     C_2   0.392925 0.864731 0.347307 0.218865
C8    C     C_2   0.095705 0.498113 0.350891 0.221929
C9    C     C_3   0.610908 0.636901 0.811697 -0.400907
C10   C     C_3   0.345579 0.991140 0.807145 -0.403011
C11   C     C_3   0.978936 0.325978 0.805514 -0.406396
C12   C     C_1   0.114720 0.879688 0.851469 -0.076933
C13   C     C_1   0.115973 0.235961 0.851475 -0.077804
C14   C     C_1   0.631479 0.815733 0.657781 -0.066232
C15   C     C_1   0.175457 0.817912 0.655382 -0.066397
C16   C     C_1   0.177375 0.356922 0.655250 -0.068479
C17   C     C_1   0.603213 0.797171 0.615750 0.005588
C18   C     C_1   0.198059 0.805836 0.614413 0.006643
C19   C     C_1   0.191824 0.391494 0.614222 0.004812
C20   C     C_R   0.070698 0.162895 0.941709 0.535371
C21   C     C_R   0.212125 0.445749 0.568226 0.560000
C22   C     C_R   0.779887 0.887070 0.948915 0.537718
C23   C     C_R   0.091574 0.928747 0.941680 0.533937
C24   C     C_R   0.601922 0.798780 0.382028 0.045992
C25   C     C_R   0.199094 0.803546 0.382685 0.063065
C26   C     C_R   0.196437 0.397300 0.382156 -0.004563
C27   C     C_R   0.680169 0.911125 0.371131 0.014608
C28   C     C_R   0.086352 0.773748 0.373656 0.001390
C29   C     C_R   0.243323 0.329573 0.371065 0.004069
C30   C     C_R   0.705907 0.944053 0.322214 -0.152958
C31   C     C_R   0.050223 0.767657 0.325342 -0.139971
C32   C     C_R   0.553416 0.765657 0.568543 0.554023
C33   C     C_R   0.255613 0.308653 0.322221 -0.100984
C34   C     C_R   0.654807 0.867382 0.284836 -0.022596
C35   C     C_R   0.123933 0.789256 0.286765 0.017546
C36   C     C_R   0.221124 0.352855 0.284849 0.033882
C37   C     C_R   0.234543 0.786835 0.430835 0.598978
C38   C     C_R   0.212965 0.448004 0.430640 0.583541
C39   C     C_R   0.552075 0.765133 0.430757 0.589429
C40   C     C_R   0.578001 0.757998 0.295505 -0.141736
C41   C     C_R   0.233482 0.816870 0.295632 -0.081019
C42   C     C_R   0.173474 0.417187 0.295555 -0.103994
C43   C     C_3   0.691522 0.746934 0.786310 -0.098083
C44   C     C_R   0.553922 0.721752 0.343275 -0.035749
C45   C     C_R   0.273315 0.828580 0.342782 0.000489
C46   C     C_R   0.156612 0.436955 0.343517 -0.045727
C47   C     C_R   0.759499 0.842058 0.219943 0.000493
C48   C     C_R   0.147838 0.920624 0.222790 -0.031609
C49   C     C_R   0.094601 0.225988 0.223742 -0.030514
C50   C     C_R   0.755697 0.812706 0.170849 -0.007153
C51   C     C_R   0.170944 0.948111 0.173445 0.016623
C52   C     C_R   0.062650 0.205168 0.174851 0.010550
C53   C     C_R   0.668518 0.923101 0.149486 0.023515
C54   C     C_3   0.237983 0.963083 0.779210 -0.099119
C55   C     C_R   0.074784 0.750949 0.151791 0.014395
C56   C     C_R   0.251186 0.342092 0.148537 -0.054249
C57   C     C_R   0.644950 0.925356 0.199728 0.062872
C58   C     C_R   0.062321 0.723780 0.202259 0.064937
C59   C     C_R   0.283208 0.366775 0.198180 0.032473
C60   C     C_R   0.696286 0.890537 0.234632 -0.010639
C61   C     C_R   0.099174 0.809141 0.237109 -0.018937
C62   C     C_R   0.203751 0.309088 0.235304 0.018447
C63   C     C_R   0.725875 0.867284 0.135215 -0.052771
C64   C     C_R   0.126569 0.863637 0.137521 0.025149
C65   C     C_3   0.024129 0.261042 0.777639 -0.100874
C66   C     C_R   0.140244 0.261037 0.137056 0.000305
C67   C     C_R   0.106978 0.221402 0.086670 0.546425
C68   C     C_R   0.776470 0.883475 0.086096 0.523038
C69   C     C_R   0.115394 0.894651 0.087097 0.559172
C70   C     C_3   0.547059 0.817790 0.737958 -0.041641
C71   C     C_3   0.163058 0.741831 0.739608 -0.045519
C72   C     C_3   0.246960 0.424538 0.739309 -0.043568
C73   C     C_3   0.755442 0.942130 0.723062 -0.204492
C74   C     C_3   0.044477 0.827299 0.714971 -0.201766
C75   C     C_3   0.175632 0.223485 0.715983 -0.201869
C76   C     C_3   0.673893 0.737663 0.730006 -0.213644
C77   C     C_3   0.773841 0.953284 0.779066 -0.231417
C78   C     C_3   0.028970 0.843744 0.769711 -0.232421
C79   C     C_3   0.162655 0.194560 0.771003 -0.231900
C80   C     C_1   0.734451 0.872980 0.900935 -0.028084
C81   C     C_1   0.103639 0.900376 0.892929 -0.022646
C82   C     C_1   0.097867 0.203763 0.892961 -0.025989
C83   C     C_3   0.651875 0.829496 0.710711 0.052919
C84   C     C_3   0.157135 0.831505 0.707071 0.051322
C85   C     C_3   0.162346 0.325705 0.706970 0.052307
C86   C     C_3   0.569306 0.835252 0.793900 -0.180019
C87   C     C_3   0.250412 0.946510 0.724021 -0.213556
C88   C     C_3   0.140266 0.755432 0.794176 -0.176359
C89   C     C_3   0.230786 0.390706 0.794289 -0.176013
C90   C     C_3   0.684365 0.848272 0.806037 0.066672
C91   C     C_3   0.131150 0.860886 0.800169 0.064420
C92   C     C_3   0.132664 0.270982 0.800139 0.066292
C93   C     C_2   0.740247 0.995830 0.409168 0.262268
C94   C     C_2   0.004655 0.752632 0.413053 0.235178
C95   C     C_2   0.276192 0.275066 0.408960 0.272209
C96   C     C_3   0.822242 0.813165 0.257223 -0.349237
C97   C     C_3   0.184422 0.012212 0.260453 -0.407905
C98   C     C_3   0.043232 0.295476 0.722878 -0.212672
C99   C     C_3   0.009476 0.159818 0.263326 -0.382367
C100  C     C_2   0.771193 0.717924 0.156940 0.255696
C101  C     C_2   0.245735 0.066357 0.160800 0.272688
C102  C     C_2   0.947422 0.120190 0.163651 0.259425
C103  C     C_2   0.566532 0.961443 0.216995 0.229263
C104  C     C_2   0.008103 0.607330 0.220292 0.297556
C105  C     C_2   0.399187 0.453634 0.210931 0.225247
C106  C     C_3   0.634174 0.978887 0.111081 -0.311848
C107  C     C_3   0.035684 0.660454 0.113752 -0.323379
C108  C     C_3   0.335311 0.403512 0.108458 -0.392613
Cr1   Cr    Cr6+3 0.164410 0.584450 0.499910 1.063395
Cr2   Cr    Cr6+3 0.415550 0.579960 0.499910 1.107773
Cr3   Cr    Cr6+3 0.420040 0.835590 0.499910 1.110080
Cr4   Cr    Cr6+3 0.156760 0.076070 0.017830 1.051304
Cr5   Cr    Cr6+3 0.923930 0.080690 0.017830 1.023587
Cr6   Cr    Cr6+3 0.919310 0.843240 0.017830 1.017639
H1    H     H_    0.567261 0.909654 0.806794 0.154082
H2    H     H_    0.776920 0.762144 0.793852 0.130249
H3    H     H_    0.226954 0.035870 0.782855 0.128062
H4    H     H_    0.958356 0.172755 0.779515 0.127081
H5    H     H_    0.768861 0.027943 0.313163 0.103362
H6    H     H_    0.966326 0.750335 0.317677 0.095040
H7    H     H_    0.286413 0.253246 0.313149 0.125197
H8    H     H_    0.541289 0.698967 0.265957 0.145717
H9    H     H_    0.290304 0.836516 0.265137 0.155216
H10   H     H_    0.141753 0.445315 0.265849 0.195455
H11   H     H_    0.830486 0.948781 0.705091 0.101918
H12   H     H_    0.062150 0.682787 0.807538 0.158477
H13   H     H_    0.041938 0.893352 0.693120 0.106814
H14   H     H_    0.111353 0.151705 0.695058 0.105855
H15   H     H_    0.745792 0.011450 0.708829 0.180405
H16   H     H_    0.974291 0.747437 0.702119 0.181000
H17   H     H_    0.257922 0.238719 0.702871 0.178597
H18   H     H_    0.770300 0.026896 0.791958 0.135023
H19   H     H_    0.952420 0.769978 0.783441 0.131507
H20   H     H_    0.242248 0.204151 0.785136 0.139743
H21   H     H_    0.858451 0.967310 0.787634 0.093169
H22   H     H_    0.016041 0.915584 0.773856 0.091676
H23   H     H_    0.307383 0.396429 0.810241 0.155702
H24   H     H_    0.096861 0.106980 0.776059 0.090359
H25   H     H_    0.603591 0.655339 0.719612 0.154457
H26   H     H_    0.333151 0.955530 0.716018 0.159227
H27   H     H_    0.030470 0.366938 0.715795 0.148235
H28   H     H_    0.749371 0.745025 0.712124 0.118700
H29   H     H_    0.246286 0.012435 0.702704 0.119418
H30   H     H_    0.980587 0.225986 0.700315 0.119180
H31   H     H_    0.784995 0.082633 0.399111 0.109183
H32   H     H_    0.916768 0.714584 0.404257 0.120146
H33   H     H_    0.329536 0.241816 0.399250 0.124372
H34   H     H_    0.477705 0.731667 0.732694 0.046047
H35   H     H_    0.907710 0.841413 0.243779 0.161797
H36   H     H_    0.833071 0.855540 0.292580 0.121544
H37   H     H_    0.777901 0.722752 0.264056 0.188075
H38   H     H_    0.150488 0.066475 0.250637 0.111190
H39   H     H_    0.153729 0.981988 0.297779 0.146616
H40   H     H_    0.276672 0.061882 0.261646 0.167308
H41   H     H_    0.969295 0.070105 0.255454 0.124300
H42   H     H_    0.045383 0.170234 0.300293 0.125770
H43   H     H_    0.944704 0.184302 0.264570 0.183988
H44   H     H_    0.723895 0.665427 0.126713 0.128347
H45   H     H_    0.249528 0.756312 0.737403 0.048647
H46   H     H_    0.227611 0.128737 0.173687 0.090215
H47   H     H_    0.932151 0.044024 0.146986 0.109286
H48   H     H_    0.584113 0.008724 0.250402 0.133516
H49   H     H_    0.966107 0.586608 0.255322 0.155775
H50   H     H_    0.450250 0.518023 0.185087 0.099834
H51   H     H_    0.589771 0.019627 0.125851 0.200576
H52   H     H_    0.708552 0.045847 0.092755 0.166361
H53   H     H_    0.579860 0.917268 0.083578 0.114807
H54   H     H_    0.945097 0.602302 0.118008 0.186449
H55   H     H_    0.082366 0.615535 0.117836 0.177547
H56   H     H_    0.228387 0.493012 0.735065 0.047214
H57   H     H_    0.050794 0.691078 0.075683 0.117360
H58   H     H_    0.364230 0.493118 0.110768 0.115126
H59   H     H_    0.407444 0.390170 0.112527 0.150393
H60   H     H_    0.301806 0.377735 0.071151 0.152099
H61   H     H_    0.435760 0.857277 0.692442 0.094334
H62   H     H_    0.123969 0.583942 0.701367 0.092194
H63   H     H_    0.403842 0.542810 0.699306 0.093280
H64   H     H_    0.394323 0.566870 0.331491 0.113331
H65   H     H_    0.427172 0.824146 0.325703 0.092607
H66   H     H_    0.039385 0.480038 0.381227 0.158415
H67   H     H_    0.502171 0.764380 0.814230 0.085716
H68   H     H_    0.625676 0.570566 0.798041 0.171114
H69   H     H_    0.624645 0.642788 0.851730 0.142402
H70   H     H_    0.522877 0.612240 0.804189 0.150243
H71   H     H_    0.415693 0.069291 0.792643 0.167033
H72   H     H_    0.337180 0.003398 0.846545 0.146875
H73   H     H_    0.367494 0.925333 0.802884 0.147432
H74   H     H_    0.898349 0.308757 0.789309 0.158529
H75   H     H_    0.963594 0.300353 0.844402 0.148376
H76   H     H_    0.037265 0.416311 0.803358 0.151394
H77   H     H_    0.207870 0.759506 0.817511 0.091190
H78   H     H_    0.215182 0.449136 0.815576 0.090707
O1    O     O_R   0.137310 0.468260 0.552980 -0.500817
O2    O     O_R   0.139940 0.470480 0.446230 -0.545276
O3    O     O_R   0.529520 0.669460 0.446230 -0.466196
O4    O     O_R   0.330540 0.860060 0.446230 -0.454702
O5    O     O_R   0.176560 0.690850 0.450770 -0.486974
O6    O     O_R   0.309150 0.485710 0.450770 -0.446058
O7    O     O_R   0.514290 0.823440 0.450770 -0.455555
O8    O     O_3   0.333333 0.666667 0.499990 -0.323258
O9    O     O_3   0.000000 0.000000 0.017910 -0.271180
O10   O     O_R   0.149710 0.171070 0.967700 -0.503652
O11   O     O_R   0.828930 0.978640 0.967700 -0.518784
O12   O     O_R   0.531740 0.669050 0.552980 -0.501626
O13   O     O_R   0.021360 0.850290 0.967700 -0.487561
O14   O     O_R   0.178510 0.985930 0.071830 -0.460749
O15   O     O_R   0.014070 0.192580 0.071830 -0.487659
O16   O     O_R   0.807420 0.821490 0.071830 -0.521896
O17   O     O_R   0.147830 0.173300 0.066650 -0.493449
O18   O     O_R   0.826700 0.974530 0.066650 -0.494917
O19   O     O_R   0.025470 0.852170 0.066650 -0.492439
O20   O     O_2   0.744221 0.970427 0.451486 -0.478427
O21   O     O_2   0.033866 0.780374 0.455141 -0.476560
O22   O     O_2   0.240994 0.262469 0.450657 -0.476412
O23   O     O_R   0.330950 0.862690 0.552980 -0.500098
O24   O     O_2   0.834378 0.695902 0.178737 -0.547584
O25   O     O_2   0.331886 0.095115 0.138301 -0.454680
O26   O     O_2   0.870721 0.136437 0.172788 -0.503967
O27   O     O_2   0.478521 0.932654 0.196013 -0.514295
O28   O     O_2   0.011826 0.534333 0.197603 -0.507471
O29   O     O_2   0.440606 0.452931 0.250174 -0.497760
O30   O     O_2   0.554338 0.990680 0.725805 -0.527332
O31   O     O_2   0.987701 0.577616 0.728237 -0.518713
O32   O     O_2   0.419473 0.425613 0.733777 -0.528374
O33   O     O_2   0.500275 0.543242 0.371812 -0.444593
O34   O     O_R   0.180530 0.983530 0.965090 -0.501391
O35   O     O_2   0.455607 0.946217 0.370974 -0.469814
O36   O     O_2   0.103975 0.567064 0.321226 -0.547763
O37   O     O_R   0.016470 0.197000 0.965090 -0.495403
O38   O     O_R   0.803000 0.819470 0.965090 -0.514531
O39   O     O_R   0.174120 0.688790 0.549730 -0.484544
O40   O     O_R   0.311210 0.485330 0.549730 -0.484891
O41   O     O_R   0.514670 0.825880 0.549730 -0.486189

loop_
_geom_bond_atom_site_label_1
_geom_bond_atom_site_label_2
_ccdc_geom_bond_type
C94   H32   S    
C65   C92   S    
C33   H7    S    
C24   C27   A    
C20   C82   S    
Cr2   O6    S    
Cr1   O39   S    
C12   C91   S    
C36   C42   A    
C10   H72   S    
C84   C87   S    
Cr4   O10   S    
C87   H26   S    
C68   O18   A    
C33   C36   A    
C104  H49   S    
C72   C85   S    
C8    O36   D    
C42   H10   S    
C107  H57   S    
C25   C28   A    
C48   C97   S    
C52   C102  S    
C69   O14   A    
C59   C105  S    
C22   O11   A    
C34   C40   A    
C7    C45   S    
C28   C94   S    
C19   C21   S    
Cr3   O23   S    
Cr5   O18   S    
C5    C72   S    
C16   C19   T    
C54   C87   S    
C43   H2    S    
C73   H11   S    
C30   H5    S    
C25   C45   A    
C6    O33   D    
C29   C33   A    
C10   H71   S    
Cr2   O12   S    
C75   H14   S    
C42   C46   A    
C2    C90   S    
C1    O39   A    
C65   C98   S    
C104  O28   D    
C88   H12   S    
C9    H68   S    
Cr3   O7    S    
C47   C60   A    
C107  H54   S    
Cr1   O5    S    
C53   C106  S    
C75   C85   S    
C48   C51   A    
C56   C108  S    
C101  H46   S    
C103  H48   S    
C99   H41   S    
C68   O16   A    
C86   H67   S    
C65   H4    S    
C38   O6    A    
Cr1   O1    S    
C69   O19   A    
Cr5   O9    S    
Cr3   O4    S    
C25   C37   S    
C58   C61   A    
Cr5   O11   S    
C66   C67   S    
C6    C44   S    
C20   O10   A    
C23   O13   A    
C27   C30   A    
C34   C60   S    
C50   C63   A    
C14   C17   T    
Cr4   O9    S    
C36   C62   S    
C20   O37   A    
C76   C83   S    
C89   H78   S    
C75   H17   S    
C47   C50   A    
C32   O41   A    
C15   C18   T    
C73   H15   S    
C77   C90   S    
C9    C43   S    
C43   C90   S    
Cr4   O34   S    
C30   C34   A    
Cr2   O8    S    
C11   H74   S    
C37   O4    A    
C3    C70   S    
C95   H33   S    
C86   C90   S    
C29   C95   S    
C53   C57   A    
C26   C38   S    
C57   C60   A    
C97   H40   S    
C21   O40   A    
C39   O3    A    
C13   C82   T    
C38   O2    A    
C108  H60   S    
C86   H1    S    
C11   H75   S    
C77   H18   S    
C72   H56   S    
Cr6   O19   S    
C32   O12   A    
C71   H45   S    
C106  H51   S    
C1    O23   A    
C9    H69   S    
C101  O25   D    
Cr3   O8    S    
C49   C99   S    
C8    H66   S    
C88   H77   S    
C74   H13   S    
C22   O38   A    
C88   C91   S    
C47   C96   S    
C49   C52   A    
C96   H36   S    
C55   C64   A    
C94   O21   D    
C93   O20   D    
C10   H73   S    
C85   C98   S    
C105  H50   S    
C7    H65   S    
Cr1   O2    S    
C35   C61   S    
C64   C69   S    
C89   C92   S    
C93   H31   S    
C70   C83   S    
C5    H63   S    
C79   C92   S    
C35   C41   A    
Cr2   O40   S    
C3    H61   S    
C3    O30   D    
C37   O5    A    
C99   H43   S    
C98   H27   S    
C4    H62   S    
C16   C85   S    
C24   C44   A    
C97   H39   S    
C31   C35   A    
C27   C93   S    
C70   H34   S    
C70   C86   S    
C108  H59   S    
C106  H52   S    
C96   H37   S    
C23   O34   A    
C52   C66   A    
C71   C84   S    
C107  H55   S    
C76   H25   S    
C43   C76   S    
C95   O22   D    
C79   H20   S    
C39   O7    A    
C63   C68   S    
C100  O24   D    
C59   C62   A    
C73   C77   S    
C49   C62   A    
C23   C81   S    
C98   H30   S    
C50   C100  S    
C28   C31   A    
C51   C64   A    
C74   C84   S    
Cr6   O38   S    
Cr6   O13   S    
Cr5   O37   S    
C15   C84   S    
C1    C18   S    
C78   C91   S    
C51   C101  S    
C4    O31   D    
C40   H8    S    
C89   H23   S    
Cr5   O15   S    
C56   C59   A    
C67   O15   A    
C11   H76   S    
C21   O1    A    
C106  H53   S    
C41   H9    S    
C74   H16   S    
Cr4   O14   S    
C54   C91   S    
C13   C92   S    
C9    H70   S    
C14   C83   S    
Cr4   O17   S    
C72   C89   S    
C53   C63   A    
C48   C61   A    
C7    O35   D    
C102  H47   S    
C56   C66   A    
C96   H35   S    
C57   C103  S    
Cr3   O41   S    
C97   H38   S    
Cr6   O16   S    
C12   C81   T    
C67   O17   A    
C108  H58   S    
C10   C54   S    
C78   H19   S    
C8    C46   S    
C31   H6    S    
C2    C80   T    
C102  O26   D    
C22   C80   S    
C71   C88   S    
C105  O29   D    
C99   H42   S    
C100  H44   S    
C40   C44   A    
C79   H24   S    
C58   C104  S    
C26   C29   A    
C74   C78   S    
C55   C58   A    
C55   C107  S    
Cr2   O3    S    
C17   C32   S    
C41   C45   A    
Cr1   O8    S    
C5    O32   D    
C77   H21   S    
C87   H29   S    
C54   H3    S    
C26   C46   A    
C75   C79   S    
C24   C39   S    
C73   C83   S    
C4    C71   S    
C6    H64   S    
Cr6   O9    S    
C11   C65   S    
C103  O27   D    
C78   H22   S    
C76   H28   S    
