data_mof_unit_57371.cif
_audit_creation_date              2012-10-26T17:12:24-0400
_audit_creation_method            fapswitch 2.2
_symmetry_space_group_name_H-M    P1
_symmetry_Int_Tables_number       1
_space_group_crystal_system       triclinic
_cell_length_a                    16.76787
_cell_length_b                    16.67334
_cell_length_c                    16.708149
_cell_angle_alpha                 67.793127
_cell_angle_beta                  67.677316
_cell_angle_gamma                 67.720257
_cell_volume                      3846.30454076

loop_
_atom_site_label
_atom_site_type_symbol
_atom_type_description
_atom_site_fract_x
_atom_site_fract_y
_atom_site_fract_z
_atom_type_partial_charge
C1    C     C_R   0.029228 0.827880 0.564195 0.549933
C2    C     C_R   0.029468 0.564091 0.827840 0.601209
C3    C     C_R   0.172003 0.970931 0.435666 0.550732
C4    C     C_R   0.827917 0.029181 0.564297 0.579991
C5    C     C_R   0.448707 0.071968 0.703831 0.127200
C6    C     C_R   0.550378 0.928678 0.296536 0.113199
C7    C     C_R   0.070850 0.703510 0.448314 0.127073
C8    C     C_R   0.925284 0.297100 0.552123 0.124012
C9    C     C_R   0.745085 0.515029 0.917808 0.103575
C10   C     C_R   0.294138 0.553286 0.923317 0.113655
C11   C     C_R   0.295556 0.929455 0.552005 0.127405
C12   C     C_R   0.970462 0.172123 0.435868 0.563342
C13   C     C_R   0.704361 0.068117 0.449282 0.114199
C14   C     C_R   0.554552 0.303137 0.896681 0.118632
C15   C     C_R   0.458812 0.696369 0.060332 0.110906
C16   C     C_R   0.926800 0.552652 0.296320 0.124979
C17   C     C_R   0.067725 0.448676 0.704444 0.108508
C18   C     C_R   0.542345 0.023612 0.543117 0.022947
C19   C     C_R   0.457018 0.975114 0.458249 0.023276
C20   C     C_R   0.022409 0.542855 0.542686 0.023907
C21   C     C_R   0.972310 0.458597 0.458118 0.024780
C22   C     C_R   0.557741 0.558519 0.973769 0.022830
C23   C     C_R   0.832295 0.570508 0.011546 0.591200
C24   C     C_R   0.465984 0.466532 0.942947 0.021553
C25   C     C_R   0.585613 0.013287 0.455429 -0.000418
C26   C     C_R   0.413534 0.985534 0.545934 -0.010726
C27   C     C_R   0.011899 0.455130 0.586241 -0.005999
C28   C     C_R   0.982852 0.546299 0.414431 -0.011161
C29   C     C_R   0.463934 0.589757 0.989408 -0.000766
C30   C     C_R   0.559699 0.433113 0.928673 -0.008444
C31   C     C_R   0.544982 0.983903 0.415091 -0.000292
C32   C     C_R   0.454447 0.014526 0.586570 -0.010793
C33   C     C_R   0.420586 0.550122 0.962919 -0.001513
C34   C     C_R   0.171955 0.435712 0.970523 0.591640
C35   C     C_R   0.606680 0.484252 0.936664 -0.001874
C36   C     C_R   0.981939 0.414957 0.545923 -0.007613
C37   C     C_R   0.012675 0.586565 0.454884 -0.010537
C38   C     C_R   0.406903 0.044604 0.664286 -0.095572
C39   C     C_R   0.592751 0.953786 0.337506 -0.132195
C40   C     C_R   0.042904 0.664102 0.406840 -0.095970
C41   C     C_R   0.951956 0.337252 0.593939 -0.094887
C42   C     C_R   0.700350 0.467021 0.904981 -0.131913
C43   C     C_R   0.336462 0.595515 0.946768 -0.133717
C44   C     C_R   0.335337 0.956843 0.593611 -0.095249
C45   C     C_R   0.564291 0.029086 0.828028 0.543831
C46   C     C_R   0.663534 0.042229 0.407381 -0.133241
C47   C     C_R   0.602873 0.352575 0.902252 -0.088314
C48   C     C_R   0.415315 0.656122 0.035733 -0.132498
C49   C     C_R   0.953852 0.594305 0.336359 -0.096423
C50   C     C_R   0.041160 0.406884 0.664022 -0.143791
C51   C     C_R   0.543864 0.054124 0.675250 0.022985
C52   C     C_R   0.455595 0.946227 0.325135 0.047394
C53   C     C_R   0.053692 0.674903 0.543647 0.022405
C54   C     C_R   0.942916 0.325731 0.456785 0.021647
C55   C     C_R   0.697470 0.575693 0.972159 0.042437
C56   C     C_R   0.435805 0.970632 0.172062 0.592498
C57   C     C_R   0.325449 0.458391 0.936909 0.046642
C58   C     C_R   0.324380 0.946186 0.456629 0.023051
C59   C     C_R   0.675506 0.052082 0.544234 0.048857
C60   C     C_R   0.459051 0.328981 0.926666 0.020785
C61   C     C_R   0.553488 0.677932 0.029772 0.046395
C62   C     C_R   0.943516 0.457179 0.325220 0.023274
C63   C     C_R   0.052049 0.543753 0.675428 0.046472
C64   C     C_R   0.596922 0.047988 0.728318 -0.035427
C65   C     C_R   0.402907 0.952106 0.271856 -0.007968
C66   C     C_R   0.048047 0.728049 0.596733 -0.038033
C67   C     C_R   0.436186 0.172179 0.969258 0.544204
C68   C     C_R   0.950605 0.272042 0.403359 -0.032560
C69   C     C_R   0.739793 0.612751 0.004034 -0.009097
C70   C     C_R   0.271469 0.403401 0.949563 -0.008983
C71   C     C_R   0.271536 0.952207 0.403226 -0.037602
C72   C     C_R   0.728345 0.047244 0.597038 -0.012576
C73   C     C_R   0.403772 0.272598 0.945999 -0.036167
C74   C     C_R   0.601567 0.729876 0.034905 -0.005702
C75   C     C_R   0.950815 0.403514 0.271850 -0.034544
C76   C     C_R   0.047552 0.596681 0.728220 -0.003989
C77   C     C_R   0.687648 0.045247 0.687816 -0.177502
C78   C     C_R   0.564805 0.827935 0.027606 0.597457
C79   C     C_R   0.312205 0.954792 0.312286 -0.178547
C80   C     C_R   0.045653 0.687534 0.687560 -0.177915
C81   C     C_R   0.953967 0.312318 0.312274 -0.168768
C82   C     C_R   0.692198 0.691820 0.030345 -0.187411
C83   C     C_R   0.311691 0.311669 0.955099 -0.176084
C84   C     C_R   0.587578 0.042592 0.587890 -0.011156
C85   C     C_R   0.411973 0.956481 0.413031 -0.011175
C86   C     C_R   0.042129 0.587491 0.587565 -0.012117
C87   C     C_R   0.953259 0.413623 0.413144 -0.001307
C88   C     C_R   0.602851 0.603611 0.992546 -0.022177
C89   C     C_R   0.970478 0.435864 0.172104 0.555058
C90   C     C_R   0.416650 0.417428 0.936282 -0.009940
Cu1   Cu    Cu3+1 0.995180 0.995180 0.424630 0.899394
Cu2   Cu    Cu3+1 0.004820 0.004820 0.575370 0.881261
Cu3   Cu    Cu3+1 0.995180 0.424630 0.995180 0.915018
Cu4   Cu    Cu3+1 0.004820 0.575370 0.004820 0.901407
Cu5   Cu    Cu3+1 0.424630 0.995180 0.995180 0.901203
Cu6   Cu    Cu3+1 0.575370 0.004820 0.004820 0.903380
H1    H     H_    0.334932 0.055797 0.689767 0.111345
H2    H     H_    0.342784 0.673035 0.058638 0.104056
H3    H     H_    0.943659 0.666500 0.310723 0.111466
H4    H     H_    0.050796 0.334785 0.689949 0.098666
H5    H     H_    0.728365 0.037685 0.728736 0.162859
H6    H     H_    0.271468 0.962762 0.271212 0.160785
H7    H     H_    0.038369 0.728524 0.728403 0.161197
H8    H     H_    0.963189 0.270888 0.271040 0.161744
H9    H     H_    0.726935 0.726073 0.044252 0.158412
H10   H     H_    0.269664 0.268994 0.970458 0.161512
H11   H     H_    0.353957 0.100163 0.817463 0.249047
H12   H     H_    0.664708 0.942639 0.311966 0.101214
H13   H     H_    0.428458 0.164154 0.769580 0.242029
H14   H     H_    0.639692 0.811999 0.274472 0.228880
H15   H     H_    0.652951 0.903695 0.187438 0.232681
H16   H     H_    0.098654 0.817197 0.353204 0.248359
H17   H     H_    0.162986 0.769049 0.427243 0.242659
H18   H     H_    0.835238 0.229482 0.572386 0.248337
H19   H     H_    0.899069 0.182605 0.646771 0.248823
H20   H     H_    0.837506 0.535431 0.797342 0.221081
H21   H     H_    0.873015 0.442536 0.876076 0.238471
H22   H     H_    0.182951 0.655582 0.905007 0.231295
H23   H     H_    0.053587 0.689559 0.334715 0.111123
H24   H     H_    0.266155 0.645088 0.810224 0.229087
H25   H     H_    0.181811 0.902571 0.646939 0.248950
H26   H     H_    0.229867 0.837177 0.573251 0.243206
H27   H     H_    0.726241 0.184176 0.358502 0.220144
H28   H     H_    0.813125 0.092188 0.346102 0.232208
H29   H     H_    0.642659 0.182266 0.881116 0.253709
H30   H     H_    0.562652 0.221944 0.824304 0.239047
H31   H     H_    0.378778 0.703409 0.184693 0.229050
H32   H     H_    0.354251 0.797087 0.101737 0.234538
H33   H     H_    0.901127 0.647488 0.181884 0.248360
H34   H     H_    0.940934 0.311920 0.666111 0.111179
H35   H     H_    0.836318 0.573709 0.229101 0.247720
H36   H     H_    0.091779 0.345523 0.813460 0.228138
H37   H     H_    0.183154 0.357119 0.725874 0.230449
H38   H     H_    0.740353 0.420727 0.864361 0.100186
H39   H     H_    0.307815 0.666634 0.942665 0.101569
H40   H     H_    0.309650 0.946563 0.665700 0.111713
H41   H     H_    0.689306 0.052239 0.335339 0.099943
H42   H     H_    0.674921 0.326686 0.883739 0.117508
N1    N     N_3   0.391682 0.133945 0.757000 -0.624880
N2    N     N_3   0.407069 0.746780 0.125265 -0.595636
N3    N     N_3   0.866418 0.610322 0.242113 -0.625733
N4    N     N_3   0.123791 0.392861 0.763138 -0.586947
N5    N     N_3   0.605016 0.872365 0.237393 -0.588495
N6    N     N_3   0.132475 0.756560 0.390698 -0.625304
N7    N     N_3   0.864688 0.242822 0.609297 -0.612172
N8    N     N_3   0.836174 0.510393 0.865309 -0.586239
N9    N     N_3   0.231632 0.608698 0.871267 -0.585067
N10   N     N_3   0.242157 0.868113 0.609678 -0.626260
N11   N     N_3   0.763238 0.124200 0.393732 -0.593239
N12   N     N_3   0.604365 0.239409 0.844284 -0.613194
O1    O     O_R   0.124540 0.978640 0.385460 -0.514700
O2    O     O_R   0.124540 0.385460 0.978640 -0.511385
O3    O     O_R   0.021360 0.875460 0.614540 -0.513696
O4    O     O_R   0.978640 0.124540 0.385460 -0.499680
O5    O     O_R   0.013780 0.867370 0.487190 -0.509551
O6    O     O_R   0.986220 0.132630 0.512810 -0.509442
O7    O     O_R   0.867370 0.487190 0.013780 -0.486060
O8    O     O_R   0.132630 0.512810 0.986220 -0.477683
O9    O     O_R   0.487190 0.013780 0.867370 -0.511433
O10   O     O_R   0.512810 0.986220 0.132630 -0.475073
O11   O     O_R   0.512810 0.132630 0.986220 -0.509557
O12   O     O_R   0.875460 0.021360 0.614540 -0.520957
O13   O     O_R   0.487190 0.867370 0.013780 -0.476808
O14   O     O_R   0.986220 0.512810 0.132630 -0.511804
O15   O     O_R   0.013780 0.487190 0.867370 -0.476142
O16   O     O_R   0.132630 0.986220 0.512810 -0.506922
O17   O     O_R   0.867370 0.013780 0.487190 -0.471720
O18   O     O_R   0.978640 0.385460 0.124540 -0.509245
O19   O     O_R   0.021360 0.614540 0.875460 -0.512843
O20   O     O_R   0.385460 0.124540 0.978640 -0.517520
O21   O     O_R   0.614540 0.875460 0.021360 -0.507342
O22   O     O_R   0.614540 0.021360 0.875460 -0.518391
O23   O     O_R   0.385460 0.978640 0.124540 -0.510334
O24   O     O_R   0.875460 0.614540 0.021360 -0.528377

loop_
_geom_bond_atom_site_label_1
_geom_bond_atom_site_label_2
_ccdc_geom_bond_type
C25   C31   A    
Cu1   O1    S    
H28   N11   S    
C21   C87   A    
C26   C32   A    
Cu3   Cu4   S    
C65   C79   A    
C22   C29   A    
C64   C77   A    
C23   C69   S    
C77   H5    S    
Cu5   Cu6   S    
C45   O9    A    
C19   C31   A    
H27   N11   S    
C26   C44   A    
C21   C36   A    
C8    C41   A    
C22   C35   A    
C12   C68   S    
H37   N4    S    
C30   C35   A    
Cu5   O9    S    
C68   C81   A    
Cu1   O17   S    
C52   C85   A    
C74   C82   A    
C37   C40   A    
C44   H40   S    
Cu4   O19   S    
C41   H34   S    
C58   C71   A    
C54   C68   A    
C63   C76   A    
C56   C65   S    
C29   C33   A    
C60   C73   A    
Cu6   O11   S    
C82   H9    S    
C55   C88   A    
C1    O5    A    
C19   C26   A    
C69   C82   A    
C14   C47   A    
C8    N7    S    
Cu3   O18   S    
Cu6   O21   S    
C20   C86   A    
C18   C84   A    
C7    C40   A    
C79   H6    S    
C53   C86   A    
C67   C73   S    
C22   C88   A    
C57   C70   A    
C11   C58   A    
C34   C70   S    
C89   O14   A    
H35   N3    S    
C27   C50   A    
H15   N5    S    
C10   N9    S    
Cu3   O15   S    
C78   O13   A    
Cu4   O8    S    
C5    C38   A    
H11   N1    S    
C15   C61   A    
C36   C41   A    
C18   C25   A    
C16   C62   A    
C15   C48   A    
C12   O6    A    
C38   H1    S    
C59   C72   A    
C71   C79   A    
C7    N6    S    
C5    N1    S    
C67   O20   A    
H36   N4    S    
C39   H12   S    
C57   C90   A    
C29   C48   A    
C33   C43   A    
C70   C83   A    
C30   C47   A    
C10   C57   A    
C16   C49   A    
Cu1   O4    S    
C8    C54   A    
Cu1   Cu2   S    
C23   O24   A    
C34   O2    A    
C75   C81   A    
C80   H7    S    
C17   N4    S    
C1    O3    A    
C89   O18   A    
Cu1   O5    S    
C72   C77   A    
C43   H39   S    
C61   C88   A    
Cu5   O13   S    
C49   H3    S    
C28   C49   A    
C67   O11   A    
C14   N12   S    
C1    C66   S    
C9    C42   A    
H25   N10   S    
C11   C44   A    
Cu2   O6    S    
C55   C69   A    
C9    N8    S    
C59   C84   A    
Cu3   O7    S    
C53   C66   A    
C2    O15   A    
Cu2   O3    S    
Cu4   O24   S    
C46   H41   S    
C9    C55   A    
C34   O8    A    
Cu6   O10   S    
C21   C28   A    
C32   C38   A    
C63   C86   A    
Cu6   O22   S    
C61   C74   A    
C4    O12   A    
C62   C75   A    
C18   C32   A    
H31   N2    S    
C7    C53   A    
C58   C85   A    
Cu4   O14   S    
C4    C72   S    
C2    C76   S    
C15   N2    S    
Cu2   O12   S    
C14   C60   A    
H17   N6    S    
H22   N9    S    
C10   C43   A    
C3    O1    A    
C5    C51   A    
C51   C64   A    
C76   C80   A    
H18   N7    S    
C12   O4    A    
C19   C85   A    
C24   C90   A    
C17   C50   A    
C83   H10   S    
C3    C71   S    
C13   C59   A    
C20   C27   A    
C60   C90   A    
C27   C36   A    
C51   C84   A    
C66   C80   A    
C62   C87   A    
H19   N7    S    
C45   C64   S    
C50   H4    S    
C24   C33   A    
C4    O17   A    
H13   N1    S    
C56   O23   A    
C42   H38   S    
H16   N6    S    
C16   N3    S    
Cu5   O23   S    
C13   N11   S    
C45   O22   A    
C56   O10   A    
C17   C63   A    
H20   N8    S    
C20   C37   A    
H30   N12   S    
C54   C87   A    
C28   C37   A    
C23   O7    A    
C47   H42   S    
C78   O21   A    
C35   C42   A    
C31   C39   A    
C13   C46   A    
C48   H2    S    
H32   N2    S    
H14   N5    S    
C11   N10   S    
Cu5   O20   S    
C24   C30   A    
H29   N12   S    
C75   C89   S    
C2    O19   A    
H26   N10   S    
Cu2   O16   S    
C40   H23   S    
H33   N3    S    
H24   N9    S    
C74   C78   S    
C6    C39   A    
H21   N8    S    
Cu3   O2    S    
C6    C52   A    
C6    N5    S    
C25   C46   A    
C73   C83   A    
C52   C65   A    
C3    O16   A    
C81   H8    S    
