data_mof_unit_54180.cif
_audit_creation_date              2012-12-10T18:57:14-0500
_audit_creation_method            fapswitch 2.2
_symmetry_space_group_name_H-M    P1
_symmetry_Int_Tables_number       1
_space_group_crystal_system       triclinic
_cell_length_a                    8.728868
_cell_length_b                    10.845369
_cell_length_c                    9.559248
_cell_angle_alpha                 90.201063
_cell_angle_beta                  97.797441
_cell_angle_gamma                 90.254917
_cell_volume                      896.569040825

loop_
_atom_site_label
_atom_site_type_symbol
_atom_type_description
_atom_site_fract_x
_atom_site_fract_y
_atom_site_fract_z
_atom_type_partial_charge
C1    C     C_R   0.495886 0.262590 0.499280 0.814363
C2    C     C_R   0.440490 0.935950 0.366873 0.398740
C3    C     C_R   0.477735 0.871278 0.495803 -0.134916
C4    C     C_R   0.490601 0.937788 0.622335 -0.035375
C5    C     C_3   0.609465 0.934812 0.751521 0.233657
C6    C     C_3   0.607197 0.075068 0.751426 -0.470487
C7    C     C_R   0.633367 0.521031 0.090320 0.195097
C8    C     C_R   0.371587 0.467479 0.058184 -0.053380
C9    C     C_R   0.371479 0.467740 0.909697 -0.088239
C10   C     C_R   0.634035 0.519101 0.943042 0.281862
C11   C     C_3   0.735138 0.630407 0.949498 0.170121
C12   C     C_R   0.203965 0.498899 0.463949 0.879869
C13   C     C_3   0.731559 0.634373 0.107902 -0.536274
C14   C     C_R   0.495493 0.737810 0.499205 0.860704
C15   C     C_R   0.796081 0.500012 0.536149 0.895895
C16   C     C_2   0.038237 0.495719 0.444400 -0.379667
C17   C     C_2   0.961944 0.501182 0.556129 -0.338860
C18   C     C_R   0.490022 0.064619 0.622805 0.042005
C19   C     C_R   0.478027 0.129981 0.497020 -0.110701
C20   C     C_R   0.441785 0.065769 0.369008 -0.316349
Cu1   Cu    Cu3+1 0.499990 0.499980 0.640670 0.967650
Cu2   Cu    Cu3+1 0.500010 0.500020 0.359330 0.970641
H1    H     H_    0.978854 0.487854 0.337392 0.173750
H2    H     H_    0.266596 0.442739 0.842024 0.158032
H3    H     H_    0.679490 0.709143 0.889862 0.164939
H4    H     H_    0.845845 0.617928 0.171064 0.214865
H5    H     H_    0.668324 0.715411 0.142256 0.210426
H6    H     H_    0.021491 0.507517 0.663439 0.196137
H7    H     H_    0.420749 0.115934 0.270504 0.159817
H8    H     H_    0.564547 0.894313 0.844529 0.126832
H9    H     H_    0.556981 0.114699 0.842417 0.174972
H10   H     H_    0.716816 0.119267 0.729876 0.199951
H11   H     H_    0.266810 0.442253 0.099795 0.154458
N1    N     N_R   0.500980 0.500930 0.148050 -0.183295
N2    N     N_R   0.500990 0.500890 0.852140 -0.227744
O1    O     O_R   0.500000 0.319640 0.618810 -0.580909
O2    O     O_R   0.500020 0.319680 0.381230 -0.592212
O3    O     O_R   0.274830 0.499980 0.591380 -0.592189
O4    O     O_R   0.274850 0.500020 0.353800 -0.591310
O5    O     O_R   0.499980 0.680320 0.618770 -0.586404
O6    O     O_R   0.500000 0.680360 0.381190 -0.524721
O7    O     O_R   0.725150 0.499980 0.646200 -0.547592
O8    O     O_R   0.725170 0.500020 0.408620 -0.588532
O9    O     O_3   0.881821 0.601137 0.915425 -0.711348
H12   H     H_    0.940454 0.679958 0.920631 0.349694
O10   O     O_3   0.408800 0.872162 0.240736 -0.720745
H13   H     H_    0.386606 0.931664 0.162070 0.312599
O11   O     O_3   0.752401 0.885089 0.726969 -0.728961
H14   H     H_    0.782627 0.922756 0.640084 0.333131

loop_
_geom_bond_atom_site_label_1
_geom_bond_atom_site_label_2
_ccdc_geom_bond_type
C8    C9    A    
C7    C10   A    
C6    H10   S    
C9    H2    S    
C10   N2    A    
Cu1   N2    S    
C19   C20   A    
C1    O2    A    
C20   H7    S    
C4    C18   A    
C17   H6    S    
C12   O4    A    
C2    C3    A    
C15   O8    A    
C11   O9    S    
Cu1   O1    S    
C8    N1    A    
Cu1   Cu2   S    
C2    O10   S    
C11   C13   S    
C3    C14   S    
C14   O6    A    
C6    C18   S    
Cu2   O4    S    
O11   H14   S    
C7    N1    A    
C6    H9    S    
C16   H1    S    
C8    H11   S    
C12   O3    A    
C5    C6    S    
Cu2   N1    S    
C5    O11   S    
C13   H4    S    
C1    C19   S    
Cu2   O6    S    
C10   C11   S    
C11   H3    S    
C2    C20   A    
C3    C4    A    
C12   C16   S    
C7    C13   S    
O9    H12   S    
C15   O7    A    
C15   C17   S    
C18   C19   A    
C5    H8    S    
C9    N2    A    
O10   H13   S    
C4    C5    S    
Cu2   O2    S    
C14   O5    A    
Cu2   O8    S    
C13   H5    S    
Cu1   O3    S    
Cu1   O7    S    
C1    O1    A    
C16   C17   D    
Cu1   O5    S    
