data_mof_unit_57662.cif
_audit_creation_date              2012-10-26T19:59:40-0400
_audit_creation_method            fapswitch 2.2
_symmetry_space_group_name_H-M    P1
_symmetry_Int_Tables_number       1
_space_group_crystal_system       triclinic
_cell_length_a                    10.744192
_cell_length_b                    8.705298
_cell_length_c                    7.454846
_cell_angle_alpha                 102.912395
_cell_angle_beta                  94.287449
_cell_angle_gamma                 92.464707
_cell_volume                      676.448452336

loop_
_atom_site_label
_atom_site_type_symbol
_atom_type_description
_atom_site_fract_x
_atom_site_fract_y
_atom_site_fract_z
_atom_type_partial_charge
C1    C     C_R   0.496126 0.200074 0.453217 0.561728
C2    C     C_R   0.503710 0.800151 0.546274 0.545472
C3    C     C_R   0.737390 0.506419 0.498820 0.527220
C4    C     C_R   0.150820 0.772741 0.731696 -0.090079
C5    C     C_R   0.095468 0.899853 0.838333 -0.111596
C6    C     C_R   0.965907 0.902113 0.833240 -0.120232
C7    C     C_R   0.890923 0.777245 0.721504 -0.099031
C8    C     C_R   0.945009 0.645810 0.614371 0.025659
C9    C     C_R   0.076628 0.643511 0.619575 0.023548
C10   C     C_R   0.129608 0.514130 0.507032 0.008698
C11   C     C_R   0.054435 0.394071 0.386729 -0.147060
C12   C     C_R   0.926124 0.396259 0.381835 -0.147279
C13   C     C_R   0.871351 0.518537 0.497286 0.007727
C14   C     C_2   0.493963 0.032715 0.425184 0.322518
C15   C     C_2   0.505300 0.967749 0.570832 -0.133877
C16   C     C_R   0.262885 0.504337 0.502757 0.526931
Cu1   Cu    Cu3+1 0.513920 0.517380 0.684380 0.970887
Cu2   Cu    Cu3+1 0.486080 0.482620 0.315620 1.019224
F1    F     F_    0.480304 0.945884 0.247550 -0.621146
H1    H     H_    0.095549 0.296595 0.298228 0.125750
H2    H     H_    0.597711 0.622012 0.051391 0.262309
H3    H     H_    0.251662 0.778694 0.736220 0.153501
H4    H     H_    0.153371 0.997922 0.923559 0.130158
H5    H     H_    0.923289 0.001965 0.914449 0.119087
H6    H     H_    0.790792 0.786631 0.717440 0.135002
H7    H     H_    0.869217 0.299691 0.291425 0.131080
H8    H     H_    0.516008 0.039015 0.711516 0.096140
H9    H     H_    0.402288 0.378000 0.948594 0.238960
N1    N     N_2   0.465100 0.456430 0.038520 -0.248305
N2    N     N_2   0.534900 0.543570 0.961480 -0.231922
O1    O     O_R   0.509050 0.286130 0.619770 -0.551643
O2    O     O_R   0.485540 0.256780 0.308360 -0.459722
O3    O     O_R   0.331410 0.514680 0.655740 -0.513949
O4    O     O_R   0.307900 0.485330 0.344330 -0.500218
O5    O     O_R   0.514460 0.743220 0.691640 -0.509233
O6    O     O_R   0.490950 0.713870 0.380230 -0.425224
O7    O     O_R   0.692100 0.514670 0.655670 -0.507723
O8    O     O_R   0.668590 0.485320 0.344260 -0.513362

loop_
_geom_bond_atom_site_label_1
_geom_bond_atom_site_label_2
_ccdc_geom_bond_type
C2    O5    A    
C11   C12   A    
N1    N2    D    
C2    C15   S    
C16   O3    A    
C4    H3    S    
C9    C10   A    
C15   H8    S    
C5    H4    S    
C6    H5    S    
Cu1   Cu2   S    
Cu2   O8    S    
C7    C8    A    
Cu2   N1    S    
Cu1   O7    S    
C7    H6    S    
Cu1   N2    S    
Cu2   O4    S    
C6    C7    A    
Cu1   O3    S    
H9    N1    S    
C5    C6    A    
Cu1   O1    S    
C11   H1    S    
Cu2   O2    S    
C10   C11   A    
C8    C13   A    
C1    O1    A    
C12   C13   A    
C3    O7    A    
H2    N2    S    
C2    O6    A    
C14   C15   D    
C8    C9    A    
C10   C16   S    
C1    C14   S    
Cu1   O5    S    
C16   O4    A    
C4    C9    A    
Cu2   O6    S    
C14   F1    S    
C1    O2    A    
C3    O8    A    
C12   H7    S    
C4    C5    A    
C3    C13   S    
