data_mof_unit_64589.cif
_audit_creation_date              2012-12-10T17:10:09-0500
_audit_creation_method            fapswitch 2.2
_symmetry_space_group_name_H-M    P1
_symmetry_Int_Tables_number       1
_space_group_crystal_system       orthorhombic
_cell_length_a                    18.465086
_cell_length_b                    18.465087
_cell_length_c                    32.765255
_cell_angle_alpha                 90.0
_cell_angle_beta                  90.0
_cell_angle_gamma                 90.0
_cell_volume                      11171.622323

loop_
_atom_site_label
_atom_site_type_symbol
_atom_type_description
_atom_site_fract_x
_atom_site_fract_y
_atom_site_fract_z
_atom_type_partial_charge
C1    C     C_R   0.000000 0.500000 0.895997 0.489368
C2    C     C_1   0.500000 0.000000 0.231201 0.015486
C3    C     C_R   0.298712 0.807508 0.994742 0.048554
C4    C     C_R   0.702407 0.191422 0.503860 0.044994
C5    C     C_R   0.808578 0.702407 0.503860 0.044994
C6    C     C_R   0.297593 0.808578 0.503860 0.044994
C7    C     C_R   0.191422 0.297593 0.503860 0.044994
C8    C     C_R   0.307508 0.201287 0.494742 0.048554
C9    C     C_R   0.201287 0.692492 0.494742 0.048554
C10   C     C_R   0.692492 0.798713 0.494742 0.048554
C11   C     C_R   0.798713 0.307508 0.494742 0.048554
C12   C     C_R   0.190606 0.756497 0.024825 -0.141185
C13   C     C_1   0.500000 1.000000 0.731201 0.015486
C14   C     C_R   0.243503 0.190606 0.024825 -0.141185
C15   C     C_R   0.809394 0.243503 0.024825 -0.141186
C16   C     C_R   0.756497 0.809394 0.024825 -0.141185
C17   C     C_R   0.812112 0.759100 0.022342 -0.145470
C18   C     C_R   0.759100 0.187888 0.022342 -0.145470
C19   C     C_R   0.187888 0.240899 0.022342 -0.145470
C20   C     C_R   0.240899 0.812112 0.022342 -0.145470
C21   C     C_R   0.690606 0.256497 0.524825 -0.141185
C22   C     C_R   0.743503 0.690606 0.524825 -0.141185
C23   C     C_R   0.309394 0.743503 0.524825 -0.141186
C24   C     C_1   0.000000 0.500000 0.731201 0.015486
C25   C     C_R   0.256497 0.309394 0.524825 -0.141186
C26   C     C_R   0.312112 0.259100 0.522342 -0.145470
C27   C     C_R   0.259100 0.687888 0.522342 -0.145470
C28   C     C_R   0.687888 0.740899 0.522342 -0.145470
C29   C     C_R   0.740899 0.312112 0.522342 -0.145470
C30   C     C_1   0.000000 0.500000 0.149172 0.006103
C31   C     C_1   0.500000 0.000000 0.149172 0.006103
C32   C     C_1   0.500000 0.000000 0.649172 0.006103
C33   C     C_1   1.000000 0.500000 0.649172 0.006103
C34   C     C_2   0.286819 0.547998 0.993846 0.617877
C35   C     C_1   0.500000 1.000000 0.768813 0.019568
C36   C     C_2   0.452002 0.286819 0.993846 0.617877
C37   C     C_2   0.713180 0.452002 0.993845 0.617876
C38   C     C_2   0.547998 0.713180 0.993846 0.617876
C39   C     C_2   0.808700 0.642097 0.906122 0.606442
C40   C     C_2   0.642097 0.191299 0.906122 0.606442
C41   C     C_2   0.191300 0.357903 0.906122 0.606442
C42   C     C_2   0.357903 0.808700 0.906122 0.606442
C43   C     C_2   0.786819 0.047998 0.493846 0.617877
C44   C     C_2   0.952002 0.786819 0.493845 0.617877
C45   C     C_2   0.213180 0.952002 0.493845 0.617876
C46   C     C_1   1.000000 0.500000 0.768813 0.019568
C47   C     C_2   0.047998 0.213180 0.493846 0.617877
C48   C     C_2   0.308700 0.142097 0.406122 0.606442
C49   C     C_2   0.142097 0.691300 0.406122 0.606442
C50   C     C_2   0.691300 0.857903 0.406122 0.606442
C51   C     C_2   0.857903 0.308700 0.406122 0.606442
C52   C     C_1   0.000000 0.500000 0.268813 0.019568
C53   C     C_1   0.500000 0.000000 0.268813 0.019568
C54   C     C_1   0.500000 1.000000 0.813225 -0.004069
C55   C     C_1   1.000000 0.500000 0.813225 -0.004069
C56   C     C_1   0.000000 0.500000 0.313225 -0.004069
C57   C     C_R   0.500000 0.000000 0.895997 0.489368
C58   C     C_1   0.500000 0.000000 0.313225 -0.004069
C59   C     C_1   0.500000 1.000000 0.850833 0.031015
C60   C     C_1   1.000000 0.500000 0.850833 0.031014
C61   C     C_1   0.000000 0.500000 0.350833 0.031014
C62   C     C_1   0.500000 0.000000 0.350833 0.031014
C63   C     C_R   0.000000 0.500000 0.103993 0.496452
C64   C     C_R   0.500000 1.000000 0.103993 0.496452
C65   C     C_R   0.500000 0.000000 0.603993 0.496452
C66   C     C_R   0.000000 0.500000 0.603993 0.496452
C67   C     C_R   0.861287 0.642607 0.997985 0.548850
C68   C     C_R   0.500000 0.000000 0.395997 0.489368
C69   C     C_R   0.357393 0.861287 0.997985 0.548850
C70   C     C_R   0.138713 0.357393 0.997985 0.548850
C71   C     C_R   0.642607 0.138713 0.997985 0.548850
C72   C     C_R   0.142788 0.638554 0.001651 0.544938
C73   C     C_R   0.638554 0.857212 0.001651 0.544939
C74   C     C_R   0.857212 0.361446 0.001651 0.544939
C75   C     C_R   0.361446 0.142788 0.001651 0.544938
C76   C     C_R   0.361287 0.142607 0.497985 0.548850
C77   C     C_R   0.857393 0.361287 0.497985 0.548849
C78   C     C_R   0.638713 0.857393 0.497985 0.548849
C79   C     C_R   1.000000 0.500000 0.395997 0.489368
C80   C     C_R   0.142607 0.638713 0.497985 0.548850
C81   C     C_R   0.642788 0.138554 0.501651 0.544939
C82   C     C_R   0.138554 0.357212 0.501651 0.544939
C83   C     C_R   0.357212 0.861446 0.501651 0.544939
C84   C     C_R   0.861446 0.642788 0.501651 0.544939
C85   C     C_R   0.296104 0.614553 0.968734 0.084258
C86   C     C_R   0.385447 0.296103 0.968734 0.084258
C87   C     C_R   0.703896 0.385447 0.968734 0.084258
C88   C     C_R   0.614553 0.703896 0.968734 0.084257
C89   C     C_R   0.743471 0.655094 0.931770 0.103141
C90   C     C_1   0.000000 0.500000 0.186786 -0.022085
C91   C     C_R   0.655094 0.256528 0.931770 0.103140
C92   C     C_R   0.256528 0.344906 0.931770 0.103140
C93   C     C_R   0.344906 0.743471 0.931770 0.103140
C94   C     C_R   0.796104 0.114553 0.468734 0.084257
C95   C     C_R   0.885447 0.796104 0.468734 0.084257
C96   C     C_R   0.203896 0.885447 0.468734 0.084257
C97   C     C_R   0.114553 0.203896 0.468734 0.084257
C98   C     C_R   0.243471 0.155094 0.431770 0.103141
C99   C     C_R   0.155094 0.756528 0.431770 0.103140
C100  C     C_R   0.756529 0.844906 0.431770 0.103140
C101  C     C_1   0.500000 0.000000 0.186786 -0.022085
C102  C     C_R   0.844906 0.243471 0.431770 0.103141
C103  C     C_R   0.344200 0.612224 0.935624 -0.122179
C104  C     C_R   0.387776 0.344200 0.935624 -0.122179
C105  C     C_R   0.655800 0.387776 0.935624 -0.122179
C106  C     C_R   0.612224 0.655800 0.935624 -0.122179
C107  C     C_R   0.675689 0.635289 0.915883 -0.115087
C108  C     C_R   0.635289 0.324311 0.915883 -0.115088
C109  C     C_R   0.324311 0.364711 0.915883 -0.115087
C110  C     C_R   0.364711 0.675688 0.915883 -0.115087
C111  C     C_R   0.844200 0.112224 0.435625 -0.122179
C112  C     C_1   0.500000 0.000000 0.686786 -0.022085
C113  C     C_R   0.887776 0.844200 0.435625 -0.122179
C114  C     C_R   0.155800 0.887776 0.435625 -0.122179
C115  C     C_R   0.112224 0.155800 0.435625 -0.122179
C116  C     C_R   0.175688 0.135289 0.415883 -0.115087
C117  C     C_R   0.135289 0.824311 0.415883 -0.115088
C118  C     C_R   0.824312 0.864711 0.415883 -0.115087
C119  C     C_R   0.864711 0.175688 0.415883 -0.115087
C120  C     C_R   0.304005 0.746021 0.968650 0.006071
C121  C     C_R   0.253979 0.304005 0.968650 0.006071
C122  C     C_R   0.695995 0.253978 0.968650 0.006071
C123  C     C_1   0.000000 0.500000 0.686786 -0.022085
C124  C     C_R   0.746021 0.695995 0.968650 0.006071
C125  C     C_R   0.682659 0.732915 0.980840 -0.011824
C126  C     C_R   0.732915 0.317341 0.980840 -0.011823
C127  C     C_R   0.317341 0.267085 0.980840 -0.011823
C128  C     C_R   0.267085 0.682659 0.980840 -0.011823
C129  C     C_R   0.804005 0.246021 0.468650 0.006071
C130  C     C_R   0.753979 0.804005 0.468650 0.006071
C131  C     C_R   0.195995 0.753979 0.468650 0.006071
C132  C     C_R   0.246021 0.195995 0.468650 0.006071
C133  C     C_R   0.182659 0.232915 0.480840 -0.011823
C134  C     C_1   0.000000 0.500000 0.231201 0.015486
C135  C     C_R   0.232915 0.817341 0.480840 -0.011823
C136  C     C_R   0.817341 0.767085 0.480840 -0.011823
C137  C     C_R   0.767085 0.182659 0.480840 -0.011824
C138  C     C_R   0.202407 0.691422 0.003860 0.044994
C139  C     C_R   0.308578 0.202407 0.003860 0.044994
C140  C     C_R   0.797593 0.308578 0.003860 0.044994
C141  C     C_R   0.691422 0.797593 0.003860 0.044994
C142  C     C_R   0.807508 0.701287 0.994742 0.048554
C143  C     C_R   0.701287 0.192492 0.994742 0.048554
C144  C     C_R   0.192492 0.298712 0.994742 0.048554
H1    H     H_    0.143085 0.764005 0.043740 0.147627
H2    H     H_    0.735995 0.643085 0.543740 0.147627
H3    H     H_    0.356915 0.735995 0.543740 0.147628
H4    H     H_    0.264005 0.356915 0.543740 0.147627
H5    H     H_    0.359286 0.266179 0.541584 0.146920
H6    H     H_    0.266179 0.640714 0.541584 0.146920
H7    H     H_    0.640714 0.733821 0.541584 0.146920
H8    H     H_    0.733821 0.359286 0.541584 0.146920
H9    H     H_    0.365814 0.561163 0.924813 0.149695
H10   H     H_    0.438837 0.365814 0.924813 0.149695
H11   H     H_    0.634186 0.438836 0.924813 0.149696
H12   H     H_    0.235995 0.143085 0.043740 0.147627
H13   H     H_    0.561163 0.634186 0.924813 0.149696
H14   H     H_    0.671719 0.602738 0.888471 0.150969
H15   H     H_    0.602738 0.328280 0.888471 0.150969
H16   H     H_    0.328281 0.397262 0.888471 0.150969
H17   H     H_    0.397262 0.671719 0.888471 0.150969
H18   H     H_    0.865814 0.061163 0.424813 0.149696
H19   H     H_    0.938837 0.865814 0.424813 0.149695
H20   H     H_    0.134186 0.938837 0.424813 0.149695
H21   H     H_    0.061163 0.134186 0.424813 0.149696
H22   H     H_    0.171719 0.102737 0.388471 0.150969
H23   H     H_    0.856915 0.235995 0.043741 0.147628
H24   H     H_    0.102737 0.828281 0.388471 0.150969
H25   H     H_    0.828281 0.897262 0.388471 0.150969
H26   H     H_    0.897263 0.171719 0.388471 0.150969
H27   H     H_    0.261833 0.504426 0.048555 0.336829
H28   H     H_    0.495574 0.261833 0.048555 0.336829
H29   H     H_    0.738166 0.495574 0.048554 0.336830
H30   H     H_    0.504426 0.738167 0.048555 0.336830
H31   H     H_    0.910218 0.672474 0.891026 0.334449
H32   H     H_    0.672474 0.089782 0.891026 0.334449
H33   H     H_    0.089783 0.327526 0.891026 0.334449
H34   H     H_    0.764005 0.856915 0.043741 0.147627
H35   H     H_    0.327526 0.910217 0.891026 0.334448
H36   H     H_    0.761833 0.004426 0.548555 0.336830
H37   H     H_    0.995574 0.761833 0.548555 0.336829
H38   H     H_    0.238167 0.995573 0.548554 0.336830
H39   H     H_    0.004426 0.238167 0.548555 0.336830
H40   H     H_    0.410217 0.172474 0.391026 0.334449
H41   H     H_    0.172474 0.589782 0.391026 0.334449
H42   H     H_    0.589783 0.827526 0.391026 0.334449
H43   H     H_    0.827526 0.410217 0.391026 0.334449
H44   H     H_    0.859286 0.766179 0.041584 0.146920
H45   H     H_    0.766179 0.140714 0.041584 0.146920
H46   H     H_    0.140714 0.233821 0.041584 0.146920
H47   H     H_    0.233821 0.859286 0.041584 0.146920
H48   H     H_    0.643085 0.264005 0.543740 0.147627
O1    O     O_3   0.000000 0.500000 0.999990 -0.441609
O2    O     O_R   0.000000 0.560760 0.415980 -0.509045
O3    O     O_R   0.439240 0.000000 0.415980 -0.509045
O4    O     O_R   0.000000 0.439240 0.415980 -0.509044
O5    O     O_R   0.000000 0.560700 0.083990 -0.528885
O6    O     O_R   0.439300 0.000000 0.083990 -0.528885
O7    O     O_R   0.000000 0.439300 0.083990 -0.528885
O8    O     O_R   0.560700 0.000000 0.083990 -0.528885
O9    O     O_R   0.500000 0.060700 0.583990 -0.528885
O10   O     O_R   0.939300 0.500000 0.583990 -0.528885
O11   O     O_R   0.500000 0.939300 0.583990 -0.528885
O12   O     O_3   0.500000 0.000000 0.999990 -0.441609
O13   O     O_R   0.060700 0.500000 0.583990 -0.528885
O14   O     O_R   0.853840 0.585420 0.977960 -0.502240
O15   O     O_R   0.414580 0.853840 0.977960 -0.502240
O16   O     O_R   0.146160 0.414580 0.977960 -0.502240
O17   O     O_R   0.585420 0.146160 0.977960 -0.502240
O18   O     O_R   0.146160 0.585420 0.977960 -0.528481
O19   O     O_R   0.585420 0.853840 0.977960 -0.528480
O20   O     O_R   0.853840 0.414580 0.977960 -0.528481
O21   O     O_R   0.414580 0.146160 0.977960 -0.528481
O22   O     O_R   0.353840 0.085420 0.477960 -0.502240
O23   O     O_3   0.500000 1.000000 0.499990 -0.441609
O24   O     O_R   0.914580 0.353840 0.477960 -0.502240
O25   O     O_R   0.646160 0.914580 0.477960 -0.502240
O26   O     O_R   0.085420 0.646160 0.477960 -0.502240
O27   O     O_R   0.646160 0.085420 0.477960 -0.528481
O28   O     O_R   0.085420 0.353840 0.477960 -0.528480
O29   O     O_R   0.353840 0.914580 0.477960 -0.528481
O30   O     O_R   0.914580 0.646160 0.477960 -0.528481
O31   O     O_R   0.085460 0.353830 0.022010 -0.551113
O32   O     O_R   0.646170 0.085460 0.022010 -0.551113
O33   O     O_R   0.914540 0.646170 0.022010 -0.551113
O34   O     O_3   1.000000 0.500000 0.499990 -0.441609
O35   O     O_R   0.353830 0.914540 0.022010 -0.551113
O36   O     O_R   0.914540 0.353830 0.022010 -0.544542
O37   O     O_R   0.353830 0.085460 0.022010 -0.544542
O38   O     O_R   0.085460 0.646170 0.022010 -0.544542
O39   O     O_R   0.646170 0.914540 0.022010 -0.544542
O40   O     O_R   0.585460 0.853830 0.522010 -0.551113
O41   O     O_R   0.146170 0.585460 0.522010 -0.551113
O42   O     O_R   0.414540 0.146170 0.522010 -0.551113
O43   O     O_R   0.853830 0.414540 0.522010 -0.551113
O44   O     O_R   0.414540 0.853830 0.522010 -0.544542
O45   O     O_R   0.060760 0.500000 0.915980 -0.509045
O46   O     O_R   0.853830 0.585460 0.522010 -0.544542
O47   O     O_R   0.585460 0.146170 0.522010 -0.544542
O48   O     O_R   0.146170 0.414540 0.522010 -0.544542
O49   O     O_2   0.299207 0.488454 0.979130 -0.524759
O50   O     O_R   0.266225 0.553433 0.034815 -0.696862
O51   O     O_2   0.511546 0.299207 0.979130 -0.524760
O52   O     O_R   0.446567 0.266225 0.034815 -0.696862
O53   O     O_2   0.700793 0.511546 0.979130 -0.524759
O54   O     O_R   0.733774 0.446567 0.034815 -0.696862
O55   O     O_2   0.488454 0.700793 0.979130 -0.524759
O56   O     O_R   0.500000 0.060760 0.915980 -0.509045
O57   O     O_R   0.553433 0.733775 0.034815 -0.696862
O58   O     O_2   0.808959 0.593142 0.880958 -0.507141
O59   O     O_R   0.869359 0.686945 0.910024 -0.707186
O60   O     O_2   0.593142 0.191040 0.880958 -0.507141
O61   O     O_R   0.686945 0.130641 0.910024 -0.707186
O62   O     O_2   0.191041 0.406858 0.880958 -0.507141
O63   O     O_R   0.130641 0.313055 0.910024 -0.707186
O64   O     O_2   0.406858 0.808959 0.880958 -0.507141
O65   O     O_R   0.313055 0.869359 0.910024 -0.707186
O66   O     O_2   0.799208 0.988454 0.479130 -0.524760
O67   O     O_R   0.939240 0.500000 0.915980 -0.509045
O68   O     O_R   0.766225 0.053433 0.534815 -0.696862
O69   O     O_2   0.011546 0.799207 0.479130 -0.524760
O70   O     O_R   0.946567 0.766225 0.534815 -0.696862
O71   O     O_2   0.200793 0.011546 0.479130 -0.524759
O72   O     O_R   0.233775 0.946567 0.534815 -0.696862
O73   O     O_2   0.988454 0.200793 0.479130 -0.524759
O74   O     O_R   0.053433 0.233775 0.534815 -0.696862
O75   O     O_2   0.308959 0.093142 0.380958 -0.507142
O76   O     O_R   0.369358 0.186945 0.410024 -0.707186
O77   O     O_2   0.093142 0.691041 0.380958 -0.507141
O78   O     O_R   0.500000 0.939240 0.915980 -0.509045
O79   O     O_R   0.186945 0.630641 0.410024 -0.707186
O80   O     O_2   0.691041 0.906858 0.380958 -0.507142
O81   O     O_R   0.630641 0.813055 0.410024 -0.707186
O82   O     O_2   0.906859 0.308959 0.380958 -0.507141
O83   O     O_R   0.813055 0.369358 0.410024 -0.707186
O84   O     O_R   0.560760 0.000000 0.415980 -0.509045
Zn1   Zn    Zn3+2 0.000000 0.586740 0.031450 0.960869
Zn2   Zn    Zn3+2 0.500000 0.913250 0.968520 1.008401
Zn3   Zn    Zn3+2 0.086750 0.500000 0.968520 1.008401
Zn4   Zn    Zn3+2 0.500000 0.086750 0.968520 1.008401
Zn5   Zn    Zn3+2 0.413250 0.000000 0.468520 1.008401
Zn6   Zn    Zn3+2 0.000000 0.413250 0.468520 1.008401
Zn7   Zn    Zn3+2 0.586750 0.000000 0.468520 1.008401
Zn8   Zn    Zn3+2 0.000000 0.586750 0.468520 1.008401
Zn9   Zn    Zn3+2 0.413260 1.000000 0.031450 0.960869
Zn10  Zn    Zn3+2 0.000000 0.413260 0.031450 0.960869
Zn11  Zn    Zn3+2 0.586740 1.000000 0.031450 0.960869
Zn12  Zn    Zn3+2 0.500000 0.086740 0.531450 0.960869
Zn13  Zn    Zn3+2 0.913260 0.500000 0.531450 0.960869
Zn14  Zn    Zn3+2 0.500000 0.913260 0.531450 0.960869
Zn15  Zn    Zn3+2 0.086740 0.500000 0.531450 0.960869
Zn16  Zn    Zn3+2 0.913250 0.500000 0.968520 1.008401

loop_
_geom_bond_atom_site_label_1
_geom_bond_atom_site_label_2
_ccdc_geom_bond_type
H29   O54   S    
O1    Zn3   S    
O16   Zn3   S    
O8    Zn11  S    
O47   Zn12  S    
O12   Zn11  S    
O27   Zn7   S    
C19   C144  A    
C64   O6    A    
C34   O50   S    
C42   C93   S    
C8    C26   A    
C15   C18   A    
C102  C129  A    
C8    C76   S    
C30   C90   T    
C124  C142  A    
C70   O16   A    
C43   C94   S    
C20   H47   S    
O34   Zn6   S    
C10   C78   S    
H42   O81   S    
C18   H45   S    
C108  H15   S    
C73   C141  S    
C45   O71   D    
C51   C102  S    
C126  C140  A    
C6    C135  A    
H39   O74   S    
C72   O38   A    
C103  C110  A    
C104  H10   S    
C31   C101  T    
C18   C143  A    
O45   Zn3   S    
C61   C79   S    
C121  C127  A    
C42   O65   S    
O4    Zn6   S    
O35   Zn9   S    
C78   O25   A    
C80   O26   A    
C104  C109  A    
C40   O60   D    
C100  C130  A    
C92   C109  A    
C57   C59   S    
C38   O57   S    
C113  H19   S    
C106  C107  A    
C67   O33   A    
C17   H44   S    
O26   Zn8   S    
C115  C116  A    
C81   O27   A    
C69   O35   A    
C94   C111  A    
C77   O43   A    
O34   Zn13  S    
C37   O53   D    
O23   Zn12  S    
C111  C119  A    
C109  H16   S    
C75   O37   A    
C128  C138  A    
C95   C136  A    
C114  H20   S    
C74   O36   A    
C70   C144  S    
C11   C77   S    
C110  H17   S    
H32   O61   S    
C98   C116  A    
C103  H9    S    
C72   O18   A    
C4    C81   S    
C22   H2    S    
C125  C141  A    
O1    Zn10  S    
C71   O17   A    
C91   C122  A    
C82   O48   A    
C46   C55   S    
C8    C132  A    
O10   Zn13  S    
C65   O11   A    
O23   Zn5   S    
C71   O32   A    
C93   C120  A    
C23   C27   A    
C115  H21   S    
C14   H12   S    
C87   C105  A    
C85   C103  A    
C5    C136  A    
C93   C110  A    
O6    Zn9   S    
O5    Zn1   S    
C122  C126  A    
C47   O73   D    
C82   O28   A    
C72   C138  S    
C4    C137  A    
O21   Zn4   S    
O37   Zn9   S    
C99   C117  A    
O42   Zn12  S    
C22   C28   A    
C30   C63   S    
C35   C54   S    
O2    Zn8   S    
C121  C144  A    
O39   Zn11  S    
C111  H18   S    
C127  C139  A    
C122  C143  A    
C57   O56   A    
C91   C108  A    
C11   C129  A    
O1    Zn16  S    
C43   O68   S    
O46   Zn13  S    
C16   H34   S    
C33   C66   S    
C70   O31   A    
C96   C135  A    
C54   C59   T    
C9    C131  A    
H35   O65   S    
C97   C133  A    
H33   O63   S    
C105  C108  A    
C130  C136  A    
O12   Zn9   S    
C69   O15   A    
C25   H4    S    
H37   O70   S    
O38   Zn1   S    
C38   O55   D    
C36   O52   S    
C73   O19   A    
C66   O10   A    
O30   Zn8   S    
C1    C60   S    
C44   O69   D    
C5    C84   S    
C14   C19   A    
C132  C133  A    
C45   O72   S    
C119  H26   S    
C48   O75   D    
C36   C86   S    
C25   C26   A    
C23   H3    S    
C41   O62   D    
C75   O21   A    
C24   C123  S    
C79   O4    A    
C81   O47   A    
C74   O20   A    
C17   C142  A    
C34   C85   S    
O24   Zn6   S    
C12   H1    S    
O13   Zn15  S    
C10   C130  A    
O14   Zn16  S    
C88   C125  A    
C7    C133  A    
O36   Zn10  S    
C96   C114  A    
C49   C99   S    
O31   Zn10  S    
C88   C106  A    
C41   C92   S    
H31   O59   S    
C68   O84   A    
O12   Zn2   S    
O44   Zn14  S    
H38   O72   S    
C12   C20   A    
O41   Zn15  S    
O34   Zn15  S    
C129  C137  A    
C3    C20   A    
C7    C25   A    
C83   O44   A    
C79   O2    A    
O9    Zn12  S    
H28   O52   S    
O23   Zn14  S    
C31   C64   S    
C67   O14   A    
C58   C62   T    
O15   Zn2   S    
C40   O61   S    
C49   O79   S    
C47   O74   S    
C105  H11   S    
O22   Zn5   S    
C50   O80   D    
C9    C80   S    
C27   H6    S    
O11   Zn14  S    
H27   O50   S    
C37   O54   S    
C89   C107  A    
H40   O76   S    
O23   Zn7   S    
C97   C115  A    
C7    C82   S    
C98   C132  A    
O17   Zn4   S    
C15   H23   S    
C73   O39   A    
C107  H14   S    
C1    O67   A    
C9    C27   A    
C39   O59   S    
C71   C143  S    
C15   C140  A    
C21   C29   A    
C10   C28   A    
C66   O13   A    
O48   Zn15  S    
C100  C118  A    
O33   Zn1   S    
C6    C83   S    
C32   C112  T    
C51   O82   D    
C3    C69   S    
C86   C127  A    
C36   O51   D    
C50   C100  S    
C80   O41   A    
C37   C87   S    
C26   H5    S    
C84   O46   A    
O43   Zn13  S    
C116  H22   S    
C21   H48   S    
C2    C53   T    
O20   Zn16  S    
C86   C104  A    
C76   O42   A    
C53   C58   S    
C120  C128  A    
H30   O57   S    
C13   C35   T    
C5    C22   A    
O84   Zn7   S    
C51   O83   S    
C13   C112  S    
C106  H13   S    
C48   C98   S    
C41   O63   S    
C131  C135  A    
O18   Zn3   S    
C2    C101  S    
C99   C131  A    
C47   C97   S    
O3    Zn5   S    
O19   Zn2   S    
C1    O45   A    
C89   C124  A    
O1    Zn1   S    
C64   O8    A    
C16   C141  A    
C24   C46   T    
O7    Zn10  S    
C44   C95   S    
C75   C139  S    
C92   C121  A    
C29   H8    S    
O40   Zn14  S    
C4    C21   A    
C67   C142  S    
O78   Zn2   S    
C42   O64   D    
C16   C17   A    
C39   O58   D    
C74   C140  S    
O67   Zn16  S    
C95   C113  A    
C90   C134  S    
C6    C23   A    
C50   O81   S    
O29   Zn5   S    
C84   O30   A    
O12   Zn4   S    
C63   O7    A    
C118  H25   S    
C68   O3    A    
C12   C138  A    
C62   C68   S    
C43   O66   D    
C40   C91   S    
O34   Zn8   S    
O56   Zn4   S    
C114  C117  A    
O25   Zn7   S    
C3    C120  A    
H41   O79   S    
C19   H46   S    
C57   O78   A    
C113  C118  A    
C83   O29   A    
C63   O5    A    
C52   C134  T    
O32   Zn11  S    
C65   O9    A    
C14   C139  A    
C11   C29   A    
C28   H7    S    
C38   C88   S    
C33   C123  T    
C94   C137  A    
C48   O76   S    
C56   C61   T    
C124  C125  A    
C85   C128  A    
O28   Zn6   S    
C117  H24   S    
C76   O22   A    
H36   O68   S    
C55   C60   T    
C45   C96   S    
C78   O40   A    
C39   C89   S    
C87   C126  A    
C102  C119  A    
C52   C56   S    
C77   O24   A    
C49   O77   D    
C32   C65   S    
C34   O49   D    
C44   O70   S    
H43   O83   S    
