data_mof_unit_24292.cif
_audit_creation_date              2012-10-26T20:02:31-0400
_audit_creation_method            fapswitch 2.2
_symmetry_space_group_name_H-M    P1
_symmetry_Int_Tables_number       1
_space_group_crystal_system       triclinic
_cell_length_a                    19.310908
_cell_length_b                    18.19089
_cell_length_c                    12.410365
_cell_angle_alpha                 89.965357
_cell_angle_beta                  129.027883
_cell_angle_gamma                 90.154449
_cell_volume                      3386.65183641

loop_
_atom_site_label
_atom_site_type_symbol
_atom_type_description
_atom_site_fract_x
_atom_site_fract_y
_atom_site_fract_z
_atom_type_partial_charge
C1    C     C_R   0.608366 0.895097 0.647656 0.603666
C2    C     C_R   0.652402 0.703745 0.998970 0.008088
C3    C     C_3   0.013977 0.302174 0.032604 -0.375835
C4    C     C_3   0.598283 0.269174 0.223013 0.016339
C5    C     C_3   0.622704 0.187641 0.237764 -0.316366
C6    C     C_3   0.552553 0.559718 0.005417 -0.014328
C7    C     C_3   0.544533 0.511037 0.097179 -0.361863
C8    C     C_3   0.098287 0.769112 0.222963 0.016373
C9    C     C_3   0.122635 0.687571 0.237524 -0.316379
C10   C     C_3   0.052553 0.059716 0.005411 -0.014334
C11   C     C_3   0.044532 0.011036 0.097173 -0.361848
C12   C     C_R   0.167644 0.772300 0.026900 0.013096
C13   C     C_R   0.152405 0.203744 0.998969 0.008090
C14   C     C_R   0.590435 0.259936 0.889487 0.319115
C15   C     C_R   0.574604 0.736377 0.881425 0.311999
C16   C     C_R   0.090433 0.759939 0.889479 0.319077
C17   C     C_R   0.074607 0.236375 0.881422 0.312001
C18   C     C_R   0.597078 0.224301 0.795969 0.242005
C19   C     C_R   0.577612 0.774471 0.786083 0.230313
C20   C     C_R   0.097076 0.724303 0.795963 0.242010
C21   C     C_R   0.615045 0.099663 0.656828 0.611135
C22   C     C_R   0.077617 0.274470 0.786082 0.230313
C23   C     C_R   0.322649 0.805072 0.165152 -0.051190
C24   C     C_R   0.313286 0.190531 0.153811 -0.074834
C25   C     C_R   0.822650 0.305067 0.165160 -0.051194
C26   C     C_R   0.813283 0.690528 0.153805 -0.074830
C27   C     C_R   0.237422 0.844435 0.236004 -0.124886
C28   C     C_R   0.228012 0.130747 0.209543 -0.105874
C29   C     C_R   0.737421 0.344434 0.236006 -0.124913
C30   C     C_R   0.728013 0.630750 0.209548 -0.105874
C31   C     C_R   0.688181 0.150384 0.756965 0.037600
C32   C     C_R   0.108368 0.395098 0.647659 0.603668
C33   C     C_R   0.664782 0.828930 0.721079 0.038647
C34   C     C_R   0.188181 0.650384 0.756964 0.037603
C35   C     C_R   0.164789 0.328934 0.721087 0.038648
C36   C     C_R   0.681952 0.988637 0.284800 0.257929
C37   C     C_R   0.181952 0.488635 0.284800 0.257924
C38   C     C_R   0.346216 0.987757 0.627082 0.112864
C39   C     C_R   0.846216 0.487758 0.627082 0.112859
C40   C     C_R   0.315087 0.967354 0.697499 0.212616
C41   C     C_R   0.815087 0.467354 0.697498 0.212614
C42   C     C_R   0.385619 0.099679 0.343818 0.588926
C43   C     C_R   0.115045 0.599663 0.656828 0.611138
C44   C     C_R   0.384882 0.900990 0.343185 0.587978
C45   C     C_R   0.885618 0.599679 0.343818 0.588928
C46   C     C_R   0.884881 0.400990 0.343185 0.587981
C47   C     C_R   0.374023 0.964341 0.841899 -0.043880
C48   C     C_R   0.874023 0.464339 0.841898 -0.043863
C49   C     C_R   0.463512 0.988285 0.919931 -0.019758
C50   C     C_R   0.963512 0.488283 0.919931 -0.019766
C51   C     C_R   0.493819 0.999600 0.841915 0.114408
C52   C     C_R   0.993818 0.499599 0.841915 0.114394
C53   C     C_R   0.526184 0.993278 0.070974 -0.070864
C54   C     C_R   0.251518 0.761576 0.060086 -0.025235
C55   C     C_R   0.026184 0.493275 0.070974 -0.070887
C56   C     C_R   0.619051 0.997071 0.138558 -0.027440
C57   C     C_R   0.119051 0.497068 0.138557 -0.027467
C58   C     C_R   0.646837 0.007525 0.058439 0.188755
C59   C     C_R   0.146836 0.507523 0.058439 0.188729
C60   C     C_R   0.585669 0.006078 0.915093 -0.073714
C61   C     C_R   0.085668 0.506077 0.915093 -0.073725
C62   C     C_R   0.501995 0.997259 0.159136 0.377463
C63   C     C_R   0.001995 0.497257 0.159137 0.377458
C64   C     C_R   0.653651 0.992599 0.363816 0.065610
C65   C     C_R   0.235036 0.214384 0.025591 -0.042511
C66   C     C_R   0.153650 0.492598 0.363816 0.065608
C67   C     C_R   0.663496 0.304571 0.126324 0.264803
C68   C     C_R   0.649385 0.657482 0.088196 0.291802
C69   C     C_R   0.163496 0.804578 0.126315 0.264775
C70   C     C_R   0.149386 0.157480 0.088190 0.291804
C71   C     C_R   0.314852 0.848167 0.249436 0.000175
C72   C     C_R   0.309394 0.145207 0.240367 -0.021304
C73   C     C_R   0.814852 0.348164 0.249438 0.000173
C74   C     C_R   0.809394 0.645208 0.240366 -0.021306
C75   C     C_R   0.773149 0.138759 0.794300 0.186031
C76   C     C_R   0.751519 0.261570 0.060095 -0.025232
C77   C     C_R   0.728856 0.808881 0.706208 0.192760
C78   C     C_R   0.273149 0.638756 0.794302 0.186038
C79   C     C_R   0.228867 0.308889 0.706223 0.192760
C80   C     C_R   0.348706 0.656709 0.926594 -0.073182
C81   C     C_R   0.299186 0.264220 0.803763 -0.027628
C82   C     C_R   0.848706 0.156710 0.926593 -0.073189
C83   C     C_R   0.799172 0.764209 0.803743 -0.027628
C84   C     C_R   0.342485 0.688824 0.021246 0.203839
C85   C     C_R   0.306131 0.235609 0.913921 0.222876
C86   C     C_R   0.842486 0.188821 0.021248 0.203843
C87   C     C_R   0.735031 0.714382 0.025586 -0.042509
C88   C     C_R   0.806118 0.735599 0.913902 0.222884
C89   C     C_R   0.759192 0.216313 0.975715 0.006552
C90   C     C_R   0.736399 0.747226 0.922536 -0.009847
C91   C     C_R   0.259191 0.716317 0.975709 0.006548
C92   C     C_R   0.236407 0.247230 0.922545 -0.009853
C93   C     C_R   0.680480 0.196426 0.841611 -0.063067
C94   C     C_R   0.659652 0.786586 0.812401 -0.074319
C95   C     C_R   0.180479 0.696428 0.841606 -0.063065
C96   C     C_R   0.159659 0.286588 0.812406 -0.074319
C97   C     C_3   0.780032 0.899462 0.331961 0.004792
C98   C     C_R   0.667646 0.272293 0.026909 0.013136
C99   C     C_3   0.874576 0.885474 0.385445 -0.288491
C100  C     C_3   0.280035 0.399461 0.331964 0.004803
C101  C     C_3   0.374578 0.385475 0.385447 -0.288497
C102  C     C_3   0.515563 0.368358 0.814408 0.005718
C103  C     C_3   0.425171 0.403952 0.740795 -0.327782
C104  C     C_3   0.466142 0.791112 0.878132 0.011858
C105  C     C_3   0.513979 0.802177 0.032614 -0.375833
C106  C     C_3   0.015551 0.868357 0.814398 0.005733
C107  C     C_3   0.925157 0.903945 0.740784 -0.327790
C108  C     C_3   0.966142 0.291109 0.878123 0.011860
Cl1   Cl    Cl    0.757190 0.030925 0.129573 -0.542011
Cl2   Cl    Cl    0.216551 0.326557 0.555378 -0.621716
Cl3   Cl    Cl    0.437739 0.679893 0.197608 -0.515031
Cl4   Cl    Cl    0.391935 0.170637 0.009144 -0.597750
Cl5   Cl    Cl    0.937741 0.179889 0.197609 -0.515032
Cl6   Cl    Cl    0.891910 0.670618 0.009110 -0.597804
Cl7   Cl    Cl    0.502193 0.227412 0.618238 -0.600110
Cl8   Cl    Cl    0.474582 0.784697 0.617615 -0.505750
Cl9   Cl    Cl    0.002191 0.727411 0.618232 -0.600108
Cl10  Cl    Cl    0.974589 0.284694 0.617612 -0.505755
Cl11  Cl    Cl    0.257190 0.530924 0.129573 -0.542038
Cl12  Cl    Cl    0.389362 0.004729 0.087545 -0.535456
Cl13  Cl    Cl    0.889362 0.504721 0.087547 -0.535455
Cl14  Cl    Cl    0.203901 0.938987 0.604457 -0.586177
Cl15  Cl    Cl    0.703900 0.438987 0.604454 -0.586216
Cl16  Cl    Cl    0.790969 0.092958 0.688625 -0.611935
Cl17  Cl    Cl    0.716535 0.826546 0.555357 -0.621711
Cl18  Cl    Cl    0.290971 0.592949 0.688634 -0.611909
Cu1   Cu    Cu3+1 0.526340 1.000000 0.421010 1.105547
Cu2   Cu    Cu3+1 0.026340 0.500000 0.421010 1.105559
Cu3   Cu    Cu3+1 0.473640 1.000000 0.578990 1.015425
Cu4   Cu    Cu3+1 0.973640 0.500000 0.578990 1.015418
H1    H     H_    0.231817 0.877073 0.303121 0.130204
H2    H     H_    0.114402 0.507155 0.865268 0.202725
H3    H     H_    0.381759 0.810968 0.174019 0.192359
H4    H     H_    0.378323 0.206681 0.189042 0.186992
H5    H     H_    0.881760 0.310963 0.174026 0.192360
H6    H     H_    0.878319 0.706675 0.189028 0.186998
H7    H     H_    0.412793 0.640130 0.959567 0.219397
H8    H     H_    0.347607 0.249048 0.790330 0.231050
H9    H     H_    0.912793 0.140132 0.959563 0.219397
H10   H     H_    0.847589 0.749032 0.790303 0.231034
H11   H     H_    0.701625 0.987421 0.475198 0.217827
H12   H     H_    0.224361 0.093920 0.274421 0.144739
H13   H     H_    0.201625 0.487422 0.475198 0.217839
H14   H     H_    0.734000 0.883602 0.220292 0.128056
H15   H     H_    0.766455 0.863347 0.388950 0.179739
H16   H     H_    0.923399 0.900503 0.496653 0.184182
H17   H     H_    0.882372 0.826428 0.372690 0.141737
H18   H     H_    0.888572 0.918641 0.325970 0.221887
H19   H     H_    0.234002 0.383600 0.220296 0.128060
H20   H     H_    0.266459 0.363346 0.388956 0.179745
H21   H     H_    0.423402 0.400505 0.496655 0.184183
H22   H     H_    0.382375 0.326429 0.372694 0.141733
H23   H     H_    0.731817 0.377081 0.303114 0.130164
H24   H     H_    0.388573 0.418642 0.325970 0.221883
H25   H     H_    0.535270 0.375116 0.747658 0.160318
H26   H     H_    0.564327 0.398554 0.913139 0.126506
H27   H     H_    0.428769 0.462954 0.721931 0.145746
H28   H     H_    0.376451 0.376601 0.639542 0.218530
H29   H     H_    0.403189 0.398968 0.804396 0.185564
H30   H     H_    0.393594 0.786415 0.823524 0.185543
H31   H     H_    0.474838 0.840652 0.835034 0.142003
H32   H     H_    0.584311 0.818771 0.087820 0.122488
H33   H     H_    0.512357 0.751136 0.079394 0.246009
H34   H     H_    0.724363 0.593925 0.274429 0.144742
H35   H     H_    0.480122 0.845499 0.046743 0.111518
H36   H     H_    0.035257 0.875117 0.747646 0.160316
H37   H     H_    0.064313 0.898555 0.913127 0.126517
H38   H     H_    0.928748 0.962948 0.721917 0.145749
H39   H     H_    0.876438 0.876592 0.639533 0.218526
H40   H     H_    0.903175 0.898958 0.804386 0.185562
H41   H     H_    0.893594 0.286411 0.823514 0.185542
H42   H     H_    0.974837 0.340649 0.835024 0.142007
H43   H     H_    0.084309 0.318768 0.087813 0.122492
H44   H     H_    0.012354 0.251134 0.079384 0.246002
H45   H     H_    0.301292 0.987436 0.514888 0.141196
H46   H     H_    0.980120 0.345497 0.046732 0.111522
H47   H     H_    0.534784 0.273188 0.206255 0.197380
H48   H     H_    0.648599 0.298893 0.321650 0.150672
H49   H     H_    0.692636 0.181481 0.278461 0.185515
H50   H     H_    0.616172 0.160796 0.311372 0.159323
H51   H     H_    0.577955 0.159608 0.135698 0.212537
H52   H     H_    0.603125 0.535330 0.999410 0.117716
H53   H     H_    0.488051 0.558381 0.898623 0.208717
H54   H     H_    0.493371 0.533117 0.102820 0.214063
H55   H     H_    0.524676 0.454576 0.053685 0.137658
H56   H     H_    0.801292 0.487437 0.514887 0.141192
H57   H     H_    0.609357 0.508110 0.203483 0.162261
H58   H     H_    0.034805 0.773134 0.206256 0.197382
H59   H     H_    0.148645 0.798771 0.321658 0.150699
H60   H     H_    0.192560 0.681388 0.278197 0.185494
H61   H     H_    0.116080 0.660679 0.311071 0.159294
H62   H     H_    0.077859 0.659605 0.135392 0.212569
H63   H     H_    0.103127 0.035326 0.999408 0.117716
H64   H     H_    0.988052 0.058378 0.898616 0.208716
H65   H     H_    0.993376 0.033122 0.102825 0.214070
H66   H     H_    0.024665 0.954577 0.053673 0.137678
H67   H     H_    0.349734 0.935981 0.888038 0.189843
H68   H     H_    0.109357 0.008104 0.203474 0.162260
H69   H     H_    0.849733 0.435979 0.888035 0.189849
H70   H     H_    0.614402 0.007155 0.865268 0.202718
N1    N     N_R   0.566260 1.000000 0.302220 -0.265894
N2    N     N_R   0.066260 0.500000 0.302220 -0.265905
N3    N     N_R   0.434410 1.000000 0.697680 -0.257590
N4    N     N_R   0.934410 0.500000 0.697680 -0.257590
O1    O     O_R   0.608610 0.924520 0.551740 -0.447720
O2    O     O_R   0.435880 0.924530 0.314850 -0.462223
O3    O     O_R   0.935880 0.575470 0.314850 -0.428466
O4    O     O_R   0.935880 0.424530 0.314850 -0.462216
O5    O     O_R   0.391380 0.075460 0.448260 -0.489851
O6    O     O_R   0.391380 0.924540 0.448260 -0.498622
O7    O     O_R   0.891380 0.575460 0.448260 -0.489851
O8    O     O_R   0.891380 0.424540 0.448260 -0.498622
O9    O     O_3   0.771058 0.974312 0.352621 -0.485943
O10   O     O_3   0.271058 0.474311 0.352622 -0.485940
O11   O     O_3   0.510687 0.293133 0.839327 -0.476525
O12   O     O_R   0.608610 0.075480 0.551740 -0.459093
O13   O     O_3   0.493445 0.725489 0.853182 -0.466726
O14   O     O_3   0.010682 0.793131 0.839321 -0.476535
O15   O     O_3   0.993447 0.225486 0.853175 -0.466723
O16   O     O_3   0.584635 0.302278 0.107457 -0.535274
O17   O     O_3   0.569600 0.633512 0.053357 -0.528537
O18   O     O_3   0.084640 0.802286 0.107457 -0.535310
O19   O     O_3   0.069600 0.133510 0.053348 -0.528538
O20   O     O_R   0.108610 0.424520 0.551740 -0.447716
O21   O     O_R   0.108610 0.575480 0.551740 -0.459078
O22   O     O_R   0.564110 0.924510 0.685150 -0.520800
O23   O     O_R   0.564110 0.075490 0.685150 -0.499237
O24   O     O_R   0.064110 0.424510 0.685150 -0.520799
O25   O     O_R   0.064110 0.575490 0.685150 -0.499242
O26   O     O_R   0.435880 0.075470 0.314850 -0.428462

loop_
_geom_bond_atom_site_label_1
_geom_bond_atom_site_label_2
_ccdc_geom_bond_type
C1    O22   A    
C65   C92   A    
C20   C95   A    
C64   N1    A    
C49   C53   A    
C63   N2    A    
C102  H26   S    
C40   C47   A    
C58   Cl1   S    
C27   H1    S    
C14   C18   A    
C97   H14   S    
Cu4   O8    S    
C68   O17   S    
C30   H34   S    
C4    H47   S    
C80   C84   A    
C85   Cl4   S    
C33   C77   A    
C33   C94   A    
Cu2   O20   S    
C1    C33   S    
C102  O11   S    
C5    H50   S    
C13   C65   A    
C35   C96   A    
C8    H58   S    
C15   C19   A    
C21   C31   S    
C99   H18   S    
C100  O10   S    
C45   O7    A    
C7    H54   S    
C6    H52   S    
C86   Cl5   S    
C106  H36   S    
C14   C98   A    
C7    H57   S    
C67   O16   S    
Cu1   O2    S    
C11   H65   S    
C2    C68   A    
C52   C61   A    
C10   H64   S    
C30   C74   A    
C78   C80   A    
Cu1   O12   S    
C57   C59   A    
C29   C73   A    
C106  C107  S    
C77   C83   A    
C58   C60   A    
C80   H7    S    
C92   C96   A    
C44   C71   S    
C69   O18   S    
C5    H49   S    
C67   C98   A    
C32   O20   A    
C29   C67   A    
C108  O15   S    
C3    H43   S    
C32   O24   A    
C56   C58   A    
C8    C9    S    
C49   C51   A    
C55   C63   A    
Cu3   O22   S    
C50   C52   A    
C105  H33   S    
C19   Cl8   S    
C16   O14   S    
Cu2   O3    S    
C15   O13   S    
C9    H62   S    
C1    O1    A    
C62   Cl12  S    
C27   C69   A    
C76   C89   A    
C6    O17   S    
C48   C50   A    
C83   C88   A    
Cu4   O24   S    
C45   O3    A    
C97   O9    S    
C39   N4    A    
C88   Cl6   S    
C61   H2    S    
Cu4   O7    S    
C28   C72   A    
C22   C96   A    
C104  H30   S    
C5    H51   S    
C83   H10   S    
C97   C99   S    
C85   C92   A    
C51   N3    A    
C90   C94   A    
C81   H8    S    
C21   O23   A    
C8    O18   S    
C28   C70   A    
C59   C61   A    
C84   Cl3   S    
C23   H3    S    
C48   H69   S    
C75   Cl16  S    
C32   C35   S    
C12   C16   A    
C34   C95   A    
C47   C49   A    
C10   H63   S    
C104  H31   S    
C79   C81   A    
C26   C87   A    
Cu4   N4    S    
C19   C94   A    
C66   H13   S    
Cu4   O25   S    
C4    O16   S    
C82   C86   A    
C101  H21   S    
Cu1   O26   S    
C27   C71   A    
Cu2   Cu4   S    
C45   C74   S    
C52   N4    A    
C66   N2    A    
C18   Cl7   S    
C46   O4    A    
Cu1   Cu3   S    
C62   N1    A    
C82   H9    S    
C36   C56   A    
C23   C71   A    
C36   O9    S    
C44   O6    A    
C53   C62   A    
C39   H56   S    
C3    H44   S    
C31   C75   A    
C8    H59   S    
C16   C20   A    
C37   C66   A    
Cu3   O23   S    
C42   C72   S    
C70   O19   S    
C63   Cl13  S    
C21   O12   A    
C2    C87   A    
C75   C82   A    
Cu2   N2    S    
C11   H66   S    
C2    C15   A    
Cu1   N1    S    
C42   O5    A    
C24   C65   A    
C10   O19   S    
C84   C91   A    
C12   C69   A    
C88   C90   A    
C13   C70   A    
C99   H16   S    
C38   N3    A    
C108  H42   S    
C100  H19   S    
C87   C90   A    
C28   H12   S    
Cu3   O5    S    
C9    H60   S    
C78   Cl18  S    
C42   O26   A    
C37   O10   S    
C77   Cl17  S    
C24   C72   A    
C23   C54   A    
C29   H23   S    
C107  H39   S    
C53   C56   A    
C24   H4    S    
C22   Cl10  S    
C99   H17   S    
C107  H38   S    
C59   Cl11  S    
C79   Cl2   S    
C106  O14   S    
C97   H15   S    
C7    H55   S    
C103  H27   S    
C34   C43   S    
C50   C55   A    
C4    H48   S    
C4    C5    S    
C86   C89   A    
C17   O15   S    
C104  C105  S    
Cu2   O21   S    
C43   O25   A    
C103  H28   S    
C37   C57   A    
C6    C7    S    
C30   C68   A    
C3    C108  S    
C40   Cl14  S    
C44   O2    A    
C101  H22   S    
C9    H61   S    
C17   C22   A    
C13   C17   A    
C6    H53   S    
C25   C76   A    
C100  H20   S    
C106  H37   S    
C41   Cl15  S    
C55   C57   A    
Cu1   O1    S    
C11   H68   S    
C54   C91   A    
C31   C93   A    
C34   C78   A    
C38   C40   A    
C103  H29   S    
C38   H45   S    
C101  H24   S    
C46   O8    A    
C35   C79   A    
C100  C101  S    
C26   C74   A    
C41   C48   A    
C105  H35   S    
C14   O11   S    
C25   C73   A    
C89   C93   A    
C102  C103  S    
C25   H5    S    
C12   C54   A    
C104  O13   S    
C26   H6    S    
C10   C11   S    
C60   H70   S    
C91   C95   A    
Cu3   N3    S    
C3    H46   S    
C39   C41   A    
C64   H11   S    
C108  H41   S    
C18   C93   A    
C105  H32   S    
C47   H67   S    
C51   C60   A    
Cu2   O4    S    
Cu3   O6    S    
C36   C64   A    
C76   C98   A    
C102  H25   S    
C46   C73   S    
C81   C85   A    
C43   O21   A    
C107  H40   S    
C20   Cl9   S    
