data_mof_unit_59278.cif
_audit_creation_date              2012-12-10T21:26:05-0500
_audit_creation_method            fapswitch 2.2
_symmetry_space_group_name_H-M    P1
_symmetry_Int_Tables_number       1
_space_group_crystal_system       triclinic
_cell_length_a                    8.55249
_cell_length_b                    16.285528
_cell_length_c                    16.898443
_cell_angle_alpha                 84.459062
_cell_angle_beta                  94.203514
_cell_angle_gamma                 99.925666
_cell_volume                      2303.72796741

loop_
_atom_site_label
_atom_site_type_symbol
_atom_type_description
_atom_site_fract_x
_atom_site_fract_y
_atom_site_fract_z
_atom_type_partial_charge
C1    C     C_R   0.492379 0.485940 0.652728 0.864305
C2    C     C_R   0.507627 0.514061 0.347271 0.864274
C3    C     C_R   0.399593 0.756301 0.470017 -0.030765
C4    C     C_R   0.600414 0.243696 0.529972 -0.030767
C5    C     C_R   0.406530 0.844828 0.466473 -0.112020
C6    C     C_R   0.593465 0.155168 0.533517 -0.111990
C7    C     C_R   0.538120 0.894514 0.503539 0.246691
C8    C     C_R   0.461864 0.105484 0.496457 0.246695
C9    C     C_R   0.658103 0.854605 0.541544 -0.305059
C10   C     C_R   0.341880 0.145396 0.458459 -0.305031
C11   C     C_R   0.646998 0.767202 0.545926 0.104708
C12   C     C_R   0.352992 0.232800 0.454079 0.104792
C13   C     C_R   0.800140 0.521179 0.502241 0.974144
C14   C     C_R   0.199860 0.478821 0.497758 0.974113
C15   C     C_2   0.966045 0.531756 0.507306 -0.351983
C16   C     C_2   0.033955 0.468244 0.492692 -0.352047
C17   C     C_R   0.470666 0.471293 0.738674 -0.199240
C18   C     C_R   0.529348 0.528705 0.261322 -0.199343
C19   C     C_R   0.389015 0.524718 0.775662 -0.054288
C20   C     C_R   0.610836 0.475212 0.224328 -0.054254
C21   C     C_R   0.397828 0.522240 0.858475 -0.106664
C22   C     C_R   0.602016 0.477696 0.141517 -0.106793
C23   C     C_R   0.481897 0.466000 0.904510 0.242290
C24   C     C_R   0.518075 0.533995 0.095481 0.242283
C25   C     C_R   0.545179 0.407294 0.868595 -0.138813
C26   C     C_R   0.454963 0.592759 0.131402 -0.138769
C27   C     C_R   0.538635 0.407833 0.786103 -0.027171
C28   C     C_R   0.461543 0.592225 0.213897 -0.027239
H1    H     H_    0.031910 0.591206 0.524518 0.213822
H2    H     H_    0.968090 0.408795 0.475478 0.213812
H3    H     H_    0.661860 0.436343 0.112557 0.196441
H4    H     H_    0.337887 0.563549 0.887439 0.196482
H5    H     H_    0.601204 0.361129 0.905689 0.188961
H6    H     H_    0.399060 0.638971 0.094308 0.189025
H7    H     H_    0.761150 0.892293 0.568971 0.177245
H8    H     H_    0.238825 0.107710 0.431035 0.177250
N1    N     N_2   0.502411 0.465459 0.987804 -0.168414
N2    N     N_2   0.497535 0.534540 0.012186 -0.168398
N3    N     N_R   0.519180 0.718290 0.509780 -0.142678
N4    N     N_R   0.480820 0.281710 0.490220 -0.142668
N5    N     N_2   0.561754 0.984345 0.499370 -0.136369
N6    N     N_2   0.438227 0.015652 0.500623 -0.136388
O1    O     O_R   0.493140 0.422050 0.612640 -0.675340
O2    O     O_R   0.506860 0.577950 0.387360 -0.675398
O3    O     O_R   0.505450 0.562230 0.618920 -0.556944
O4    O     O_R   0.494550 0.437770 0.381080 -0.556923
O5    O     O_R   0.723530 0.446300 0.497600 -0.664720
O6    O     O_R   0.276470 0.553700 0.502400 -0.664711
O7    O     O_R   0.735850 0.586490 0.503880 -0.581455
O8    O     O_R   0.264150 0.413510 0.496120 -0.581460
Zn1   Zn    Zn3+2 0.491780 0.406400 0.495810 0.981953
Zn2   Zn    Zn3+2 0.508220 0.593600 0.504190 0.981920
C29   C     C_2   0.712736 0.419836 0.270523 0.489905
H9    H     H_    0.754465 0.430593 0.331400 0.069668
O9    O     O_2   0.754005 0.362275 0.240549 -0.538698
C30   C     C_2   0.286952 0.580007 0.729463 0.489783
H10   H     H_    0.245470 0.569312 0.668545 0.069748
O10   O     O_2   0.245229 0.637413 0.759485 -0.538722
C31   C     C_2   0.599676 0.339550 0.753027 0.421506
H11   H     H_    0.532136 0.306341 0.705756 0.080085
O11   O     O_2   0.722622 0.316978 0.781053 -0.537679
C32   C     C_2   0.400743 0.660585 0.246976 0.421460
H12   H     H_    0.468291 0.693694 0.294304 0.080221
O12   O     O_2   0.277998 0.683335 0.218887 -0.537684
C33   C     C_2   0.731883 0.294212 0.574741 0.454944
H13   H     H_    0.709711 0.344512 0.606768 0.115754
O13   O     O_2   0.868178 0.280881 0.575850 -0.560950
C34   C     C_2   0.268147 0.705783 0.425233 0.455035
H14   H     H_    0.290343 0.655491 0.393201 0.115714
O14   O     O_2   0.131844 0.719104 0.424118 -0.560984
C35   C     C_2   0.711785 0.114068 0.583907 1.003396
O15   O     O_2   0.842692 0.113492 0.559519 -0.578512
O16   O     O_R   0.670723 0.073708 0.658065 -0.774020
H15   H     H_    0.760076 0.046808 0.686503 0.357121
C36   C     C_2   0.288213 0.885925 0.416079 1.003434
O17   O     O_2   0.157299 0.886496 0.440460 -0.578529
O18   O     O_R   0.329285 0.926286 0.341922 -0.773931
H16   H     H_    0.239931 0.953182 0.313479 0.357139
C37   C     C_2   0.780891 0.732396 0.588432 0.503509
H17   H     H_    0.901484 0.765150 0.581295 0.079252
O19   O     O_2   0.759005 0.671126 0.636109 -0.523885
C38   C     C_2   0.219100 0.267609 0.411577 0.503503
H18   H     H_    0.098504 0.234865 0.418727 0.079269
O20   O     O_2   0.240989 0.328871 0.363890 -0.523956

loop_
_geom_bond_atom_site_label_1
_geom_bond_atom_site_label_2
_ccdc_geom_bond_type
C19   C30   S    
C12   N4    A    
C2    C18   S    
N5    N6    D    
C3    C34   S    
C1    O3    A    
C29   H9    S    
C2    O4    A    
C32   H12   S    
C19   C21   A    
C8    N6    S    
C4    C33   S    
C16   H2    S    
C15   C16   D    
C30   H10   S    
O16   H15   S    
C32   O12   D    
C26   H6    S    
O5    Zn1   S    
C4    N4    A    
C2    O2    A    
C34   H14   S    
C33   O13   D    
C24   N2    S    
C14   C16   S    
O18   H16   S    
O2    Zn2   S    
C23   C25   A    
N3    Zn2   S    
C3    N3    A    
C31   H11   S    
C10   C12   A    
C1    O1    A    
C15   H1    S    
C5    C7    A    
C29   O9    D    
C6    C35   S    
C21   H4    S    
C31   O11   D    
C22   H3    S    
C17   C27   A    
C18   C28   A    
C4    C6    A    
C37   O19   D    
C6    C8    A    
O3    Zn2   S    
C23   N1    S    
O4    Zn1   S    
C5    C36   S    
C36   O17   D    
N1    N2    D    
C9    C11   A    
O7    Zn2   S    
O8    Zn1   S    
C12   C38   S    
C11   N3    A    
C36   O18   S    
C11   C37   S    
C13   O7    A    
C34   O14   D    
C20   C22   A    
C33   H13   S    
C38   O20   D    
C13   C15   S    
C22   C24   A    
C13   O5    A    
C7    C9    A    
C26   C28   A    
C24   C26   A    
C20   C29   S    
C3    C5    A    
C14   O6    A    
C25   C27   A    
N4    Zn1   S    
C1    C17   S    
C21   C23   A    
C35   O15   D    
C27   C31   S    
O1    Zn1   S    
C14   O8    A    
C17   C19   A    
C30   O10   D    
C18   C20   A    
C7    N5    S    
C37   H17   S    
O6    Zn2   S    
C8    C10   A    
C38   H18   S    
C35   O16   S    
C9    H7    S    
C10   H8    S    
C25   H5    S    
C28   C32   S    
