data_mof_unit_52835.cif
_audit_creation_date              2012-12-10T16:38:40-0500
_audit_creation_method            fapswitch 2.2
_symmetry_space_group_name_H-M    P1
_symmetry_Int_Tables_number       1
_space_group_crystal_system       triclinic
_cell_length_a                    10.889114
_cell_length_b                    10.867778
_cell_length_c                    17.865252
_cell_angle_alpha                 98.597842
_cell_angle_beta                  73.203558
_cell_angle_gamma                 98.625616
_cell_volume                      1988.46734669

loop_
_atom_site_label
_atom_site_type_symbol
_atom_type_description
_atom_site_fract_x
_atom_site_fract_y
_atom_site_fract_z
_atom_type_partial_charge
C1    C     C_R   0.158250 0.479716 0.517049 0.490368
C2    C     C_R   0.592657 0.391961 0.920554 -0.147808
C3    C     C_R   0.633356 0.312753 0.960761 0.100596
C4    C     C_R   0.842746 0.520697 0.482877 0.565152
C5    C     C_R   0.606196 0.334100 0.043310 0.001898
C6    C     C_R   0.551534 0.445208 0.082672 -0.058190
C7    C     C_R   0.636403 0.250541 0.087546 0.324637
C8    C     C_R   0.624296 0.283711 0.167920 0.035419
C9    C     C_R   0.565187 0.487276 0.159151 0.251266
C10   C     C_2   0.979557 0.533513 0.479537 0.089158
C11   C     C_2   0.021268 0.468187 0.524766 0.281859
C12   C     C_R   0.381095 0.714678 0.835603 0.067059
C13   C     C_2   0.539708 0.966223 0.478262 -0.058600
C14   C     C_2   0.451105 0.037850 0.525169 0.099491
C15   C     C_R   0.468723 0.168789 0.517010 0.494424
C16   C     C_R   0.529746 0.832734 0.483080 0.534304
C17   C     C_R   0.564695 0.434451 0.288213 0.545932
C18   C     C_R   0.437003 0.563995 0.712307 0.544373
C19   C     C_R   0.418153 0.596896 0.797885 0.103640
C20   C     C_R   0.589804 0.402798 0.203289 -0.011871
C21   C     C_R   0.365450 0.742698 0.916478 -0.141420
C22   C     C_3   0.568717 0.046068 0.057581 -0.083686
C23   C     C_R   0.442954 0.510369 0.841726 0.073872
C24   C     C_3   0.971283 0.361524 0.635257 -0.097528
C25   C     C_3   0.672432 0.683348 0.157053 -0.077260
C26   C     C_3   0.244135 0.514749 0.177741 -0.091277
C27   C     C_R   0.452704 0.550113 0.919493 0.020187
C28   C     C_R   0.399592 0.660966 0.958550 -0.043173
C29   C     C_R   0.509911 0.482520 0.960547 -0.036283
C30   C     C_R   0.490242 0.511868 0.043086 0.021659
C31   C     C_R   0.405297 0.603226 0.082865 0.305117
C32   C     C_R   0.373665 0.684945 0.040075 -0.124577
H1    H     H_    0.319622 0.761882 0.071401 0.124027
H2    H     H_    0.983786 0.453514 0.670792 0.115667
H3    H     H_    0.059448 0.312893 0.620859 0.119852
H4    H     H_    0.891161 0.302561 0.672058 0.135812
H5    H     H_    0.257061 0.009766 0.568657 0.228212
H6    H     H_    0.339677 0.036586 0.637344 0.228874
H7    H     H_    0.684956 0.685693 0.093219 0.108592
H8    H     H_    0.757676 0.648861 0.166274 0.115726
H9    H     H_    0.667800 0.781019 0.185749 0.156409
H10   H     H_    0.570523 0.172467 0.256177 0.241553
H11   H     H_    0.725244 0.241236 0.238001 0.223836
H12   H     H_    0.622106 0.007893 0.435257 0.076491
H13   H     H_    0.791670 0.257188 0.878050 0.223191
H14   H     H_    0.655316 0.157432 0.882516 0.217328
H15   H     H_    0.417914 0.887290 0.799615 0.222322
H16   H     H_    0.261524 0.825638 0.817571 0.233475
H17   H     H_    0.514732 0.351611 0.776334 0.248688
H18   H     H_    0.392877 0.323972 0.859662 0.232395
H19   H     H_    0.193954 0.524585 0.241493 0.153115
H20   H     H_    0.279654 0.420924 0.162648 0.110475
H21   H     H_    0.172121 0.521112 0.145504 0.108364
H22   H     H_    0.328982 0.829866 0.946063 0.105983
H23   H     H_    0.628243 0.381714 0.857423 0.117006
H24   H     H_    0.601705 0.954380 0.029091 0.142224
H25   H     H_    0.514731 0.034190 0.119748 0.132011
H26   H     H_    0.503395 0.070641 0.025655 0.103152
H27   H     H_    0.137568 0.570555 0.388552 0.225224
H28   H     H_    0.110387 0.688440 0.463261 0.239089
N1    N     N_3   0.066194 0.619443 0.428993 -0.634544
N2    N     N_3   0.338497 0.989122 0.582103 -0.579500
N3    N     N_3   0.653444 0.196932 0.211805 -0.593506
N4    N     N_3   0.709292 0.215736 0.916442 -0.562780
N5    N     N_3   0.356633 0.805203 0.792561 -0.591757
N6    N     N_3   0.427574 0.379213 0.813165 -0.634638
O1    O     O_3   0.500000 0.500000 0.500000 -0.460373
O2    O     O_R   0.470800 0.371790 0.332500 -0.553359
O3    O     O_R   0.380610 0.619380 0.674980 -0.509965
O4    O     O_R   0.632640 0.524780 0.317540 -0.518101
O5    O     O_R   0.515950 0.484050 0.674980 -0.542963
O6    O     O_3   0.677933 0.135854 0.053078 -0.495806
O7    O     O_3   0.938541 0.374852 0.566187 -0.551106
O8    O     O_3   0.556824 0.610674 0.191672 -0.497808
O9    O     O_3   0.346882 0.611623 0.162898 -0.510465
O10   O     O_R   0.535460 0.243030 0.556410 -0.533887
O11   O     O_R   0.437420 0.784080 0.535340 -0.490016
O12   O     O_R   0.223560 0.397520 0.472140 -0.535979
O13   O     O_R   0.803560 0.575360 0.436110 -0.527955
O14   O     O_R   0.209690 0.568800 0.556400 -0.561902
O15   O     O_R   0.763190 0.458310 0.535350 -0.496973
O16   O     O_R   0.414000 0.207090 0.472140 -0.548720
O17   O     O_R   0.613120 0.765800 0.436110 -0.539319
Zn1   Zn    Zn3+2 0.577310 0.422690 0.565550 0.950575
Zn2   Zn    Zn3+2 0.403760 0.371330 0.445150 0.931760
Zn3   Zn    Zn3+2 0.634990 0.589920 0.423760 0.960085
Zn4   Zn    Zn3+2 0.383940 0.616050 0.565540 0.961168

loop_
_geom_bond_atom_site_label_1
_geom_bond_atom_site_label_2
_ccdc_geom_bond_type
O2    Zn2   S    
C27   C29   A    
C1    C11   S    
O10   Zn1   S    
C6    C9    A    
H5    N2    S    
H11   N3    S    
C7    C8    A    
C3    N4    S    
C24   H4    S    
C2    C29   A    
C23   N6    S    
C25   O8    S    
O14   Zn4   S    
C2    H23   S    
C25   H8    S    
C21   H22   S    
C24   O7    S    
C14   N2    S    
C17   C20   S    
C16   O11   A    
C4    O15   A    
C17   O2    A    
C23   C27   A    
H16   N5    S    
O3    Zn4   S    
C18   O3    A    
C15   O10   A    
C17   O4    A    
C13   C14   D    
C1    O12   A    
C22   H25   S    
C22   O6    S    
C15   O16   A    
H27   N1    S    
C24   H3    S    
O1    Zn2   S    
H17   N6    S    
C28   C32   A    
C4    O13   A    
C11   O7    S    
C25   H9    S    
C7    O6    S    
C5    C7    A    
C18   C19   S    
C22   H24   S    
C12   C21   A    
C16   O17   A    
C24   H2    S    
H14   N4    S    
H28   N1    S    
C19   C23   A    
C29   C30   A    
C26   H20   S    
C9    C20   A    
C31   O9    S    
C31   C32   A    
C30   C31   A    
C26   O9    S    
C8    C20   A    
H18   N6    S    
O12   Zn2   S    
C6    C30   A    
C21   C28   A    
C10   N1    S    
C9    O8    S    
C4    C10   S    
O4    Zn3   S    
C26   H21   S    
O15   Zn1   S    
O5    Zn1   S    
C18   O5    A    
O1    Zn3   S    
C3    C5    A    
C22   H26   S    
O16   Zn2   S    
C12   N5    S    
H13   N4    S    
O1    Zn4   S    
C32   H1    S    
C2    C3    A    
C26   H19   S    
C25   H7    S    
C5    C6    A    
C12   C19   A    
O13   Zn3   S    
C10   C11   D    
C8    N3    S    
O1    Zn1   S    
O17   Zn3   S    
O11   Zn4   S    
C13   C16   S    
C27   C28   A    
C1    O14   A    
C14   C15   S    
H10   N3    S    
H15   N5    S    
C13   H12   S    
H6    N2    S    
