data_mof_unit_64179.cif
_audit_creation_date              2012-12-10T18:47:36-0500
_audit_creation_method            fapswitch 2.2
_symmetry_space_group_name_H-M    P1
_symmetry_Int_Tables_number       1
_space_group_crystal_system       triclinic
_cell_length_a                    19.427918
_cell_length_b                    18.2507
_cell_length_c                    11.712959
_cell_angle_alpha                 89.99915
_cell_angle_beta                  91.670223
_cell_angle_gamma                 89.996813
_cell_volume                      4151.33573724

loop_
_atom_site_label
_atom_site_type_symbol
_atom_type_description
_atom_site_fract_x
_atom_site_fract_y
_atom_site_fract_z
_atom_type_partial_charge
C1    C     C_R   0.367565 0.500002 0.499756 0.905046
C2    C     C_R   0.632435 0.499998 0.500244 0.905045
C3    C     C_R   0.072024 0.500031 0.499699 -0.298455
C4    C     C_R   0.927976 0.499968 0.500303 -0.298457
C5    C     C_R   0.456392 0.722091 0.427245 0.517295
C6    C     C_R   0.543608 0.277909 0.572755 0.517295
C7    C     C_R   0.543608 0.722085 0.572754 0.516813
C8    C     C_R   0.456392 0.277915 0.427246 0.516813
C9    C     C_R   0.455928 0.799157 0.426406 -0.273187
C10   C     C_R   0.544072 0.200843 0.573593 -0.273187
C11   C     C_R   0.544071 0.799150 0.573593 -0.273336
C12   C     C_R   0.455929 0.200850 0.426407 -0.273336
C13   C     C_R   0.499999 0.839093 0.500000 -0.017656
C14   C     C_R   0.500000 0.160907 0.500000 -0.017656
C15   C     C_R   0.509902 0.961489 0.602194 -0.141432
C16   C     C_R   0.490098 0.038511 0.397806 -0.141432
C17   C     C_R   0.490097 0.961492 0.397806 -0.141842
C18   C     C_R   0.509903 0.038508 0.602194 -0.141842
C19   C     C_R   0.500000 0.078386 0.500000 0.150213
C20   C     C_R   0.500000 0.921614 0.500000 0.150213
C21   C     C_R   0.499881 0.500000 0.283888 0.849128
C22   C     C_R   0.500118 0.499999 0.716112 0.849128
C23   C     C_1   0.499893 0.500001 0.162269 -0.088109
C24   C     C_1   0.500107 0.499999 0.837731 -0.088109
C25   C     C_1   0.499951 0.500000 0.059858 0.061220
C26   C     C_1   0.500049 0.499999 0.940142 0.061220
C27   C     C_R   0.744550 0.433532 0.500501 -0.233689
C28   C     C_R   0.255450 0.566467 0.499498 -0.233690
C29   C     C_R   0.255445 0.433558 0.499492 -0.233382
C30   C     C_R   0.744555 0.566442 0.500511 -0.233381
C31   C     C_R   0.816253 0.433451 0.500547 0.670987
C32   C     C_R   0.183747 0.566548 0.499453 0.670985
C33   C     C_R   0.183739 0.433493 0.499385 0.669282
C34   C     C_R   0.816261 0.566507 0.500619 0.669284
C35   C     C_R   0.852444 0.499975 0.500567 -0.017606
C36   C     C_R   0.147555 0.500025 0.499435 -0.017602
C37   C     C_R   0.708098 0.499991 0.500454 -0.232200
C38   C     C_R   0.291902 0.500009 0.499547 -0.232201
C39   C     C_R   0.965871 0.530797 0.592156 0.578063
C40   C     C_R   0.034129 0.469202 0.407846 0.578060
C41   C     C_R   0.037608 0.530826 0.591858 0.568844
C42   C     C_R   0.962392 0.469173 0.408144 0.568844
Cu1   Cu    Cu3+1 0.500000 0.573360 0.500000 1.063189
Cu2   Cu    Cu3+1 0.500000 0.426640 0.500000 1.063189
H1    H     H_    0.717699 0.381537 0.500637 0.229899
H2    H     H_    0.282301 0.618462 0.499360 0.229899
H3    H     H_    0.282302 0.381558 0.499924 0.229444
H4    H     H_    0.717698 0.618442 0.500081 0.229445
H5    H     H_    0.420218 0.827547 0.369139 0.191079
H6    H     H_    0.579781 0.172453 0.630861 0.191079
H7    H     H_    0.579781 0.827535 0.630860 0.191312
H8    H     H_    0.420218 0.172465 0.369140 0.191312
H9    H     H_    0.516497 0.933161 0.682963 0.152905
H10   H     H_    0.483503 0.066839 0.317036 0.152905
H11   H     H_    0.483502 0.933166 0.317037 0.152799
H12   H     H_    0.516498 0.066834 0.682963 0.152799
N1    N     N_R   0.500000 0.683620 0.500000 -0.247151
N2    N     N_R   0.500000 0.316380 0.500000 -0.247151
O1    O     O_R   0.400190 0.561980 0.499980 -0.557122
O2    O     O_R   0.599810 0.438020 0.500020 -0.557122
O3    O     O_R   0.599810 0.561980 0.500020 -0.557653
O4    O     O_R   0.400190 0.438020 0.499980 -0.557653
O5    O     O_R   0.500010 0.561950 0.337200 -0.544709
O6    O     O_R   0.499990 0.438050 0.662800 -0.544709
O7    O     O_R   0.499990 0.561950 0.662800 -0.544283
O8    O     O_R   0.500010 0.438050 0.337200 -0.544283
F1    F     F_    0.850402 0.368531 0.502165 -0.571650
F2    F     F_    0.149598 0.631468 0.497833 -0.571653
F3    F     F_    0.149644 0.368581 0.501062 -0.572645
F4    F     F_    0.850356 0.631419 0.498945 -0.572644
F5    F     F_    0.933296 0.559635 0.682812 -0.525194
F6    F     F_    0.066704 0.440364 0.317191 -0.525193
F7    F     F_    0.073608 0.559678 0.682245 -0.531908
F8    F     F_    0.926392 0.440321 0.317758 -0.531908
Cl1   Cl    Cl    0.398749 0.677991 0.331604 -0.549161
Cl2   Cl    Cl    0.601251 0.322009 0.668396 -0.549161
Cl3   Cl    Cl    0.601257 0.677977 0.668389 -0.545146
Cl4   Cl    Cl    0.398743 0.322023 0.331611 -0.545145

loop_
_geom_bond_atom_site_label_1
_geom_bond_atom_site_label_2
_ccdc_geom_bond_type
C15   C18   A    
C21   O8    A    
C6    N2    A    
Cu2   O8    S    
C1    O4    A    
C17   C20   A    
Cu1   O5    S    
C39   C41   A    
Cu2   O6    S    
C31   F1    S    
C28   H2    S    
C29   H3    S    
C32   C36   A    
C30   H4    S    
C24   C26   T    
C34   C35   A    
C1    O1    A    
C2    O2    A    
C29   C33   A    
C33   C36   A    
C18   C19   A    
C9    C13   A    
C8    N2    A    
Cu2   N2    S    
C16   C17   A    
C29   C38   A    
C17   H11   S    
C2    O3    A    
C33   F3    S    
C32   F2    S    
C27   H1    S    
C40   C42   A    
C4    C35   S    
C8    Cl4   S    
C12   H8    S    
C15   C20   A    
C42   F8    S    
C30   C34   A    
C27   C31   A    
Cu1   O7    S    
C28   C32   A    
C9    H5    S    
C10   C14   A    
Cu2   O4    S    
C25   C26   S    
C22   O6    A    
C30   C37   A    
C5    Cl1   S    
C7    C11   A    
Cu1   Cu2   S    
C22   O7    A    
C5    C9    A    
C4    C39   A    
C28   C38   A    
C8    C12   A    
C1    C38   S    
C12   C14   A    
C3    C40   A    
C21   C23   S    
C7    Cl3   S    
C31   C35   A    
C10   H6    S    
C15   H9    S    
Cu1   O3    S    
Cu1   O1    S    
C34   F4    S    
C3    C41   A    
C40   F6    S    
C13   C20   S    
C14   C19   S    
C6    C10   A    
C6    Cl2   S    
C18   H12   S    
C5    N1    A    
C11   C13   A    
C2    C37   S    
C4    C42   A    
C3    C36   S    
Cu2   O2    S    
C16   C19   A    
C22   C24   S    
C23   C25   T    
C16   H10   S    
C21   O5    A    
C11   H7    S    
Cu1   N1    S    
C41   F7    S    
C39   F5    S    
C7    N1    A    
C27   C37   A    
