data_mof_unit_40866.cif
_audit_creation_date              2012-12-10T19:51:54-0500
_audit_creation_method            fapswitch 2.2
_symmetry_space_group_name_H-M    P1
_symmetry_Int_Tables_number       1
_space_group_crystal_system       triclinic
_cell_length_a                    26.019222
_cell_length_b                    25.967958
_cell_length_c                    22.223531
_cell_angle_alpha                 89.935368
_cell_angle_beta                  125.88518
_cell_angle_gamma                 90.093127
_cell_volume                      12165.5913581

loop_
_atom_site_label
_atom_site_type_symbol
_atom_type_description
_atom_site_fract_x
_atom_site_fract_y
_atom_site_fract_z
_atom_type_partial_charge
C1    C     C_R   0.650196 0.750084 0.300671 0.819317
C2    C     C_R   0.650339 0.250048 0.300730 0.806339
C3    C     C_R   0.150170 0.250102 0.300662 0.811000
C4    C     C_R   0.150344 0.750058 0.300727 0.808121
C5    C     C_3   0.651296 0.470193 0.371673 0.731935
C6    C     C_3   0.651557 0.529409 0.371289 0.740806
C7    C     C_3   0.140787 0.969725 0.465373 0.722511
C8    C     C_3   0.140578 0.028923 0.465452 0.793537
C9    C     C_3   0.502710 0.200980 0.025226 -0.474729
C10   C     C_3   0.477462 0.789264 0.023901 -0.490831
C11   C     C_3   0.002207 0.700925 0.025509 -0.475027
C12   C     C_3   0.977038 0.289311 0.023764 -0.488166
C13   C     C_3   0.941820 0.734465 0.975764 0.402706
C14   C     C_3   0.938239 0.242052 0.974829 0.401108
C15   C     C_3   0.442065 0.234269 0.975701 0.402080
C16   C     C_3   0.438522 0.742041 0.974992 0.401271
C17   C     C_1   0.889252 0.749690 0.778597 -0.118828
C18   C     C_1   0.889102 0.250127 0.778596 -0.109133
C19   C     C_1   0.389342 0.249909 0.778607 -0.119744
C20   C     C_1   0.389136 0.750083 0.778606 -0.114802
C21   C     C_1   0.610690 0.250134 0.221555 -0.132320
C22   C     C_1   0.609706 0.750857 0.221471 -0.139226
C23   C     C_1   0.110686 0.750169 0.221548 -0.139461
C24   C     C_1   0.109565 0.250945 0.221447 -0.139005
C25   C     C_3   0.023811 0.717170 0.976176 0.397678
C26   C     C_3   0.001479 0.296971 0.975117 0.405841
C27   C     C_3   0.524169 0.217889 0.975986 0.397087
C28   C     C_3   0.501796 0.796817 0.975123 0.405309
C29   C     C_3   0.963083 0.749615 0.926312 -0.087648
C30   C     C_3   0.962062 0.250523 0.926267 -0.088425
C31   C     C_3   0.463179 0.250090 0.926329 -0.087627
C32   C     C_3   0.462217 0.750394 0.926285 -0.088811
C33   C     C_3   0.558154 0.265583 0.024660 0.257620
C34   C     C_3   0.558136 0.760647 0.024991 0.265393
C35   C     C_3   0.058159 0.764894 0.024554 0.258301
C36   C     C_3   0.057863 0.260867 0.025042 0.265334
C37   C     C_3   0.536894 0.249754 0.074058 -0.041234
C38   C     C_3   0.534554 0.752069 0.073929 -0.041231
C39   C     C_3   0.036774 0.749725 0.074044 -0.040276
C40   C     C_3   0.034201 0.252172 0.073880 -0.041724
C41   C     C_3   0.997695 0.797343 0.975485 0.282262
C42   C     C_3   0.018708 0.214289 0.977020 0.275642
C43   C     C_3   0.497428 0.297781 0.975794 0.282081
C44   C     C_3   0.518833 0.714104 0.976988 0.275854
C45   C     C_R   0.849638 0.749925 0.699325 0.814019
C46   C     C_R   0.849660 0.250009 0.699349 0.817932
C47   C     C_R   0.349654 0.249959 0.699328 0.813146
C48   C     C_R   0.349662 0.750006 0.699353 0.819128
C49   C     C_3   0.475808 0.281900 0.024383 0.264869
C50   C     C_3   0.494640 0.705658 0.024930 0.271334
C51   C     C_3   0.975938 0.782131 0.024162 0.263667
C52   C     C_3   0.994412 0.205714 0.024834 0.268314
C53   C     C_1   0.922598 0.749517 0.845288 0.133839
C54   C     C_1   0.922107 0.250243 0.845270 0.142397
C55   C     C_1   0.422698 0.249927 0.845301 0.134517
C56   C     C_1   0.422182 0.750154 0.845283 0.140463
C57   C     C_1   0.577332 0.250101 0.154922 0.096296
C58   C     C_1   0.575585 0.751546 0.154831 0.101531
C59   C     C_1   0.077282 0.750149 0.154912 0.093146
C60   C     C_1   0.075321 0.251657 0.154799 0.100962
C61   C     C_R   0.504096 0.717203 0.456547 -0.055939
C62   C     C_R   0.500677 0.279289 0.447942 -0.131727
C63   C     C_R   0.003875 0.217610 0.456525 -0.057607
C64   C     C_R   0.000810 0.779690 0.448569 -0.196486
C65   C     C_R   0.555594 0.749345 0.501791 -0.122598
C66   C     C_R   0.551115 0.245832 0.493539 -0.085896
C67   C     C_R   0.054302 0.251177 0.499507 -0.122502
C68   C     C_R   0.051726 0.746735 0.494914 -0.090427
C69   C     C_R   0.552578 0.782967 0.549239 -0.283041
C70   C     C_R   0.543051 0.206765 0.531058 -0.300232
C71   C     C_R   0.048964 0.287735 0.542423 -0.276552
C72   C     C_R   0.044406 0.708260 0.533778 -0.274196
C73   C     C_R   0.498199 0.785177 0.548403 0.475609
C74   C     C_R   0.489858 0.206636 0.532559 0.455237
C75   C     C_R   0.994260 0.289905 0.541039 0.477918
C76   C     C_R   0.991231 0.707952 0.535174 0.454655
C77   C     C_R   0.446096 0.751611 0.500718 -0.180070
C78   C     C_R   0.443433 0.245874 0.494757 -0.131369
C79   C     C_R   0.944681 0.253291 0.498221 -0.185181
C80   C     C_R   0.943657 0.746104 0.495345 -0.129328
C81   C     C_R   0.451502 0.718917 0.455271 -0.107094
C82   C     C_R   0.448161 0.279823 0.449242 -0.116703
C83   C     C_R   0.951417 0.219031 0.455482 -0.103934
C84   C     C_R   0.947836 0.779565 0.449007 -0.122630
C85   C     C_3   0.419454 0.676404 0.399437 0.746938
C86   C     C_3   0.440752 0.337338 0.439738 0.644163
C87   C     C_3   0.920513 0.174967 0.402411 0.745701
C88   C     C_3   0.938635 0.836832 0.437829 0.710930
C89   C     C_R   0.889957 0.749570 0.499591 0.880387
C90   C     C_R   0.889676 0.250792 0.499400 0.860941
C91   C     C_R   0.389953 0.249551 0.499511 0.887193
C92   C     C_R   0.390083 0.750314 0.500102 0.859833
C93   C     C_3   0.480816 0.673457 0.402692 0.671773
C94   C     C_3   0.498786 0.336715 0.437483 0.816573
C95   C     C_3   0.981432 0.172661 0.404767 0.661718
C96   C     C_3   0.997498 0.837262 0.437392 0.817951
C97   C     C_R   0.765737 0.973596 0.460870 -0.159919
C98   C     C_R   0.766420 0.026462 0.461647 -0.170757
C99   C     C_R   0.265715 0.473596 0.460824 -0.155980
C100  C     C_R   0.266422 0.526460 0.461634 -0.167774
C101  C     C_R   0.741788 0.945853 0.493067 -0.139243
C102  C     C_R   0.742300 0.054205 0.493515 -0.140164
C103  C     C_R   0.241783 0.445852 0.493044 -0.139502
C104  C     C_R   0.242311 0.554205 0.493513 -0.141753
C105  C     C_R   0.709187 0.972695 0.516799 0.314863
C106  C     C_R   0.707330 0.027566 0.514101 0.319256
C107  C     C_R   0.209176 0.472696 0.516764 0.314133
C108  C     C_R   0.207322 0.527566 0.514069 0.319116
C109  C     C_3   0.828186 0.029477 0.470384 0.305480
C110  C     C_3   0.827705 0.970463 0.469917 0.262861
C111  C     C_3   0.328165 0.529467 0.470316 0.300769
C112  C     C_3   0.327636 0.470450 0.469760 0.257972
C113  C     C_R   0.610441 0.749423 0.500705 0.849958
C114  C     C_R   0.609514 0.249551 0.499238 0.869202
C115  C     C_R   0.110073 0.249907 0.500097 0.856314
C116  C     C_R   0.109681 0.749810 0.499588 0.836700
C117  C     C_R   0.748927 0.890115 0.499158 0.903041
C118  C     C_R   0.748980 0.109919 0.499211 0.894791
C119  C     C_R   0.248927 0.390115 0.499155 0.902429
C120  C     C_R   0.248988 0.609919 0.499215 0.896629
C121  C     C_R   0.749880 0.609870 0.501011 0.923969
C122  C     C_R   0.750018 0.390178 0.500927 0.916127
C123  C     C_R   0.250151 0.109821 0.499223 0.912309
C124  C     C_R   0.250244 0.890131 0.498326 0.859199
C125  C     C_R   0.695088 0.526398 0.454651 -0.194812
C126  C     C_R   0.694920 0.473408 0.455175 -0.182302
C127  C     C_R   0.194855 0.026323 0.458928 -0.118177
C128  C     C_R   0.194861 0.973402 0.458376 -0.187983
C129  C     C_R   0.749143 0.554197 0.507370 -0.096853
C130  C     C_R   0.749396 0.445899 0.507567 -0.098910
C131  C     C_R   0.251139 0.054128 0.492510 -0.236231
C132  C     C_R   0.250886 0.945719 0.489806 -0.242448
C133  C     C_R   0.800591 0.527624 0.569268 0.313532
C134  C     C_R   0.802135 0.472920 0.567778 0.307613
C135  C     C_R   0.306998 0.027667 0.513639 0.422550
C136  C     C_R   0.306221 0.973048 0.509686 0.334584
H1    H     H_    0.592574 0.807377 0.587785 0.193489
H2    H     H_    0.578854 0.177289 0.561447 0.189718
H3    H     H_    0.086970 0.314843 0.577135 0.195500
H4    H     H_    0.080840 0.679431 0.565468 0.187687
H5    H     H_    0.822798 0.046655 0.421157 0.128779
H6    H     H_    0.822394 0.953554 0.420623 0.123120
H7    H     H_    0.322769 0.546683 0.421100 0.129629
H8    H     H_    0.322243 0.453580 0.420399 0.121640
H9    H     H_    0.505262 0.161611 0.046303 0.167990
H10   H     H_    0.461381 0.819776 0.044256 0.165141
H11   H     H_    0.004433 0.661716 0.046837 0.167822
H12   H     H_    0.960884 0.319781 0.044090 0.165358
O1    O     O_3   0.749980 0.749980 0.500000 -0.514111
O2    O     O_3   0.749980 0.250020 0.500000 -0.524544
O3    O     O_3   0.249980 0.249980 0.500000 -0.514014
O4    O     O_3   0.249980 0.750020 0.500000 -0.508577
O5    O     O_R   0.887330 0.719620 0.543100 -0.624148
O6    O     O_R   0.887330 0.280380 0.543100 -0.625756
O7    O     O_R   0.387330 0.219620 0.543100 -0.617193
O8    O     O_R   0.387330 0.780380 0.543100 -0.630334
O9    O     O_R   0.612630 0.719620 0.456900 -0.635292
O10   O     O_R   0.612630 0.280380 0.456900 -0.626773
O11   O     O_R   0.112630 0.219620 0.456900 -0.628936
O12   O     O_R   0.112630 0.780380 0.456900 -0.670252
O13   O     O_R   0.698160 0.780350 0.335610 -0.641426
O14   O     O_R   0.698160 0.219650 0.335610 -0.627722
O15   O     O_R   0.198160 0.280350 0.335610 -0.640043
O16   O     O_R   0.198160 0.719650 0.335610 -0.623599
O17   O     O_R   0.801810 0.780340 0.664390 -0.629918
O18   O     O_R   0.801810 0.219660 0.664390 -0.634048
O19   O     O_R   0.301810 0.280340 0.664390 -0.626902
O20   O     O_R   0.301810 0.719660 0.664390 -0.631928
O21   O     O_R   0.637440 0.719620 0.335610 -0.616687
O22   O     O_R   0.637440 0.280380 0.335610 -0.639905
O23   O     O_R   0.137440 0.219620 0.335610 -0.626468
O24   O     O_R   0.137440 0.780380 0.335610 -0.653734
O25   O     O_R   0.862520 0.719620 0.664390 -0.640944
O26   O     O_R   0.862520 0.280380 0.664390 -0.612565
O27   O     O_R   0.362520 0.219620 0.664390 -0.649342
O28   O     O_R   0.362520 0.780380 0.664390 -0.620825
O29   O     O_R   0.844240 0.780350 0.456900 -0.639092
O30   O     O_R   0.844240 0.219650 0.456900 -0.583557
O31   O     O_R   0.344240 0.280350 0.456900 -0.639431
O32   O     O_R   0.344240 0.719650 0.456900 -0.582521
O33   O     O_R   0.655730 0.780340 0.543100 -0.644488
O34   O     O_R   0.655730 0.219660 0.543100 -0.646888
O35   O     O_R   0.155730 0.280340 0.543100 -0.643466
O36   O     O_R   0.155730 0.719660 0.543100 -0.633005
O37   O     O_R   0.758800 0.865790 0.456890 -0.642919
O38   O     O_R   0.758800 0.134210 0.456890 -0.632783
O39   O     O_R   0.258800 0.365790 0.456890 -0.643150
O40   O     O_R   0.258800 0.634210 0.456890 -0.632179
O41   O     O_R   0.698070 0.634180 0.456910 -0.626247
O42   O     O_R   0.698070 0.365820 0.456910 -0.603190
O43   O     O_R   0.198070 0.134180 0.456910 -0.612664
O44   O     O_R   0.198070 0.865820 0.456910 -0.643715
O45   O     O_R   0.741170 0.865780 0.543090 -0.587657
O46   O     O_R   0.741170 0.134220 0.543090 -0.590392
O47   O     O_R   0.241170 0.365780 0.543090 -0.588241
O48   O     O_R   0.241170 0.634220 0.543090 -0.589140
O49   O     O_R   0.801880 0.634180 0.543110 -0.595096
O50   O     O_R   0.801880 0.365820 0.543110 -0.607762
O51   O     O_R   0.301880 0.134180 0.543110 -0.601180
O52   O     O_R   0.301880 0.865820 0.543110 -0.635617
Zn1   Zn    Zn3+2 0.824140 0.706600 0.561580 1.006171
Zn2   Zn    Zn3+2 0.824140 0.293400 0.561580 1.024059
Zn3   Zn    Zn3+2 0.324140 0.206600 0.561580 1.001911
Zn4   Zn    Zn3+2 0.324140 0.793400 0.561580 0.996403
Zn5   Zn    Zn3+2 0.762580 0.793360 0.438420 0.992263
Zn6   Zn    Zn3+2 0.762580 0.206640 0.438420 1.025570
Zn7   Zn    Zn3+2 0.262580 0.293360 0.438420 0.990202
Zn8   Zn    Zn3+2 0.262580 0.706640 0.438420 1.028099
Zn9   Zn    Zn3+2 0.737390 0.793360 0.561570 1.008214
Zn10  Zn    Zn3+2 0.737390 0.206640 0.561570 1.009631
Zn11  Zn    Zn3+2 0.237390 0.293360 0.561570 1.012893
Zn12  Zn    Zn3+2 0.237390 0.706640 0.561570 1.016177
Zn13  Zn    Zn3+2 0.675820 0.706600 0.438430 1.012154
Zn14  Zn    Zn3+2 0.675820 0.293400 0.438430 1.011264
Zn15  Zn    Zn3+2 0.175820 0.206600 0.438430 1.017783
Zn16  Zn    Zn3+2 0.175820 0.793400 0.438430 0.952315
O53   O     O_3   0.848444 0.555484 0.629468 -0.755834
H13   H     H_    0.867330 0.534304 0.674886 0.341794
O54   O     O_3   0.855034 0.445677 0.622316 -0.744686
H14   H     H_    0.893250 0.467162 0.641837 0.338616
O55   O     O_3   0.360830 0.055900 0.536827 -0.734780
H15   H     H_    0.396574 0.032561 0.552130 0.372150
O56   O     O_3   0.359512 0.947996 0.525568 -0.804166
H16   H     H_    0.345508 0.917235 0.493214 0.329149
O57   O     O_3   0.499680 0.816561 0.599654 -0.617802
C137  C     C_3   0.475935 0.865984 0.568712 0.146904
H17   H     H_    0.454885 0.881884 0.596084 0.224877
H18   H     H_    0.437120 0.864990 0.507878 0.099606
C138  C     C_3   0.529366 0.902103 0.584789 -0.411787
H19   H     H_    0.570087 0.899124 0.644317 0.245906
H20   H     H_    0.545624 0.890843 0.550311 0.223990
C139  C     C_3   0.507136 0.957982 0.567136 -0.858282
H21   H     H_    0.465839 0.961846 0.508071 0.276001
H22   H     H_    0.546198 0.982802 0.577010 0.259953
H23   H     H_    0.493600 0.971397 0.603510 0.277326
O58   O     O_3   0.482325 0.167104 0.568582 -0.608635
C140  C     C_3   0.522591 0.175843 0.645998 0.098893
H24   H     H_    0.517794 0.216054 0.659849 0.142429
H25   H     H_    0.572883 0.168689 0.667755 0.133441
C141  C     C_3   0.504115 0.138720 0.683808 -0.260454
H26   H     H_    0.453264 0.144259 0.660470 0.272413
H27   H     H_    0.510579 0.098408 0.672618 0.223056
C142  C     C_3   0.544137 0.147474 0.767547 -0.966066
H28   H     H_    0.595181 0.141377 0.792453 0.258170
H29   H     H_    0.529459 0.119817 0.792978 0.276488
H30   H     H_    0.537188 0.187202 0.780053 0.282606
O59   O     O_3   0.992130 0.325895 0.585407 -0.610969
C143  C     C_3   0.959236 0.370390 0.543121 0.133312
H31   H     H_    0.932184 0.385518 0.563644 0.204629
H32   H     H_    0.923552 0.362629 0.482552 0.097976
C144  C     C_3   0.006159 0.411838 0.554572 -0.398694
H33   H     H_    0.042231 0.418350 0.615008 0.246470
H34   H     H_    0.030836 0.398774 0.530102 0.227297
C145  C     C_3   0.972407 0.462549 0.518068 -0.891882
H35   H     H_    0.936565 0.457082 0.457388 0.266770
H36   H     H_    0.007557 0.491648 0.526925 0.271817
H37   H     H_    0.948564 0.477214 0.542843 0.269704
O60   O     O_3   0.985331 0.669513 0.573920 -0.619489
C146  C     C_3   0.023610 0.681841 0.650366 0.089679
H38   H     H_    0.016179 0.722508 0.659944 0.145229
H39   H     H_    0.074589 0.676072 0.674169 0.135669
C147  C     C_3   0.005762 0.646260 0.690308 -0.269556
H40   H     H_    0.954158 0.649773 0.664337 0.277617
H41   H     H_    0.015797 0.605683 0.684495 0.222011
C148  C     C_3   0.042657 0.659594 0.772583 -0.939956
H42   H     H_    0.094435 0.655528 0.800179 0.252784
H43   H     H_    0.028431 0.633010 0.799582 0.281703
H44   H     H_    0.032152 0.699663 0.779701 0.279927
O61   O     O_3   0.409002 0.633021 0.428533 -0.672290
H45   H     H_    0.394311 0.605410 0.390935 0.337689
O62   O     O_3   0.451296 0.362233 0.502223 -0.734421
H46   H     H_    0.449558 0.399705 0.492428 0.368283
O63   O     O_3   0.912232 0.132292 0.434610 -0.664929
H47   H     H_    0.898302 0.103619 0.398685 0.341260
O64   O     O_3   0.947152 0.862234 0.498927 -0.717357
H48   H     H_    0.946105 0.899617 0.488971 0.390804
O65   O     O_3   0.364120 0.692350 0.331118 -0.779087
H49   H     H_    0.373263 0.725427 0.316638 0.323234
O66   O     O_3   0.384036 0.352571 0.372765 -0.810061
H50   H     H_    0.350224 0.350441 0.380460 0.373973
O67   O     O_3   0.864190 0.188744 0.333583 -0.777469
H51   H     H_    0.871668 0.221621 0.316951 0.324341
O68   O     O_3   0.882014 0.850721 0.369808 -0.810026
H52   H     H_    0.847673 0.848188 0.376566 0.369063
O69   O     O_3   0.516734 0.628503 0.437081 -0.785275
H53   H     H_    0.557963 0.633691 0.444749 0.355836
O70   O     O_3   0.552293 0.360333 0.499853 -0.752157
H54   H     H_    0.546080 0.398007 0.490985 0.341956
O71   O     O_3   0.018739 0.128628 0.440575 -0.755283
H55   H     H_    0.060558 0.135426 0.450506 0.388680
O72   O     O_3   0.048663 0.862666 0.500119 -0.711926
H56   H     H_    0.084738 0.861025 0.496392 0.374078
O73   O     O_3   0.474486 0.687944 0.337072 -0.671417
C149  C     C_3   0.450608 0.646511 0.286207 0.117871
H57   H     H_    0.403242 0.634168 0.270541 0.158276
H58   H     H_    0.483644 0.613138 0.310125 0.198319
C150  C     C_3   0.444250 0.663756 0.216371 -0.330264
H59   H     H_    0.412602 0.697868 0.192183 0.215291
H60   H     H_    0.491665 0.675049 0.231336 0.259475
C151  C     C_3   0.417222 0.620756 0.158619 -0.906470
H61   H     H_    0.448460 0.586361 0.181810 0.293820
H62   H     H_    0.414102 0.633980 0.109087 0.283357
H63   H     H_    0.368912 0.609995 0.141052 0.254596
O74   O     O_3   0.488630 0.354891 0.370408 -0.630601
C152  C     C_3   0.447691 0.324689 0.305704 0.111298
H64   H     H_    0.413133 0.351385 0.260762 0.196435
H65   H     H_    0.419088 0.295531 0.310675 0.141844
C153  C     C_3   0.485891 0.298354 0.282153 -0.305139
H66   H     H_    0.516495 0.327222 0.280220 0.282130
H67   H     H_    0.516604 0.268248 0.323298 0.222414
C154  C     C_3   0.442690 0.273043 0.205988 -0.952164
H68   H     H_    0.412084 0.243592 0.206779 0.253981
H69   H     H_    0.472048 0.253907 0.191229 0.275504
H70   H     H_    0.412355 0.302382 0.162934 0.291166
O75   O     O_3   0.973691 0.186020 0.338005 -0.671995
C155  C     C_3   0.950463 0.143646 0.288845 0.128592
H71   H     H_    0.906720 0.127417 0.279622 0.157440
H72   H     H_    0.987145 0.113057 0.311168 0.207334
C156  C     C_3   0.935034 0.161466 0.214385 -0.346452
H73   H     H_    0.900007 0.193346 0.192308 0.221874
H74   H     H_    0.978890 0.176222 0.222607 0.252057
C157  C     C_3   0.907947 0.117520 0.158097 -0.915332
H75   H     H_    0.942337 0.085208 0.179305 0.287301
H76   H     H_    0.898363 0.131291 0.105119 0.275420
H77   H     H_    0.862764 0.103471 0.146968 0.260752
O76   O     O_3   0.987712 0.855927 0.370732 -0.624955
C158  C     C_3   0.948028 0.825415 0.305994 0.108868
H78   H     H_    0.912233 0.851569 0.261149 0.202240
H79   H     H_    0.920860 0.794804 0.310987 0.145109
C159  C     C_3   0.987168 0.801363 0.282192 -0.333209
H80   H     H_    0.016792 0.831507 0.280698 0.264810
H81   H     H_    0.018852 0.771437 0.322938 0.235611
C160  C     C_3   0.944872 0.776310 0.205709 -0.935252
H82   H     H_    0.915229 0.745654 0.206065 0.252428
H83   H     H_    0.974877 0.758715 0.190792 0.278087
H84   H     H_    0.913591 0.805523 0.162986 0.288791
O77   O     O_3   0.681739 0.944975 0.544276 -0.751922
H85   H     H_    0.681798 0.966293 0.581230 0.342011
O78   O     O_3   0.672299 0.055590 0.531080 -0.751495
H86   H     H_    0.635363 0.034708 0.518595 0.335971
O79   O     O_3   0.181717 0.444979 0.544226 -0.752261
H87   H     H_    0.181784 0.466298 0.581183 0.342877
O80   O     O_3   0.172268 0.555588 0.531015 -0.750221
H88   H     H_    0.135318 0.534706 0.518489 0.336278
O81   O     O_3   0.878662 0.051664 0.537688 -0.671152
H89   H     H_    0.872883 0.044308 0.577217 0.330879
O82   O     O_3   0.877667 0.947714 0.537020 -0.690662
H90   H     H_    0.872195 0.955443 0.576683 0.336794
O83   O     O_3   0.378679 0.551602 0.537641 -0.679281
H91   H     H_    0.372921 0.544214 0.577180 0.330965
O84   O     O_3   0.377627 0.447644 0.536787 -0.697687
H92   H     H_    0.372223 0.455339 0.576512 0.336974
O85   O     O_3   0.681013 0.447828 0.342000 -0.748571
H93   H     H_    0.650226 0.450246 0.287216 0.344609
O86   O     O_3   0.681543 0.551116 0.341467 -0.740835
H94   H     H_    0.650734 0.548533 0.286705 0.346587
O87   O     O_3   0.085803 0.948618 0.401900 -0.698047
H95   H     H_    0.093061 0.911033 0.403629 0.379172
O88   O     O_3   0.086635 0.050607 0.401743 -0.720842
H96   H     H_    0.050769 0.042638 0.404522 0.376487
O89   O     O_3   0.591874 0.447418 0.343261 -0.732700
H97   H     H_    0.580616 0.454150 0.378191 0.330788
O90   O     O_3   0.592403 0.552608 0.342736 -0.760331
H98   H     H_    0.580814 0.545874 0.377379 0.314789
O91   O     O_3   0.155651 0.946925 0.531489 -0.739518
H99   H     H_    0.200814 0.954003 0.572028 0.299817
O92   O     O_3   0.155075 0.052104 0.531138 -0.741909
H100  H     H_    0.199438 0.043474 0.572577 0.295226
O93   O     O_3   0.878551 0.720470 0.945190 -0.622109
C161  C     C_3   0.874317 0.702077 0.001915 0.102232
H101  H     H_    0.896067 0.729597 0.049273 0.176785
H102  H     H_    0.898410 0.664100 0.022274 0.140097
C162  C     C_3   0.804427 0.695338 0.970448 -0.310708
H103  H     H_    0.779630 0.732882 0.948663 0.236512
H104  H     H_    0.782065 0.667320 0.923797 0.235190
C163  C     C_3   0.796601 0.676041 0.029560 -0.966079
H105  H     H_    0.820025 0.638043 0.051247 0.266067
H106  H     H_    0.745359 0.671696 0.004832 0.275550
H107  H     H_    0.817609 0.703965 0.076164 0.270419
O94   O     O_3   0.874074 0.230150 0.942476 -0.624740
C164  C     C_3   0.861270 0.235847 0.995586 0.112641
H108  H     H_    0.864490 0.277162 0.010719 0.142555
H109  H     H_    0.895031 0.212929 0.046490 0.166007
C165  C     C_3   0.793788 0.217018 0.961773 -0.330439
H110  H     H_    0.759929 0.239034 0.910091 0.236805
H111  H     H_    0.789912 0.175577 0.947139 0.230260
C166  C     C_3   0.775651 0.223965 0.015297 -0.961550
H112  H     H_    0.806137 0.199660 0.065311 0.270495
H113  H     H_    0.725538 0.212159 0.987619 0.272894
H114  H     H_    0.780650 0.264937 0.032241 0.271408
O95   O     O_3   0.378909 0.219840 0.945044 -0.621459
C167  C     C_3   0.374811 0.200991 0.001674 0.101673
H115  H     H_    0.396341 0.228381 0.049156 0.176963
H116  H     H_    0.399195 0.163110 0.021858 0.139896
C168  C     C_3   0.304973 0.193786 0.970162 -0.308257
H117  H     H_    0.279883 0.231230 0.948491 0.236940
H118  H     H_    0.282840 0.165850 0.923425 0.236491
C169  C     C_3   0.297286 0.174053 0.029201 -0.967055
H119  H     H_    0.320996 0.136140 0.050770 0.266283
H120  H     H_    0.246079 0.169396 0.004437 0.276148
H121  H     H_    0.318065 0.201883 0.075887 0.270633
O96   O     O_3   0.374485 0.730018 0.943189 -0.624216
C170  C     C_3   0.361765 0.737101 0.996188 0.112985
H122  H     H_    0.362259 0.778914 0.007450 0.143288
H123  H     H_    0.397241 0.716772 0.049100 0.162642
C171  C     C_3   0.295840 0.715612 0.964943 -0.330471
H124  H     H_    0.260179 0.735178 0.911566 0.235824
H125  H     H_    0.294760 0.673727 0.953944 0.230892
C172  C     C_3   0.278017 0.723663 0.018592 -0.958191
H126  H     H_    0.310737 0.701929 0.070751 0.270448
H127  H     H_    0.229030 0.709506 0.992854 0.272335
H128  H     H_    0.279940 0.765210 0.031612 0.271168
O97   O     O_3   0.451165 0.314799 0.051385 -0.771230
H129  H     H_    0.411968 0.329319 0.006665 0.353957
O98   O     O_3   0.490719 0.658653 0.052754 -0.772534
H130  H     H_    0.460367 0.637564 0.008408 0.349014
O99   O     O_3   0.951549 0.815531 0.050943 -0.774862
H131  H     H_    0.912420 0.830043 0.006128 0.353726
O100  O     O_3   0.990554 0.158666 0.052619 -0.770596
H132  H     H_    0.960203 0.137593 0.008251 0.349038
O101  O     O_3   0.991371 0.846258 0.944046 -0.631554
C173  C     C_3   0.030974 0.882193 0.000482 0.124583
H133  H     H_    0.081486 0.874240 0.024259 0.179653
H134  H     H_    0.024384 0.881203 0.045663 0.184088
C174  C     C_3   0.014544 0.936223 0.966832 -0.336321
H135  H     H_    0.021388 0.938143 0.921974 0.237105
H136  H     H_    0.963925 0.944539 0.942160 0.238626
C175  C     C_3   0.056020 0.977045 0.025199 -0.950711
H137  H     H_    0.049124 0.976463 0.070017 0.278214
H138  H     H_    0.042776 0.015742 0.998948 0.272307
H139  H     H_    0.106810 0.970009 0.049649 0.266976
O102  O     O_3   0.037231 0.176578 0.947554 -0.628675
C176  C     C_3   0.089103 0.148267 0.005803 0.114607
H140  H     H_    0.074297 0.124886 0.035185 0.179762
H141  H     H_    0.128864 0.174110 0.046282 0.184648
C177  C     C_3   0.112969 0.111850 0.973240 -0.339788
H142  H     H_    0.074659 0.084306 0.934795 0.235825
H143  H     H_    0.125652 0.134463 0.941166 0.238943
C178  C     C_3   0.171124 0.081817 0.034122 -0.966612
H144  H     H_    0.210804 0.108603 0.071565 0.272131
H145  H     H_    0.186520 0.055068 0.008601 0.276286
H146  H     H_    0.159762 0.059028 0.067239 0.272695
O103  O     O_3   0.490786 0.346987 0.944920 -0.631524
C179  C     C_3   0.530460 0.382661 0.001786 0.126385
H147  H     H_    0.580877 0.375198 0.024667 0.179840
H148  H     H_    0.524619 0.380773 0.047537 0.185139
C180  C     C_3   0.513288 0.436989 0.969174 -0.336182
H149  H     H_    0.519478 0.439853 0.923851 0.236068
H150  H     H_    0.462737 0.444832 0.945341 0.239069
C181  C     C_3   0.554826 0.477481 0.028135 -0.952252
H151  H     H_    0.548510 0.475999 0.073400 0.276332
H152  H     H_    0.541138 0.516412 0.002645 0.272743
H153  H     H_    0.605542 0.470865 0.051859 0.267532
O104  O     O_3   0.537113 0.676215 0.947474 -0.628807
C182  C     C_3   0.589346 0.648195 0.005718 0.114885
H154  H     H_    0.575467 0.625789 0.036797 0.180358
H155  H     H_    0.629531 0.674210 0.044721 0.185310
C183  C     C_3   0.611794 0.610551 0.972854 -0.343301
H156  H     H_    0.572985 0.582973 0.935693 0.235634
H157  H     H_    0.623765 0.632163 0.939366 0.238715
C184  C     C_3   0.670139 0.580642 0.033629 -0.962330
H158  H     H_    0.710283 0.607402 0.069723 0.272421
H159  H     H_    0.684461 0.552963 0.007937 0.275026
H160  H     H_    0.659501 0.558880 0.068173 0.272899
O105  O     O_3   0.619647 0.281362 0.052089 -0.774362
H161  H     H_    0.619235 0.286562 0.007615 0.343361
O106  O     O_3   0.621072 0.771393 0.052737 -0.769194
H162  H     H_    0.621051 0.775310 0.008354 0.351699
O107  O     O_3   0.119772 0.780217 0.051860 -0.774667
H163  H     H_    0.119416 0.784945 0.007353 0.344220
O108  O     O_3   0.120803 0.271697 0.052882 -0.769184
H164  H     H_    0.120869 0.275516 0.008548 0.352395
O109  O     O_3   0.046695 0.684406 0.946129 -0.629978
C185  C     C_3   0.099295 0.656369 0.003886 0.119331
H165  H     H_    0.084593 0.630076 0.030872 0.141206
H166  H     H_    0.137161 0.682728 0.046355 0.188355
C186  C     C_3   0.126498 0.623857 0.971475 -0.356415
H167  H     H_    0.090539 0.595117 0.932238 0.228128
H168  H     H_    0.137863 0.649124 0.940371 0.234465
C187  C     C_3   0.186661 0.595777 0.032296 -0.955347
H169  H     H_    0.224070 0.623921 0.070657 0.272985
H170  H     H_    0.204550 0.571941 0.006771 0.272937
H171  H     H_    0.176606 0.570189 0.064336 0.269970
O110  O     O_3   0.003801 0.343178 0.943304 -0.620515
C188  C     C_3   0.034169 0.381802 0.998186 0.114049
H172  H     H_    0.081911 0.368934 0.046300 0.178400
H173  H     H_    0.004694 0.392129 0.017698 0.138627
C189  C     C_3   0.042220 0.429726 0.964449 -0.308568
H174  H     H_    0.071560 0.420013 0.944617 0.235384
H175  H     H_    0.994920 0.442846 0.916066 0.237510
C190  C     C_3   0.074069 0.473466 0.020831 -0.979435
H176  H     H_    0.045197 0.484228 0.040870 0.265795
H177  H     H_    0.078569 0.507681 0.994212 0.272769
H178  H     H_    0.122202 0.461728 0.068853 0.272472
O111  O     O_3   0.547012 0.185592 0.945444 -0.630040
C191  C     C_3   0.600415 0.158092 0.002870 0.118644
H179  H     H_    0.587131 0.132294 0.031778 0.141428
H180  H     H_    0.638548 0.184906 0.043849 0.188208
C192  C     C_3   0.626202 0.124917 0.969404 -0.353861
H181  H     H_    0.589953 0.095855 0.931579 0.228530
H182  H     H_    0.636193 0.149627 0.936524 0.236184
C193  C     C_3   0.687072 0.097292 0.029594 -0.956743
H183  H     H_    0.724641 0.125708 0.066740 0.273349
H184  H     H_    0.704064 0.073132 0.003362 0.273113
H185  H     H_    0.678245 0.072070 0.063068 0.270174
O112  O     O_3   0.504213 0.843017 0.943368 -0.623288
C194  C     C_3   0.534921 0.881537 0.998380 0.113604
H186  H     H_    0.582516 0.868427 0.046493 0.179345
H187  H     H_    0.505503 0.892130 0.017862 0.138995
C195  C     C_3   0.543498 0.929314 0.964868 -0.313256
H188  H     H_    0.572656 0.919283 0.944915 0.235115
H189  H     H_    0.496351 0.942777 0.916617 0.235333
C196  C     C_3   0.575939 0.972866 0.021484 -0.976221
H190  H     H_    0.547227 0.983984 0.041583 0.265516
H191  H     H_    0.580922 0.006962 0.995086 0.272231
H192  H     H_    0.623895 0.960742 0.069425 0.272812

loop_
_geom_bond_atom_site_label_1
_geom_bond_atom_site_label_2
_ccdc_geom_bond_type
C157  H76   S    
O87   H95   S    
C174  H135  S    
C36   C42   S    
O111  C191  S    
C104  C108  A    
C166  H114  S    
C187  H169  S    
C90   O30   A    
O77   H85   S    
C118  O38   A    
O107  H163  S    
C177  H142  S    
O3    Zn3   S    
C35   O107  S    
C120  O48   A    
C170  H123  S    
C5    O85   S    
C5    C6    S    
C194  H187  S    
C157  H77   S    
C109  O81   S    
C10   C28   S    
C134  O54   S    
C100  C104  A    
O25   Zn1   S    
C64   C84   A    
C79   C90   S    
C145  H36   S    
C92   O32   A    
C13   C51   S    
C14   C52   S    
O56   H16   S    
C163  H106  S    
C192  H182  S    
C5    C126  S    
C70   C74   A    
C46   O26   A    
O76   C158  S    
C7    C128  S    
C66   C114  S    
C153  C154  S    
C98   C109  S    
O3    Zn15  S    
C96   O76   S    
C190  H177  S    
O13   Zn5   S    
C130  C134  A    
C33   O105  S    
C120  O40   A    
C143  H32   S    
C51   O99   S    
O5    Zn1   S    
C25   C29   S    
C8    O88   S    
C193  H184  S    
C159  H80   S    
C27   C31   S    
C28   C32   S    
C167  H116  S    
C7    O87   S    
C162  C163  S    
C4    C23   S    
O38   Zn6   S    
O112  C194  S    
C160  H82   S    
C191  C192  S    
C155  H71   S    
C12   C40   S    
C180  H150  S    
C138  H19   S    
C45   O25   A    
C78   C82   A    
C115  O35   A    
O86   H94   S    
C68   C72   A    
C176  C177  S    
C139  H22   S    
C64   C96   S    
C68   C116  S    
C129  C133  A    
O102  C176  S    
C70   H2    S    
C164  H108  S    
C174  C175  S    
C85   O65   S    
C166  H112  S    
C187  H171  S    
C151  H61   S    
C16   O96   S    
C160  H84   S    
C44   C50   S    
C65   C113  S    
C84   C88   S    
C6    C125  S    
C16   C50   S    
C146  H39   S    
C165  H111  S    
C22   C58   T    
C71   H3    S    
C6    O90   S    
C94   O70   S    
O21   Zn13  S    
C10   C38   S    
C9    C15   S    
C186  H168  S    
C10   C16   S    
O91   H99   S    
O18   Zn10  S    
C11   C13   S    
C185  H165  S    
C66   C70   A    
C140  H24   S    
O30   Zn6   S    
C189  H174  S    
C119  O47   A    
C15   C49   S    
C127  C131  A    
C180  C181  S    
C117  O45   A    
O27   Zn3   S    
O48   Zn12  S    
C61   C65   A    
C100  C111  S    
O39   Zn7   S    
O88   H96   S    
C182  H155  S    
C73   C77   A    
C103  C107  A    
O3    Zn7   S    
C172  H126  S    
O24   Zn16  S    
C75   C79   A    
C41   C51   S    
C37   C57   S    
O62   H46   S    
C42   C52   S    
O94   C164  S    
C39   C51   S    
C156  H74   S    
O83   H91   S    
C40   C60   S    
C111  C112  S    
O98   H130  S    
C20   C56   T    
O17   Zn9   S    
C2    O14   A    
C97   C98   A    
C7    C8    S    
C184  H158  S    
C27   C33   S    
C21   C57   T    
C30   C54   S    
O73   C149  S    
C31   C43   S    
C155  C156  S    
C106  O78   S    
C64   C68   A    
C123  O51   A    
C17   C45   S    
C86   O62   S    
C138  C139  S    
C178  H145  S    
C121  O41   A    
C19   C47   S    
C181  H153  S    
C11   C25   S    
O34   Zn10  S    
O58   C140  S    
C124  C132  S    
C9    H9    S    
C168  H117  S    
C195  H189  S    
C85   C93   S    
C113  O33   A    
C99   C100  A    
C152  H65   S    
C87   C95   S    
O50   Zn2   S    
C164  C165  S    
C107  C108  A    
O104  C182  S    
C151  H63   S    
O52   Zn4   S    
C1    C22   S    
O65   H49   S    
C150  H60   S    
C3    C24   S    
O7    Zn3   S    
O45   Zn9   S    
C9    C37   S    
O110  C188  S    
C153  H67   S    
O105  H161  S    
O1    Zn13  S    
C135  O55   S    
C71   C75   A    
C101  C105  A    
O11   Zn15  S    
C183  H156  S    
C62   C66   A    
C105  O77   S    
O2    Zn6   S    
C99   C103  A    
O16   Zn8   S    
C158  H79   S    
C144  C145  S    
C145  H37   S    
O53   H13   S    
C189  C190  S    
C12   C26   S    
C179  H147  S    
C196  H191  S    
O2    Zn10  S    
C188  H172  S    
C125  C129  A    
O46   Zn10  S    
C132  C136  A    
C142  H30   S    
C191  H180  S    
O71   H55   S    
C93   O73   S    
C122  O50   A    
C172  H128  S    
C148  H43   S    
O41   Zn13  S    
C10   H10   S    
C26   C30   S    
C154  H69   S    
C36   O108  S    
C173  H133  S    
C50   O98   S    
C169  H120  S    
O92   H100  S    
C15   O95   S    
C175  H137  S    
O96   C170  S    
C184  H160  S    
O54   H14   S    
C4    O24   A    
C29   C41   S    
O4    Zn8   S    
O4    Zn4   S    
C76   C80   A    
C166  H113  S    
C187  H170  S    
C163  H107  S    
C15   C31   S    
C147  H40   S    
O10   Zn14  S    
C113  O9    A    
O60   C146  S    
C61   C81   A    
C12   H12   S    
C93   O69   S    
C116  O36   A    
C141  H26   S    
C95   O71   S    
C62   C82   A    
C35   C41   S    
C112  O84   S    
C119  O39   A    
O75   C155  S    
C28   C34   S    
C72   H4    S    
C173  C174  S    
C137  H17   S    
C140  C141  S    
O68   H52   S    
C109  H5    S    
C87   O63   S    
C47   O27   A    
C7    O91   S    
C48   O28   A    
C83   C87   S    
C88   C96   S    
O97   H129  S    
O28   Zn4   S    
C181  H152  S    
O64   H48   S    
C43   O103  S    
C80   C84   A    
C147  C148  S    
O85   H93   S    
C135  C136  A    
C163  H105  S    
O101  C173  S    
C159  H81   S    
C179  C180  S    
C13   C29   S    
C88   O64   S    
O1    Zn9   S    
C116  O12   A    
C188  C189  S    
C162  H104  S    
C149  H57   S    
C168  C169  S    
C61   C93   S    
C126  C130  A    
C142  H28   S    
O12   Zn16  S    
C63   C95   S    
O26   Zn2   S    
O69   H53   S    
C155  H72   S    
C85   O61   S    
C80   C89   S    
C114  O10   A    
O43   Zn15  S    
C38   C58   S    
O100  H132  S    
C177  H143  S    
C176  H141  S    
C159  C160  S    
O90   H98   S    
C69   C73   A    
C90   O6    A    
C175  H139  S    
C3    O15   A    
O23   Zn15  S    
C6    O86   S    
C157  H75   S    
O4    Zn12  S    
C1    O13   A    
C182  H154  S    
C42   O102  S    
O61   H45   S    
O14   Zn6   S    
O51   Zn3   S    
C174  H136  S    
C18   C46   S    
O6    Zn2   S    
C151  H62   S    
C161  H101  S    
O31   Zn7   S    
C160  H83   S    
C52   O100  S    
C180  H149  S    
C194  H186  S    
C170  C171  S    
C149  C150  S    
C144  H33   S    
C34   O106  S    
C94   O74   S    
O82   H90   S    
C194  C195  S    
C114  O34   A    
C141  C142  S    
C13   O93   S    
C41   O101  S    
C23   C59   T    
C178  H144  S    
C44   O104  S    
C186  H167  S    
C98   C102  A    
O4    Zn16  S    
C185  H166  S    
O78   H86   S    
C77   C81   A    
C192  C193  S    
C39   C59   S    
C2    C21   S    
C189  H175  S    
C5    O89   S    
C20   C48   S    
C183  H157  S    
C2    O22   A    
C26   C36   S    
C62   C94   S    
C133  C134  A    
C190  H178  S    
C108  O80   S    
C16   C32   S    
O2    Zn2   S    
O1    Zn5   S    
C127  C128  A    
C17   C53   T    
C124  O44   A    
C75   O59   S    
C143  H31   S    
C9    C27   S    
C185  C186  S    
C19   C55   T    
C193  H183  S    
O40   Zn8   S    
C46   O18   A    
C123  C131  S    
C25   O109  S    
C121  C129  S    
C167  H115  S    
C161  H102  S    
C122  O42   A    
O22   Zn14  S    
C88   O68   S    
C105  C106  A    
C124  O52   A    
C101  C117  S    
O66   H50   S    
C95   O75   S    
C158  H78   S    
C138  H20   S    
C82   C86   S    
C109  C110  S    
C79   C83   A    
C11   H11   S    
C65   C69   A    
O15   Zn7   S    
C139  H21   S    
O29   Zn5   S    
C67   C71   A    
C118  O46   A    
C33   C37   S    
C161  C162  S    
C156  H73   S    
C152  H64   S    
C74   C78   A    
C63   C83   A    
C164  H109  S    
C171  H124  S    
C30   C42   S    
C31   C55   S    
C45   O17   A    
C32   C56   S    
C104  C120  S    
C193  H185  S    
C73   O57   S    
O80   H88   S    
C77   C92   S    
C110  O82   S    
C150  H59   S    
O20   Zn12  S    
C35   C39   S    
C170  H122  S    
C96   O72   S    
O108  H164  S    
C146  C147  S    
C49   O97   S    
C165  H110  S    
O99   H131  S    
O95   C167  S    
O79   H87   S    
C145  H35   S    
O3    Zn11  S    
C179  H148  S    
C186  C187  S    
C131  C135  A    
C117  O37   A    
C144  H34   S    
O35   Zn11  S    
C192  H181  S    
C37   C49   S    
O33   Zn9   S    
C196  H190  S    
C110  H6    S    
C67   C115  S    
C86   C94   S    
O70   H54   S    
C142  H29   S    
C183  C184  S    
C91   O31   A    
C182  C183  S    
C190  H176  S    
C4    O16   A    
O49   Zn1   S    
C89   O29   A    
C172  H127  S    
C148  H42   S    
C107  O79   S    
C143  C144  S    
O72   H56   S    
C181  H151  S    
C156  C157  S    
C173  H134  S    
C169  H121  S    
C14   C30   S    
C167  C168  S    
C128  C132  A    
C175  H138  S    
O36   Zn12  S    
C184  H159  S    
C69   H1    S    
C63   C67   A    
C33   C43   S    
O37   Zn5   S    
C36   C40   S    
C34   C44   S    
O109  C185  S    
C178  H146  S    
C25   C35   S    
C43   C49   S    
C147  H41   S    
C195  C196  S    
O67   H51   S    
C40   C52   S    
C76   O60   S    
C171  C172  S    
C139  H23   S    
C133  O53   S    
C87   O67   S    
C28   O112  S    
O47   Zn11  S    
C195  H188  S    
O55   H15   S    
C47   O19   A    
C8    C127  S    
C89   O5    A    
O106  H162  S    
C48   O20   A    
C115  O11   A    
C24   C60   T    
C152  C153  S    
C141  H27   S    
O57   C137  S    
C32   C44   S    
C27   O111  S    
C72   C76   A    
C92   O8    A    
C86   O66   S    
C11   C39   S    
O42   Zn14  S    
C121  O49   A    
O74   C152  S    
C12   C14   S    
C137  H18   S    
C140  H25   S    
C150  C151  S    
C8    O92   S    
C91   O7    A    
C74   O58   S    
C146  H38   S    
O8    Zn4   S    
C165  C166  S    
O1    Zn1   S    
C153  H66   S    
O93   C161  S    
C34   C38   S    
C103  C119  S    
C26   O110  S    
C102  C118  S    
C158  C159  S    
O59   C143  S    
C177  C178  S    
C38   C50   S    
C111  H7    S    
C78   C91   S    
C137  C138  S    
O89   H97   S    
O9    Zn13  S    
C196  H192  S    
C112  H8    S    
O19   Zn11  S    
O103  C179  S    
C188  H173  S    
C162  H103  S    
C149  H58   S    
C97   C110  S    
C168  H118  S    
O84   H92   S    
C3    O23   A    
C125  C126  A    
C136  O56   S    
C29   C53   S    
C99   C112  S    
C1    O21   A    
C191  H179  S    
O44   Zn16  S    
C102  C106  A    
C171  H125  S    
O2    Zn14  S    
C148  H44   S    
C81   C85   S    
C14   O94   S    
C18   C54   T    
C176  H140  S    
C111  O83   S    
C154  H70   S    
C169  H119  S    
O81   H89   S    
O32   Zn8   S    
C123  O43   A    
C122  C130  S    
C97   C101  A    
C154  H68   S    
O63   H47   S    
