data_mof_unit_18369.cif
_audit_creation_date              2012-12-10T20:49:48-0500
_audit_creation_method            fapswitch 2.2
_symmetry_space_group_name_H-M    P1
_symmetry_Int_Tables_number       1
_space_group_crystal_system       triclinic
_cell_length_a                    8.104113
_cell_length_b                    8.921749
_cell_length_c                    16.692001
_cell_angle_alpha                 90.007826
_cell_angle_beta                  82.539315
_cell_angle_gamma                 90.006145
_cell_volume                      1196.66221991

loop_
_atom_site_label
_atom_site_type_symbol
_atom_type_description
_atom_site_fract_x
_atom_site_fract_y
_atom_site_fract_z
_atom_type_partial_charge
Br1   Br    Br    0.272152 0.900116 0.887736 -0.545607
Br2   Br    Br    0.730277 0.899263 0.112169 -0.545687
Br3   Br    Br    0.703354 0.815663 0.306412 -0.512391
Br4   Br    Br    0.297529 0.816022 0.693602 -0.512588
C1    C     C_R   0.500007 0.782016 0.499986 1.006374
C2    C     C_R   0.504616 0.431217 0.206329 -0.248543
C3    C     C_R   0.476774 0.464065 0.875437 -0.124597
C4    C     C_R   0.523746 0.463938 0.124514 -0.124393
C5    C     C_R   0.413229 0.603612 0.903371 0.039493
C6    C     C_R   0.588073 0.603215 0.096560 0.039754
C7    C     C_R   0.355837 0.706908 0.849958 0.211881
C8    C     C_R   0.645604 0.706403 0.150008 0.211841
C9    C     C_R   0.370432 0.672020 0.767558 0.212679
C10   C     C_R   0.630403 0.671722 0.232442 0.212938
C11   C     C_2   0.424173 0.644096 0.987341 0.327713
C12   C     C_R   0.499997 0.217988 0.499999 0.931790
C13   C     C_2   0.577451 0.643749 0.012574 0.328038
C14   C     C_3   0.753470 0.771754 0.915411 0.116909
C15   C     C_3   0.828377 0.737521 0.828458 -0.332834
C16   C     C_3   0.846997 0.879481 0.777113 -0.817979
C17   C     C_3   0.248711 0.772733 0.084455 0.116372
C18   C     C_3   0.173407 0.738903 0.171379 -0.332204
C19   C     C_3   0.153719 0.881249 0.222419 -0.818000
C20   C     C_1   0.500012 0.934834 0.499985 -0.100281
C21   C     C_1   0.499995 0.065231 0.499989 -0.137871
C22   C     C_R   0.472899 0.503103 0.653894 0.923254
C23   C     C_R   0.527120 0.503128 0.346108 0.923231
C24   C     C_R   0.445445 0.535519 0.739592 -0.148290
C25   C     C_R   0.554710 0.535481 0.260408 -0.148667
C26   C     C_R   0.495406 0.431174 0.793650 -0.248599
H1    H     H_    0.480621 0.383717 0.083133 0.174890
H2    H     H_    0.901008 0.850529 0.714469 0.289083
H3    H     H_    0.930696 0.960467 0.802339 0.300401
H4    H     H_    0.156779 0.839246 0.055595 0.224004
H5    H     H_    0.361873 0.843528 0.085428 0.147510
H6    H     H_    0.049715 0.685028 0.171334 0.265353
H7    H     H_    0.254864 0.659890 0.199272 0.233992
H8    H     H_    0.276828 0.934787 0.224674 0.262797
H9    H     H_    0.099233 0.852663 0.285025 0.289323
H10   H     H_    0.069994 0.961682 0.196811 0.300434
H11   H     H_    0.519691 0.383716 0.916811 0.175027
H12   H     H_    0.550706 0.325521 0.772378 0.178593
H13   H     H_    0.448867 0.325723 0.227591 0.178344
H14   H     H_    0.845837 0.838009 0.944155 0.223841
H15   H     H_    0.640619 0.842987 0.914496 0.147502
H16   H     H_    0.952404 0.684228 0.828415 0.264855
H17   H     H_    0.747088 0.657882 0.800875 0.234454
H18   H     H_    0.723533 0.932485 0.775009 0.263093
N1    N     N_1   0.926360 0.500000 0.499990 -0.015039
N2    N     N_1   0.073640 0.500000 0.500010 -0.015067
O1    O     O_R   0.363150 0.714660 0.500000 -0.599049
O2    O     O_3   0.278573 0.636170 0.041597 -0.626588
O3    O     O_R   0.636850 0.285340 0.500000 -0.614931
O4    O     O_R   0.636850 0.714660 0.500000 -0.598970
O5    O     O_R   0.363150 0.285340 0.500000 -0.614942
O6    O     O_R   0.346950 0.500000 0.615800 -0.586470
O7    O     O_R   0.653050 0.500000 0.384200 -0.586404
O8    O     O_R   0.620700 0.500000 0.615800 -0.619456
O9    O     O_R   0.379300 0.500000 0.384200 -0.619450
O10   O     O_3   0.723071 0.635368 0.958362 -0.626606
Zn1   Zn    Zn3+2 0.317220 0.500000 0.500010 1.032842
Zn2   Zn    Zn3+2 0.682780 0.500000 0.499990 1.032897

loop_
_geom_bond_atom_site_label_1
_geom_bond_atom_site_label_2
_ccdc_geom_bond_type
O8    Zn2   S    
C9    C24   A    
C17   H5    S    
C14   H14   S    
C23   C25   S    
C19   H8    S    
C18   H6    S    
O3    Zn2   S    
C6    C13   S    
C22   C24   S    
C15   C16   S    
O1    Zn1   S    
Br2   C8    S    
C17   C18   S    
C24   C26   A    
C5    C11   S    
C15   H16   S    
O7    Zn2   S    
O6    Zn1   S    
C3    C26   A    
C23   O9    A    
C11   O2    S    
C5    C7    A    
C16   H18   S    
C1    C20   S    
C6    C8    A    
Br3   C10   S    
C19   H9    S    
C16   H3    S    
O5    Zn1   S    
C14   O10   S    
C4    H1    S    
C8    C10   A    
C14   C15   S    
C2    H13   S    
C3    H11   S    
C16   H2    S    
C15   H17   S    
O9    Zn1   S    
C13   O10   S    
C19   H10   S    
C14   H15   S    
C3    C5    A    
C1    O4    A    
C7    C9    A    
C2    C25   A    
C18   H7    S    
C20   C21   T    
C4    C6    A    
N1    N2    T    
C23   O7    A    
C12   C21   S    
C11   C13   D    
N2    Zn1   S    
C12   O3    A    
C26   H12   S    
N1    Zn2   S    
C2    C4    A    
C17   H4    S    
C10   C25   A    
C18   C19   S    
C12   O5    A    
O4    Zn2   S    
C22   O8    A    
C17   O2    S    
C1    O1    A    
Br4   C9    S    
C22   O6    A    
Br1   C7    S    
