data_mof_unit_20831.cif
_audit_creation_date              2012-12-10T17:08:11-0500
_audit_creation_method            fapswitch 2.2
_symmetry_space_group_name_H-M    P1
_symmetry_Int_Tables_number       1
_space_group_crystal_system       triclinic
_cell_length_a                    23.576268
_cell_length_b                    11.057482
_cell_length_c                    9.973205
_cell_angle_alpha                 112.37314
_cell_angle_beta                  97.996332
_cell_angle_gamma                 92.093514
_cell_volume                      2369.47318333

loop_
_atom_site_label
_atom_site_type_symbol
_atom_type_description
_atom_site_fract_x
_atom_site_fract_y
_atom_site_fract_z
_atom_type_partial_charge
C1    C     C_R   0.496467 0.253416 0.439353 0.679926
C2    C     C_R   0.506615 0.745898 0.560601 0.797805
C3    C     C_R   0.236449 0.560731 0.424529 0.481193
C4    C     C_R   0.748478 0.421196 0.341221 0.473470
C5    C     C_R   0.296459 0.567283 0.435504 0.374745
C6    C     C_R   0.689428 0.420876 0.350628 0.371403
C7    C     C_R   0.328201 0.487905 0.493732 -0.286902
C8    C     C_R   0.671389 0.476881 0.490168 -0.310677
C9    C     C_R   0.299393 0.394139 0.532188 -0.127096
C10   C     C_R   0.713341 0.511147 0.619842 -0.166912
C11   C     C_R   0.239024 0.393245 0.529820 -0.086540
C12   C     C_R   0.772219 0.498885 0.608681 -0.087871
C13   C     C_R   0.207852 0.477603 0.476915 0.061039
C14   C     C_R   0.789340 0.459375 0.469665 0.101864
C15   C     C_2   0.493981 0.111120 0.406677 0.206033
C16   C     C_2   0.522732 0.884847 0.594145 0.262608
C17   C     C_2   0.516469 0.070931 0.514210 0.336159
C18   C     C_2   0.494358 0.941982 0.510334 0.366402
C19   C     C_2   0.508247 0.500885 0.076602 0.065566
C20   C     C_2   0.493035 0.493900 0.919960 -0.045206
C21   C     C_R   0.391203 0.496583 0.499405 0.854573
C22   C     C_R   0.608968 0.494543 0.497605 0.802719
C23   C     C_R   0.881744 0.580079 0.508572 0.580330
C24   C     C_R   0.111832 0.363118 0.386574 0.562653
C25   C     C_R   0.874068 0.345999 0.411409 0.588820
C26   C     C_R   0.123377 0.587727 0.550715 0.610238
C27   C     C_R   0.933695 0.345743 0.408815 -0.095889
C28   C     C_R   0.063206 0.590594 0.537995 -0.163173
C29   C     C_R   0.968068 0.467689 0.467237 -0.065867
C30   C     C_R   0.028101 0.470146 0.468733 -0.094753
C31   C     C_R   0.942486 0.586878 0.526058 -0.158829
C32   C     C_R   0.053147 0.352452 0.399136 -0.082077
C33   C     C_R   0.959904 0.227128 0.354377 0.397461
C34   C     C_R   0.037803 0.709671 0.595713 0.464238
C35   C     C_R   0.018828 0.230030 0.343916 -0.108675
C36   C     C_R   0.978066 0.707873 0.597411 -0.116795
Cu1   Cu    Cu3+1 0.509980 0.521810 0.644910 1.003184
Cu2   Cu    Cu3+1 0.490020 0.478190 0.355090 1.002628
N1    N     N_R   0.849682 0.461633 0.459534 -0.431813
N2    N     N_R   0.146326 0.476037 0.471895 -0.465823
N3    N     N_2   0.475010 0.445410 0.137370 -0.251744
N4    N     N_2   0.524990 0.554590 0.862630 -0.268927
O1    O     O_R   0.505330 0.332340 0.577400 -0.571257
O2    O     O_R   0.494670 0.667660 0.422600 -0.504066
O3    O     O_R   0.488470 0.295500 0.332650 -0.597457
O4    O     O_R   0.511530 0.704500 0.667350 -0.554506
O5    O     O_R   0.426310 0.518390 0.622390 -0.587665
O6    O     O_R   0.573690 0.481610 0.377610 -0.519804
O7    O     O_R   0.409450 0.481550 0.377650 -0.588665
O8    O     O_R   0.590550 0.518450 0.622350 -0.577008
O9    O     O_2   0.854294 0.689882 0.537540 -0.540063
O10   O     O_2   0.134406 0.263580 0.288573 -0.481985
O11   O     O_2   0.840374 0.232158 0.367140 -0.522173
O12   O     O_2   0.158838 0.694851 0.641237 -0.453059
O13   O     O_3   0.927811 0.106573 0.307534 -0.563095
C37   C     C_3   0.931074 0.066509 0.426888 -0.156859
H1    H     H_    0.904607 0.971117 0.390231 0.213426
H2    H     H_    0.913710 0.138199 0.520834 0.175852
H3    H     H_    0.975890 0.051568 0.464632 0.144702
O14   O     O_3   0.071517 0.828897 0.656212 -0.522551
C38   C     C_3   0.079170 0.870411 0.541735 -0.052578
H4    H     H_    0.104972 0.803754 0.464555 0.169807
H5    H     H_    0.103076 0.969643 0.590706 0.218476
H6    H     H_    0.037277 0.877716 0.479688 0.128015
C39   C     C_2   0.548455 0.685983 0.952507 0.596963
H7    H     H_    0.530603 0.744185 0.049188 0.078033
O15   O     O_2   0.588257 0.736247 0.919632 -0.559389
C40   C     C_2   0.443195 0.321067 0.052645 0.588939
H8    H     H_    0.401817 0.299505 0.078574 0.039703
O16   O     O_2   0.463739 0.234792 0.959235 -0.581174
C41   C     C_2   0.043037 0.101510 0.285323 0.482581
H9    H     H_    0.020203 0.022991 0.186827 0.098036
O17   O     O_2   0.086077 0.079225 0.352226 -0.514453
C42   C     C_2   0.954925 0.830783 0.688425 0.489226
H10   H     H_    0.921749 0.826212 0.752053 0.110307
O18   O     O_2   0.972889 0.938204 0.695085 -0.542321
O19   O     O_3   0.206899 0.644378 0.372588 -0.536315
C43   C     C_3   0.174347 0.571484 0.232070 -0.295786
H11   H     H_    0.131200 0.535614 0.241833 0.175133
H12   H     H_    0.196236 0.487739 0.163261 0.147627
H13   H     H_    0.167552 0.637908 0.172623 0.197474
O20   O     O_3   0.767631 0.404253 0.210326 -0.533270
C44   C     C_3   0.756790 0.272138 0.109742 -0.149608
H14   H     H_    0.791460 0.249902 0.041748 0.185199
H15   H     H_    0.715693 0.258241 0.033906 0.192410
H16   H     H_    0.756603 0.199993 0.162833 0.157998
O21   O     O_3   0.325198 0.657510 0.396942 -0.571370
C45   C     C_3   0.320688 0.610302 0.242310 -0.177596
H17   H     H_    0.317466 0.500956 0.187050 0.132405
H18   H     H_    0.359977 0.648743 0.216015 0.220267
H19   H     H_    0.283497 0.648623 0.195595 0.180278
O22   O     O_3   0.649999 0.373126 0.221561 -0.574247
C46   C     C_3   0.626757 0.245360 0.197486 -0.241563
H20   H     H_    0.597010 0.205654 0.090806 0.236378
H21   H     H_    0.601633 0.245731 0.283838 0.153438
H22   H     H_    0.660632 0.177120 0.191370 0.129644
C47   C     C_2   0.332645 0.294009 0.564960 0.532371
H23   H     H_    0.370443 0.263847 0.514880 -0.052615
O23   O     O_2   0.319852 0.247305 0.650895 -0.506402
C48   C     C_2   0.696427 0.559184 0.767319 0.573978
H24   H     H_    0.678132 0.652208 0.808244 0.104190
O24   O     O_2   0.702670 0.494472 0.842988 -0.516279
C49   C     C_2   0.206858 0.305189 0.580500 0.601255
H25   H     H_    0.176461 0.344837 0.654784 0.020410
O25   O     O_2   0.210808 0.187010 0.531775 -0.454325
C50   C     C_2   0.817732 0.531125 0.740549 0.479475
H26   H     H_    0.856628 0.481049 0.730745 0.040263
O26   O     O_2   0.813691 0.616827 0.859116 -0.506468
O27   O     O_3   0.443372 0.878711 0.417517 -0.580034
C51   C     C_3   0.397206 0.931117 0.490348 -0.197923
H27   H     H_    0.356617 0.896315 0.410246 0.226489
H28   H     H_    0.400763 0.040512 0.534757 0.137046
H29   H     H_    0.394045 0.896517 0.580423 0.185708
O28   O     O_3   0.552905 0.155621 0.639971 -0.538655
C52   C     C_3   0.607890 0.172226 0.604471 -0.171983
H30   H     H_    0.608010 0.236912 0.542450 0.118745
H31   H     H_    0.623669 0.076810 0.540812 0.133427
H32   H     H_    0.638882 0.220501 0.708243 0.213739
O29   O     O_3   0.567957 0.954395 0.706391 -0.540878
C53   C     C_3   0.618630 0.890563 0.682065 -0.260037
H33   H     H_    0.626523 0.863526 0.567099 0.153513
H34   H     H_    0.617365 0.802116 0.708929 0.194830
H35   H     H_    0.655750 0.959016 0.756131 0.184588
O30   O     O_3   0.471021 0.016750 0.268053 -0.556191
C54   C     C_3   0.416840 0.045475 0.213887 -0.172023
H36   H     H_    0.422096 0.106509 0.149617 0.178931
H37   H     H_    0.390892 0.092851 0.301598 0.102512
H38   H     H_    0.391932 0.951712 0.137408 0.195889
C55   C     C_2   0.438281 0.422674 0.832673 0.528129
H39   H     H_    0.437547 0.331944 0.738456 0.102865
O31   O     O_2   0.393251 0.464236 0.869846 -0.573215
C56   C     C_2   0.565251 0.568317 0.158483 0.448435
H40   H     H_    0.603512 0.530354 0.115067 0.130123
O32   O     O_2   0.570098 0.672449 0.264394 -0.561810

loop_
_geom_bond_atom_site_label_1
_geom_bond_atom_site_label_2
_ccdc_geom_bond_type
C24   O10   S    
C22   O6    A    
O21   C45   S    
C33   O13   S    
C46   H20   S    
C27   C29   A    
C19   C20   S    
C18   O27   S    
C20   C55   S    
O13   C37   S    
C1    O3    A    
C21   O7    A    
C47   H23   S    
Cu2   O7    S    
O19   C43   S    
C27   C33   A    
Cu1   Cu2   S    
C42   O18   D    
C25   O11   S    
C43   H12   S    
C50   H26   S    
C52   H30   S    
C37   H1    S    
C15   C17   D    
Cu1   N4    S    
C38   H5    S    
C51   H27   S    
O22   C46   S    
Cu2   O3    S    
C24   N2    A    
C14   N1    S    
C1    O1    A    
C2    O2    A    
C56   H40   S    
C52   H31   S    
N4    C39   S    
C8    C22   S    
C1    C15   S    
Cu1   O5    S    
C2    C16   S    
Cu2   O6    S    
C3    C13   A    
C53   H35   S    
C22   O8    A    
C12   C50   S    
C35   C41   S    
C46   H21   S    
C34   O14   S    
C26   O12   S    
C47   O23   D    
C53   H34   S    
C17   O28   S    
O28   C52   S    
N3    C40   S    
C15   O30   S    
C32   C35   A    
Cu2   N3    S    
C4    C6    A    
C42   H10   S    
C16   O29   S    
C5    C7    A    
C43   H11   S    
C40   H8    S    
C6    C8    A    
C39   O15   D    
C7    C21   S    
C2    O4    A    
O14   C38   S    
C23   C31   A    
Cu1   O1    S    
C38   H6    S    
C24   C32   A    
Cu2   O2    S    
C29   C30   A    
C54   H38   S    
C23   O9    S    
C44   H14   S    
C45   H19   S    
C52   H32   S    
C48   O24   D    
C17   C18   S    
C49   O25   D    
C10   C48   S    
C9    C11   A    
C51   H29   S    
C10   C12   A    
C56   O32   D    
C8    C10   A    
C44   H15   S    
C12   C14   A    
C39   H7    S    
C46   H22   S    
C54   H36   S    
C13   N2    S    
C53   H33   S    
C41   O17   D    
C55   H39   S    
C19   C56   S    
C7    C9    A    
C36   C42   S    
C9    C47   S    
C45   H18   S    
C3    C5    A    
C20   N4    D    
O29   C53   S    
C25   C27   A    
C26   C28   A    
C37   H3    S    
C28   C30   A    
C41   H9    S    
C29   C31   A    
O27   C51   S    
C25   N1    A    
C30   C32   A    
Cu1   O8    S    
C11   C13   A    
C43   H13   S    
C26   N2    A    
C50   O26   D    
C6    O22   S    
C48   H24   S    
C33   C35   A    
C37   H2    S    
C34   C36   A    
C4    C14   A    
C38   H4    S    
C51   H28   S    
C28   C34   A    
C5    O21   S    
C44   H16   S    
C4    O20   S    
C45   H17   S    
C16   C18   D    
O20   C44   S    
C49   H25   S    
C54   H37   S    
C40   O16   D    
C31   C36   A    
C11   C49   S    
C55   O31   D    
Cu1   O4    S    
C23   N1    A    
C19   N3    D    
O30   C54   S    
C21   O5    A    
C3    O19   S    
