data_mof_unit_51560.cif
_audit_creation_date              2012-12-10T18:34:59-0500
_audit_creation_method            fapswitch 2.2
_symmetry_space_group_name_H-M    P1
_symmetry_Int_Tables_number       1
_space_group_crystal_system       triclinic
_cell_length_a                    15.098562
_cell_length_b                    13.838941
_cell_length_c                    10.8112
_cell_angle_alpha                 90.230285
_cell_angle_beta                  90.377846
_cell_angle_gamma                 89.975879
_cell_volume                      2258.91225065

loop_
_atom_site_label
_atom_site_type_symbol
_atom_type_description
_atom_site_fract_x
_atom_site_fract_y
_atom_site_fract_z
_atom_type_partial_charge
C1    C     C_R   0.329837 0.500060 0.500024 0.848504
C2    C     C_R   0.670093 0.500031 0.499883 0.851384
C3    C     C_R   0.233324 0.500375 0.500019 -0.178416
C4    C     C_R   0.766491 0.500330 0.499480 -0.166641
C5    C     C_R   0.187096 0.423436 0.552877 -0.297281
C6    C     C_R   0.812403 0.426883 0.438195 -0.311668
C7    C     C_R   0.094724 0.424711 0.556375 0.509556
C8    C     C_R   0.905097 0.428869 0.432814 0.504022
C9    C     C_R   0.048329 0.500937 0.499472 -0.036453
C10   C     C_R   0.951210 0.501040 0.498966 -0.039397
C11   C     C_R   0.537973 0.108093 0.598158 -0.277203
C12   C     C_R   0.462066 0.107529 0.401778 -0.277426
C13   C     C_R   0.537969 0.209631 0.595796 0.082383
C14   C     C_R   0.462079 0.209095 0.404155 0.082833
C15   C     C_R   0.500013 0.054592 0.499974 0.138186
C16   C     C_R   0.433926 0.891850 0.437124 -0.279518
C17   C     C_R   0.566070 0.892174 0.562914 -0.282551
C18   C     C_R   0.435552 0.790325 0.437534 0.130774
C19   C     C_R   0.564430 0.790647 0.562517 0.142749
C20   C     C_R   0.500009 0.945220 0.499996 0.125534
C21   C     C_R   0.507810 0.500192 0.262366 0.824165
C22   C     C_R   0.492768 0.500777 0.737887 0.813861
C23   C     C_R   0.561311 0.675601 0.111162 0.526454
C24   C     C_R   0.459840 0.683026 0.893247 0.524021
C25   C     C_R   0.542701 0.764178 0.055232 -0.310969
C26   C     C_R   0.489118 0.768081 0.950291 -0.314484
C27   C     C_R   0.488714 0.591905 0.940298 -0.082546
C28   C     C_R   0.522860 0.589437 0.061697 -0.081432
C29   C     C_R   0.515409 0.501365 0.127726 -0.087031
C30   C     C_R   0.486303 0.503358 0.872845 -0.088037
C31   C     C_R   0.501060 0.414810 0.063289 -0.215810
C32   C     C_R   0.491575 0.415498 0.936222 -0.214064
C33   C     C_R   0.094660 0.577039 0.443163 0.511290
C34   C     C_R   0.905433 0.573120 0.564914 0.505488
C35   C     C_R   0.187043 0.577748 0.447204 -0.297875
C36   C     C_R   0.812679 0.574396 0.560007 -0.307712
Cu1   Cu    Cu3+1 0.500000 0.596430 0.500000 0.996741
Cu2   Cu    Cu3+1 0.500000 0.403570 0.500000 0.932861
H1    H     H_    0.497740 0.346164 0.110840 0.156888
H2    H     H_    0.487166 0.346934 0.887866 0.158081
H3    H     H_    0.380266 0.927716 0.389038 0.132557
H4    H     H_    0.619726 0.928279 0.611026 0.130167
H5    H     H_    0.384677 0.750696 0.388038 0.107717
H6    H     H_    0.615273 0.751275 0.612074 0.105123
H7    H     H_    0.568733 0.830410 0.094800 0.183501
H8    H     H_    0.470553 0.837561 0.912367 0.183106
H9    H     H_    0.222396 0.637642 0.406252 0.169706
H10   H     H_    0.776470 0.631927 0.605258 0.161059
H11   H     H_    0.222504 0.363396 0.594098 0.179648
H12   H     H_    0.776008 0.369250 0.392863 0.170672
H13   H     H_    0.566684 0.072326 0.677626 0.127054
H14   H     H_    0.433366 0.071295 0.322299 0.127785
H15   H     H_    0.568292 0.249063 0.671488 0.122067
H16   H     H_    0.431823 0.248134 0.328451 0.121131
N1    N     N_R   0.500000 0.258690 0.500000 -0.173155
N2    N     N_R   0.500000 0.741330 0.500000 -0.154375
O1    O     O_R   0.371460 0.581430 0.500010 -0.582170
O2    O     O_R   0.628540 0.581430 0.499990 -0.576601
O3    O     O_R   0.371470 0.418560 0.500010 -0.584051
O4    O     O_R   0.628530 0.418560 0.499990 -0.585473
O5    O     O_R   0.500000 0.581450 0.319650 -0.543101
O6    O     O_R   0.500000 0.581450 0.680350 -0.540089
O7    O     O_R   0.500010 0.418580 0.319650 -0.611753
O8    O     O_R   0.499990 0.418580 0.680350 -0.609893
O9    O     O_3   0.618731 0.675683 0.211602 -0.549486
C37   C     C_3   0.699438 0.632329 0.176803 -0.325879
H17   H     H_    0.728407 0.668308 0.094453 0.148651
H18   H     H_    0.691309 0.553630 0.159304 0.143490
H19   H     H_    0.747395 0.640503 0.254344 0.199959
O10   O     O_3   0.400447 0.691951 0.795756 -0.551133
C38   C     C_3   0.316901 0.656934 0.832204 -0.304754
H20   H     H_    0.293532 0.693307 0.918107 0.148225
H21   H     H_    0.317782 0.577263 0.844525 0.144079
H22   H     H_    0.268230 0.673010 0.757749 0.198907
O11   O     O_3   0.049475 0.653080 0.389308 -0.535718
C39   C     C_3   0.046042 0.637322 0.260478 -0.344223
H23   H     H_    0.006870 0.696306 0.217566 0.193659
H24   H     H_    0.113405 0.638991 0.219363 0.154028
H25   H     H_    0.012357 0.567948 0.237448 0.149819
O12   O     O_3   0.953184 0.644530 0.626572 -0.539266
C40   C     C_3   0.926010 0.651931 0.750978 -0.342987
H26   H     H_    0.979026 0.688947 0.804548 0.190203
H27   H     H_    0.915549 0.579957 0.794400 0.133072
H28   H     H_    0.865326 0.696882 0.758486 0.166280
O13   O     O_3   0.049498 0.349135 0.610314 -0.534656
C41   C     C_3   0.048491 0.364284 0.739310 -0.336402
H29   H     H_    0.008856 0.306052 0.782268 0.195760
H30   H     H_    0.016613 0.434373 0.763412 0.148027
H31   H     H_    0.116465 0.360706 0.779464 0.154514
O14   O     O_3   0.952582 0.358009 0.370533 -0.538111
C42   C     C_3   0.923829 0.350732 0.246290 -0.336197
H32   H     H_    0.976535 0.314584 0.192085 0.192575
H33   H     H_    0.911927 0.422717 0.203364 0.128009
H34   H     H_    0.863567 0.305042 0.239005 0.169662

loop_
_geom_bond_atom_site_label_1
_geom_bond_atom_site_label_2
_ccdc_geom_bond_type
C19   N2    A    
C37   H18   S    
C4    C36   A    
C39   H25   S    
C35   H9    S    
Cu1   O6    S    
C24   O10   S    
O13   C41   S    
C28   C29   A    
C39   H24   S    
C1    O3    A    
C2    O4    A    
C37   H19   S    
C22   O6    A    
C17   C20   A    
C17   H4    S    
C12   H14   S    
Cu1   N2    S    
C11   C15   A    
C33   O11   S    
Cu2   N1    S    
C24   C27   A    
C36   H10   S    
O10   C38   S    
C9    C10   S    
Cu2   O8    S    
Cu1   O2    S    
C18   N2    A    
C34   O12   S    
C23   C25   A    
C14   N1    A    
C27   C30   A    
C9    C33   A    
C5    H11   S    
C40   H27   S    
C40   H26   S    
C13   H15   S    
C15   C20   S    
C39   H23   S    
C4    C6    A    
C42   H32   S    
C5    C7    A    
C41   H29   S    
C17   C19   A    
C6    C8    A    
C25   C26   A    
C21   C29   S    
C1    C3    S    
C2    C4    S    
O11   C39   S    
Cu1   Cu2   S    
C1    O1    A    
C42   H33   S    
C31   C32   A    
C12   C15   A    
C3    C35   A    
C16   C20   A    
C10   C34   A    
C23   C28   A    
C6    H12   S    
Cu2   O4    S    
C16   C18   A    
C14   H16   S    
C12   C14   A    
C8    O14   S    
C25   H7    S    
C40   H28   S    
C19   H6    S    
C38   H21   S    
Cu2   O7    S    
C7    C9    A    
C22   C30   S    
C21   O5    A    
C24   C26   A    
O12   C40   S    
C3    C5    A    
C41   H31   S    
C38   H22   S    
Cu1   O5    S    
C2    O2    A    
C23   O9    S    
C38   H20   S    
C29   C31   A    
C18   H5    S    
C42   H34   S    
C30   C32   A    
C11   C13   A    
O14   C42   S    
C7    O13   S    
C33   C35   A    
C34   C36   A    
C31   H1    S    
C37   H17   S    
C41   H30   S    
C32   H2    S    
C21   O7    A    
C11   H13   S    
C26   H8    S    
C22   O8    A    
Cu2   O3    S    
C8    C10   A    
O9    C37   S    
C27   C28   A    
C16   H3    S    
Cu1   O1    S    
C13   N1    A    
