data_mof_unit_66057.cif
_audit_creation_date              2012-12-10T16:39:49-0500
_audit_creation_method            fapswitch 2.2
_symmetry_space_group_name_H-M    P1
_symmetry_Int_Tables_number       1
_space_group_crystal_system       triclinic
_cell_length_a                    10.945926
_cell_length_b                    10.845076
_cell_length_c                    16.028097
_cell_angle_alpha                 91.408699
_cell_angle_beta                  97.329074
_cell_angle_gamma                 98.775819
_cell_volume                      1863.16357371

loop_
_atom_site_label
_atom_site_type_symbol
_atom_type_description
_atom_site_fract_x
_atom_site_fract_y
_atom_site_fract_z
_atom_type_partial_charge
C1    C     C_R   0.837608 0.525307 0.518124 0.609016
C2    C     C_R   0.527400 0.836051 0.518454 0.504671
C3    C     C_R   0.472682 0.163130 0.481630 0.528557
C4    C     C_R   0.483987 0.515617 0.275875 0.519103
C5    C     C_R   0.515598 0.484448 0.723858 0.505498
C6    C     C_1   0.476995 0.521840 0.186270 0.045248
C7    C     C_2   0.464841 0.532767 0.020931 -0.108626
C8    C     C_2   0.533235 0.467643 0.978745 -0.108770
C9    C     C_1   0.527026 0.473470 0.888758 -0.021847
C10   C     C_1   0.471267 0.526973 0.110933 -0.021753
C11   C     C_1   0.521746 0.478499 0.813437 0.044832
C12   C     C_2   0.024804 0.460774 0.479581 0.184290
C13   C     C_2   0.970690 0.540788 0.524574 0.211553
C14   C     C_2   0.460724 0.027826 0.475051 -0.092689
C15   C     C_2   0.538353 0.969698 0.525128 -0.075779
C16   C     C_R   0.160432 0.475415 0.482164 0.533743
H1    H     H_    0.594514 0.409474 0.011612 0.151873
H2    H     H_    0.403570 0.590963 0.988087 0.152115
H3    H     H_    0.388502 0.975244 0.429242 0.127196
H4    H     H_    0.612307 0.020246 0.570538 0.146738
H5    H     H_    0.957594 0.183297 0.332523 0.373049
H6    H     H_    0.986960 0.840905 0.638646 0.375708
O1    O     O_3   0.500000 0.500000 0.500000 -0.485666
O2    O     O_R   0.566290 0.591070 0.323460 -0.525287
O3    O     O_R   0.580640 0.419420 0.684420 -0.538376
O4    O     O_R   0.407770 0.434760 0.307690 -0.528068
O5    O     O_R   0.445300 0.554750 0.684430 -0.518820
O6    O     O_2   0.867832 0.244021 0.475592 -0.276436
O7    O     O_2   0.834674 0.379402 0.357551 -0.301449
O8    O     O_3   0.017733 0.252733 0.362478 -0.473699
O9    O     O_2   0.125590 0.651864 0.658669 -0.255877
O10   O     O_2   0.125789 0.759902 0.525472 -0.267995
O11   O     O_3   0.938444 0.764187 0.609011 -0.524446
O12   O     O_R   0.452040 0.769470 0.559450 -0.502921
O13   O     O_R   0.554760 0.223750 0.537250 -0.524237
O14   O     O_R   0.782610 0.596300 0.470630 -0.492619
O15   O     O_R   0.210590 0.410470 0.432660 -0.479703
O16   O     O_R   0.777820 0.443700 0.559450 -0.508028
O17   O     O_R   0.228980 0.549520 0.537250 -0.488100
O18   O     O_R   0.592170 0.786730 0.470640 -0.521110
O19   O     O_R   0.401030 0.220040 0.432660 -0.518837
S1    S     S_3+6 0.931828 0.331854 0.417852 0.019531
S2    S     S_3+6 0.046113 0.681898 0.580499 0.037342
Zn1   Zn    Zn3+2 0.408180 0.591840 0.569080 1.029927
Zn2   Zn    Zn3+2 0.608390 0.616500 0.442190 1.027746
Zn3   Zn    Zn3+2 0.381900 0.393170 0.419650 1.018639
Zn4   Zn    Zn3+2 0.601540 0.398480 0.569080 1.014762

loop_
_geom_bond_atom_site_label_1
_geom_bond_atom_site_label_2
_ccdc_geom_bond_type
C6    C10   T    
C7    C10   S    
C4    O4    A    
O19   Zn3   S    
O17   Zn1   S    
O1    Zn2   S    
O7    S1    D    
H5    O8    S    
O3    Zn4   S    
C8    H1    S    
C3    O13   A    
C16   O15   A    
C7    H2    S    
O13   Zn4   S    
C2    O12   A    
O12   Zn1   S    
O14   Zn2   S    
O1    Zn3   S    
C2    C15   S    
C9    C11   T    
O16   Zn4   S    
O18   Zn2   S    
C3    C14   S    
O9    S2    D    
C1    O16   A    
C5    O3    A    
O2    Zn2   S    
C14   H3    S    
O6    S1    D    
O10   S2    D    
C5    C11   S    
C15   H4    S    
C4    O2    A    
O1    Zn4   S    
O4    Zn3   S    
C16   O17   A    
O11   S2    S    
C2    O18   A    
C13   S2    S    
C1    C13   S    
C12   C13   D    
C4    C6    S    
C7    C8    D    
H6    O11   S    
C14   C15   D    
O8    S1    S    
C12   S1    S    
O15   Zn3   S    
C5    O5    A    
O5    Zn1   S    
C3    O19   A    
O1    Zn1   S    
C12   C16   S    
C1    O14   A    
C8    C9    S    
