data_mof_unit_21395.cif
_audit_creation_date              2012-12-10T20:44:02-0500
_audit_creation_method            fapswitch 2.2
_symmetry_space_group_name_H-M    P1
_symmetry_Int_Tables_number       1
_space_group_crystal_system       triclinic
_cell_length_a                    17.345423
_cell_length_b                    10.656621
_cell_length_c                    9.976597
_cell_angle_alpha                 89.660534
_cell_angle_beta                  87.187113
_cell_angle_gamma                 90.478104
_cell_volume                      1841.78700541

loop_
_atom_site_label
_atom_site_type_symbol
_atom_type_description
_atom_site_fract_x
_atom_site_fract_y
_atom_site_fract_z
_atom_type_partial_charge
C1    C     C_R   0.503575 0.260301 0.499955 0.873660
C2    C     C_R   0.115194 0.432739 0.500998 0.068757
C3    C     C_R   0.529561 0.063337 0.616637 0.141207
C4    C     C_R   0.353834 0.498893 0.502799 0.854226
C5    C     C_R   0.518828 0.129238 0.497930 -0.147710
C6    C     C_R   0.525184 0.066068 0.374714 -0.206354
C7    C     C_R   0.524366 0.936371 0.374177 -0.225895
C8    C     C_R   0.517069 0.871314 0.496809 -0.108549
C9    C     C_R   0.527317 0.935092 0.615973 0.097088
C10   C     C_3   0.484481 0.925757 0.749435 -0.476498
C11   C     C_3   0.488245 0.068536 0.752226 -0.060739
C12   C     C_R   0.884516 0.430863 0.501162 0.103773
C13   C     C_R   0.435222 0.528820 0.077164 0.034638
C14   C     C_R   0.564827 0.469125 0.063024 0.231048
C15   C     C_R   0.564852 0.474952 0.920801 -0.165092
C16   C     C_R   0.502834 0.739783 0.499294 0.879472
C17   C     C_R   0.434367 0.527303 0.935856 0.060109
C18   C     C_3   0.354529 0.465021 0.941093 0.189590
C19   C     C_3   0.357780 0.467013 0.095973 -0.268709
C20   C     C_R   0.646261 0.497756 0.497289 0.858862
C21   C     C_R   0.852480 0.531064 0.573749 -0.193550
C22   C     C_R   0.774313 0.554608 0.570506 -0.211750
C23   C     C_1   0.965605 0.419152 0.500055 -0.030514
C24   C     C_R   0.728378 0.478984 0.492859 -0.046940
C25   C     C_R   0.759706 0.376796 0.422282 -0.240694
C26   C     C_R   0.838462 0.351565 0.424996 0.202661
C27   C     C_3   0.536611 0.124037 0.864295 -0.342887
C28   C     C_3   0.622224 0.088664 0.857925 -0.852397
C29   C     C_3   0.636914 0.416924 0.118307 -0.373638
C30   C     C_3   0.698812 0.519512 0.125547 -0.833948
C31   C     C_3   0.293324 0.558283 0.890352 -0.343379
C32   C     C_3   0.209358 0.527269 0.934639 -0.848370
C33   C     C_3   0.355533 0.332243 0.875331 -0.340488
C34   C     C_1   0.034083 0.419708 0.500059 0.012757
C35   C     C_3   0.281686 0.253628 0.898867 -0.822398
C36   C     C_2   0.357979 0.340958 0.167932 1.008790
C37   C     C_3   0.870687 0.239848 0.348405 -0.417755
C38   C     C_3   0.872695 0.263595 0.197276 -0.862002
C39   C     C_2   0.133343 0.213517 0.600938 0.878311
C40   C     C_R   0.146097 0.546903 0.452574 -0.160324
C41   C     C_R   0.224539 0.570023 0.455090 -0.195230
C42   C     C_R   0.271814 0.479622 0.508212 -0.010952
C43   C     C_R   0.241870 0.364353 0.554689 -0.231268
C44   C     C_R   0.162833 0.338534 0.552064 -0.000678
H1    H     H_    0.888262 0.591910 0.631949 0.147968
H2    H     H_    0.109247 0.618464 0.412943 0.141555
H3    H     H_    0.248367 0.657952 0.416013 0.131013
H4    H     H_    0.280996 0.293791 0.589199 0.169000
H5    H     H_    0.524345 0.115367 0.279530 0.201656
H6    H     H_    0.629694 0.985551 0.862673 0.255715
H7    H     H_    0.651703 0.126078 0.764583 0.260539
H8    H     H_    0.650513 0.130489 0.944717 0.232932
H9    H     H_    0.533457 0.227645 0.858611 0.220570
H10   H     H_    0.510020 0.094692 0.963280 0.220914
H11   H     H_    0.716437 0.553152 0.022876 0.237417
H12   H     H_    0.523133 0.888507 0.278795 0.176098
H13   H     H_    0.677086 0.600907 0.184649 0.276070
H14   H     H_    0.750619 0.481826 0.171789 0.256286
H15   H     H_    0.624259 0.365607 0.213036 0.236433
H16   H     H_    0.660449 0.342488 0.050581 0.163518
H17   H     H_    0.183142 0.462978 0.862562 0.259968
H18   H     H_    0.204214 0.485488 0.036769 0.272352
H19   H     H_    0.174944 0.614675 0.935209 0.242242
H20   H     H_    0.306351 0.653826 0.928284 0.178433
H21   H     H_    0.296896 0.566050 0.780038 0.230811
H22   H     H_    0.295223 0.152903 0.883791 0.248681
H23   H     H_    0.424741 0.888699 0.741487 0.181890
H24   H     H_    0.255225 0.264933 0.001125 0.279474
H25   H     H_    0.238726 0.279089 0.825505 0.266409
H26   H     H_    0.367645 0.338732 0.766498 0.233237
H27   H     H_    0.404180 0.278033 0.912678 0.198576
H28   H     H_    0.299891 0.220565 0.293479 0.339695
H29   H     H_    0.813274 0.273803 0.162288 0.254240
H30   H     H_    0.906736 0.349911 0.171490 0.266386
H31   H     H_    0.900150 0.182952 0.144237 0.260080
H32   H     H_    0.929934 0.217055 0.377512 0.234836
H33   H     H_    0.834274 0.155715 0.373001 0.206202
H34   H     H_    0.518081 0.877211 0.825891 0.211418
H35   H     H_    0.158956 0.039259 0.665030 0.345889
H36   H     H_    0.430160 0.111306 0.748164 0.143750
H37   H     H_    0.616530 0.451755 0.861310 0.169473
H38   H     H_    0.316315 0.532706 0.146330 0.150588
H39   H     H_    0.749678 0.631898 0.627751 0.145526
H40   H     H_    0.722574 0.315249 0.367620 0.140046
N1    N     N_R   0.499490 0.499140 0.142800 -0.103386
N2    N     N_R   0.499490 0.499180 0.857150 -0.128189
O1    O     O_R   0.500010 0.316790 0.614690 -0.638762
O2    O     O_R   0.293657 0.305744 0.249708 -0.818043
O3    O     O_2   0.064054 0.191617 0.613865 -0.636504
O4    O     O_R   0.185555 0.119695 0.632563 -0.832855
O5    O     O_R   0.500000 0.316760 0.385350 -0.593331
O6    O     O_R   0.389120 0.500020 0.614710 -0.651857
O7    O     O_R   0.389110 0.499990 0.385370 -0.599929
O8    O     O_R   0.500000 0.683240 0.614650 -0.607669
O9    O     O_R   0.499990 0.683210 0.385310 -0.621969
O10   O     O_R   0.610890 0.500010 0.614630 -0.618600
O11   O     O_R   0.610880 0.499980 0.385290 -0.623720
O12   O     O_2   0.413157 0.270505 0.155286 -0.665215
Zn1   Zn    Zn3+2 0.500010 0.500020 0.653130 0.916163
Zn2   Zn    Zn3+2 0.499990 0.499980 0.346870 0.959739

loop_
_geom_bond_atom_site_label_1
_geom_bond_atom_site_label_2
_ccdc_geom_bond_type
C1    O1    A    
C30   H13   S    
C41   C42   A    
C10   H34   S    
C27   H10   S    
C7    C8    A    
C15   H37   S    
C10   H23   S    
C36   O2    S    
C40   H2    S    
C12   C23   S    
C37   C38   S    
C1    C5    S    
C35   H24   S    
C32   H17   S    
C19   C36   S    
C38   H30   S    
C5    C6    A    
C28   H7    S    
O10   Zn1   S    
C18   C19   S    
H35   O4    S    
C28   H6    S    
C20   O11   A    
C29   H15   S    
C2    C44   A    
C8    C9    A    
C25   H40   S    
O5    Zn2   S    
C19   H38   S    
C43   H4    S    
C39   O4    S    
O1    Zn1   S    
C2    C34   S    
C20   O10   A    
C1    O5    A    
C21   C22   A    
C7    H12   S    
H28   O2    S    
C21   H1    S    
C38   H31   S    
C13   C19   S    
C17   N2    A    
C20   C24   S    
C24   C25   A    
C32   H19   S    
C11   H36   S    
O9    Zn2   S    
C35   H22   S    
C25   C26   A    
C37   H33   S    
C12   C21   A    
C12   C26   A    
C43   C44   A    
C29   C30   S    
C3    C9    A    
C31   C32   S    
C29   H16   S    
C11   C27   S    
C23   C34   T    
C17   C18   S    
C41   H3    S    
N2    Zn1   S    
O7    Zn2   S    
C39   C44   S    
C33   H26   S    
C15   N2    A    
C40   C41   A    
C37   H32   S    
C22   C24   A    
C42   C43   A    
C14   C29   S    
O11   Zn2   S    
C9    C10   S    
C31   H21   S    
C16   O9    A    
C31   H20   S    
C14   N1    A    
C3    C5    A    
C27   H9    S    
C26   C37   S    
C6    C7    A    
C30   H11   S    
C16   O8    A    
C13   C17   A    
C22   H39   S    
C32   H18   S    
N1    Zn2   S    
C28   H8    S    
C4    C42   S    
O8    Zn1   S    
C30   H14   S    
C33   C35   S    
C6    H5    S    
C18   C33   S    
C3    C11   S    
C10   C11   S    
C33   H27   S    
C4    O7    A    
C2    C40   A    
C35   H25   S    
C8    C16   S    
C13   N1    A    
C27   C28   S    
C14   C15   A    
C36   O12   D    
C18   C31   S    
C39   O3    D    
O6    Zn1   S    
C4    O6    A    
C38   H29   S    
