data_mof_unit_29551.cif
_audit_creation_date              2012-12-11T18:22:25-0500
_audit_creation_method            fapswitch 2.2
_symmetry_space_group_name_H-M    P1
_symmetry_Int_Tables_number       1
_space_group_crystal_system       triclinic
_cell_length_a                    8.267328
_cell_length_b                    14.371226
_cell_length_c                    14.982929
_cell_angle_alpha                 95.851654
_cell_angle_beta                  97.733146
_cell_angle_gamma                 91.684057
_cell_volume                      1753.08656139

loop_
_atom_site_label
_atom_site_type_symbol
_atom_type_description
_atom_site_fract_x
_atom_site_fract_y
_atom_site_fract_z
_atom_type_partial_charge
Ba1   Ba    Ba6+2 0.833400 0.543310 0.453520 1.727364
Ba2   Ba    Ba6+2 0.356420 0.456770 0.546480 1.697406
C1    C     C_3   0.609297 0.880838 0.208132 -0.336065
C2    C     C_R   0.896941 0.456718 0.927025 -0.035839
C3    C     C_R   0.047400 0.459649 0.110895 -0.132517
C4    C     C_3   0.013028 0.745506 0.193921 0.676321
C5    C     C_R   0.902489 0.405720 0.077979 0.352355
C6    C     C_R   0.815694 0.418318 0.993157 0.333812
C7    C     C_R   0.116242 0.469353 0.204415 0.039623
C8    C     C_R   0.266368 0.519179 0.230346 0.113035
C9    C     C_R   0.072324 0.531124 0.795900 0.085368
C10   C     C_R   0.138898 0.541158 0.889648 -0.017201
C11   C     C_R   0.054581 0.500351 0.954356 -0.039821
C12   C     C_3   0.526145 0.783772 0.198904 0.250447
C13   C     C_R   0.287054 0.591074 0.921083 -0.005942
C14   C     C_R   0.356746 0.596686 0.011529 -0.059093
C15   C     C_R   0.279668 0.554121 0.075644 -0.046663
C16   C     C_3   0.955790 0.770338 0.098071 -0.321940
C17   C     C_R   0.126183 0.505777 0.047388 -0.060833
C18   C     C_R   0.351458 0.558971 0.167277 0.030276
C19   C     C_R   0.919462 0.484903 0.770617 -0.203277
C20   C     C_R   0.704619 0.941621 0.554218 0.408656
C21   C     C_R   0.512895 0.801296 0.497194 0.069396
C22   C     C_R   0.359875 0.768523 0.450837 -0.280319
C23   C     C_3   0.456572 0.312555 0.274808 0.346366
C24   C     C_R   0.249590 0.828869 0.410650 0.029876
C25   C     C_R   0.297706 0.922245 0.408992 -0.138458
C26   C     C_R   0.452010 0.957481 0.452610 -0.054589
C27   C     C_R   0.559602 0.898876 0.501329 -0.047911
C28   C     C_3   0.212327 0.742504 0.640787 0.389494
C29   C     C_R   0.642696 0.092723 0.498317 -0.068570
C30   C     C_R   0.750730 0.035831 0.547477 -0.047346
C31   C     C_R   0.686232 0.188892 0.498973 0.016141
C32   C     C_R   0.834986 0.225954 0.546868 -0.257980
C33   C     C_R   0.947512 0.167919 0.587875 0.048642
C34   C     C_3   0.419623 0.284658 0.172847 0.227101
C35   C     C_R   0.905854 0.073614 0.588600 -0.159811
C36   C     C_R   0.494442 0.052433 0.451396 -0.052205
C37   C     C_3   0.225748 0.849092 0.658885 0.214644
C38   C     C_3   0.982898 0.257271 0.359798 0.321869
C39   C     C_3   0.970821 0.150926 0.341271 -0.374242
C40   C     C_3   0.717652 0.688021 0.732256 0.703269
C41   C     C_3   0.661111 0.709669 0.825290 0.594836
C42   C     C_3   0.176428 0.265001 0.808032 0.640027
C43   C     C_3   0.249277 0.249802 0.904631 -0.248789
C44   C     C_3   0.621945 0.212147 0.748516 0.335585
C45   C     C_3   0.636781 0.115204 0.781585 0.258485
C46   C     C_R   0.828879 0.450961 0.834236 0.150223
H1    H     H_    0.478485 0.776587 0.264032 0.047682
H2    H     H_    0.696848 0.892175 0.271563 0.157270
H3    H     H_    0.525885 0.706697 0.814529 0.060038
H4    H     H_    0.428225 0.779697 0.140113 0.066556
H5    H     H_    0.515860 0.934566 0.211835 0.080531
H6    H     H_    0.341534 0.332429 0.300825 0.020492
H7    H     H_    0.382422 0.346689 0.137383 -0.086728
H8    H     H_    0.531917 0.259090 0.147315 0.112290
H9    H     H_    0.673436 0.890038 0.148955 0.145730
H10   H     H_    0.226936 0.333540 0.793984 0.073822
H11   H     H_    0.384248 0.251172 0.911778 0.179847
H12   H     H_    0.225549 0.881107 0.594328 -0.058716
H13   H     H_    0.205136 0.181143 0.922204 0.132111
H14   H     H_    0.730902 0.227482 0.716004 -0.058536
H15   H     H_    0.513148 0.211517 0.696916 0.079915
H16   H     H_    0.658102 0.063022 0.724767 -0.054136
H17   H     H_    0.963346 0.673912 0.199470 0.075069
H18   H     H_    0.350979 0.626843 0.876214 0.085846
H19   H     H_    0.867751 0.477531 0.699862 0.045849
H20   H     H_    0.320680 0.696751 0.453091 0.045155
H21   H     H_    0.212265 0.968162 0.376260 0.071505
H22   H     H_    0.996951 0.030089 0.619981 0.092519
H23   H     H_    0.117416 0.873960 0.689167 0.102957
H24   H     H_    0.867739 0.299516 0.547492 0.055369
H25   H     H_    0.409364 0.094446 0.413502 0.110296
H26   H     H_    0.821358 0.764507 0.081561 0.129895
H27   H     H_    0.997685 0.843032 0.090995 0.110595
H28   H     H_    0.322999 0.716491 0.614823 -0.071081
H29   H     H_    0.103685 0.722991 0.589598 0.022359
H30   H     H_    0.453021 0.892927 0.683501 0.310384
H31   H     H_    0.921282 0.762440 0.751769 0.317041
H32   H     H_    0.828903 0.797992 0.892835 0.312967
H33   H     H_    0.674643 0.659061 0.940701 0.298911
H34   H     H_    0.869219 0.282607 0.382718 -0.020063
H35   H     H_    0.544992 0.373723 0.286346 0.041767
H36   H     H_    0.191258 0.243602 0.150845 0.319762
H37   H     H_    0.007478 0.721607 0.047880 0.099438
H38   H     H_    0.966892 0.205524 0.814191 0.278504
H39   H     H_    0.212707 0.306179 0.953382 0.062034
H40   H     H_    0.743181 0.115811 0.835335 0.086594
H41   H     H_    0.416745 0.060893 0.765952 0.346090
H42   H     H_    0.782161 0.288749 0.084318 0.300626
H43   H     H_    0.605828 0.393616 0.034484 0.304072
H44   H     H_    0.471776 0.635561 0.030649 0.065837
H45   H     H_    0.087868 0.277309 0.413226 0.061726
H46   H     H_    0.281722 0.574049 0.350582 0.305026
H47   H     H_    0.218847 0.813130 0.213377 0.270319
H48   H     H_    0.826316 0.934976 0.672858 0.283386
H49   H     H_    0.859752 0.128476 0.292579 0.135779
H50   H     H_    0.964280 0.118517 0.404683 0.055484
H51   H     H_    0.080420 0.125625 0.312320 0.135369
H52   H     H_    0.673879 0.615523 0.704840 -0.035661
O1    O     O_2   0.841230 0.444160 0.280430 -0.421652
O2    O     O_2   0.279267 0.168802 0.578350 -0.509455
O3    O     O_3   0.218741 0.191728 0.746319 -0.612814
O4    O     O_3   0.112860 0.447350 0.393710 -0.487494
O5    O     O_3   0.560610 0.613730 0.540770 -0.494794
O6    O     O_2   0.387460 0.270290 0.467210 -0.467939
O7    O     O_3   0.523411 0.236952 0.317169 -0.642459
O8    O     O_2   0.485851 0.445195 0.824284 -0.451836
O9    O     O_3   0.608103 0.279067 0.821945 -0.563934
O10   O     O_3   0.597940 0.615700 0.327690 -0.417681
O11   O     O_2   0.685296 0.538064 0.175332 -0.493123
O12   O     O_3   0.653552 0.754398 0.676995 -0.632367
O13   O     O_3   0.004351 0.294121 0.279335 -0.588831
O14   O     O_3   0.635735 0.714541 0.180179 -0.607098
O15   O     O_2   0.802240 0.729740 0.532850 -0.411838
O16   O     O_3   0.017180 0.664790 0.371080 -0.502485
O17   O     O_2   0.918631 0.831372 0.429324 -0.472793
O18   O     O_3   0.366268 0.877563 0.720031 -0.679413
O19   O     O_3   0.887530 0.694871 0.741720 -0.769483
O20   O     O_3   0.713871 0.800661 0.864189 -0.704937
O21   O     O_3   0.717562 0.642823 0.882719 -0.797928
O22   O     O_3   0.297523 0.212904 0.153590 -0.698207
O23   O     O_3   0.958554 0.811053 0.258926 -0.606846
O24   O     O_3   0.006624 0.268544 0.803272 -0.814408
O25   O     O_3   0.496373 0.089394 0.817676 -0.658960
O26   O     O_3   0.847849 0.337676 0.126533 -0.716436
O27   O     O_3   0.650806 0.394342 0.976434 -0.708919
O28   O     O_3   0.337150 0.523500 0.318539 -0.721187
O29   O     O_3   0.182883 0.745876 0.206049 -0.835421
O30   O     O_3   0.797683 0.893366 0.615563 -0.714991
O31   O     O_2   0.348480 0.555870 0.719620 -0.500841
O32   O     O_3   0.076830 0.552730 0.606300 -0.494896
O33   O     O_3   0.591760 0.384380 0.672320 -0.507257
O34   O     O_3   0.197393 0.705516 0.722146 -0.598993
O35   O     O_3   0.629090 0.386350 0.459240 -0.467164
O36   O     O_3   0.172520 0.335290 0.628920 -0.489923
P1    P     P_3+3 0.018600 0.416790 0.295970 1.068604
P2    P     P_3+3 0.635660 0.716530 0.560900 1.061851
P3    P     P_3+3 0.037213 0.785524 0.368372 0.974046
P4    P     P_3+3 0.171090 0.583290 0.704030 1.027417
P5    P     P_3+3 0.153705 0.215175 0.634543 0.952727
P6    P     P_3+3 0.563320 0.607667 0.209532 0.999747
P7    P     P_3+3 0.559797 0.268841 0.434341 0.946841
P8    P     P_3+3 0.628258 0.392037 0.788819 1.052472

loop_
_geom_bond_atom_site_label_1
_geom_bond_atom_site_label_2
_ccdc_geom_bond_type
H32   O20   S    
C16   H27   S    
C20   C27   A    
C32   H24   S    
C21   P2    S    
C38   H45   S    
C2    C6    A    
Ba1   O32   S    
O6    P7    D    
H41   O25   S    
C31   P7    S    
C24   C25   A    
C20   C30   A    
C44   H14   S    
C21   C27   A    
C26   C27   A    
H30   O18   S    
C22   C24   A    
C32   C33   A    
C40   H52   S    
O34   P4    S    
C40   O19   S    
C12   H1    S    
H36   O22   S    
C13   C14   A    
O23   P3    S    
C15   C18   A    
O4    P1    S    
C46   P8    S    
Ba1   Ba2   S    
C2    C11   A    
O10   P6    S    
C40   O12   S    
O31   P4    D    
O11   P6    D    
O5    P2    S    
C28   H29   S    
C7    P1    S    
C42   O3    S    
C4    H17   S    
C12   H4    S    
C29   C30   A    
C42   H10   S    
C14   C15   A    
C28   O34   S    
H31   O19   S    
Ba2   O32   S    
C21   C22   A    
C39   H51   S    
O2    P5    D    
C26   C36   A    
C7    C8    A    
C41   O21   S    
C25   H21   S    
C41   O20   S    
O16   P3    S    
O35   P7    S    
C16   H26   S    
C35   H22   S    
C19   H19   S    
O17   P3    D    
C4    O23   S    
C4    O29   S    
C8    O28   S    
O3    P5    S    
C1    H2    S    
C45   O25   S    
C4    C16   S    
Ba2   O33   S    
Ba2   O31   S    
C11   C17   A    
C16   H37   S    
C18   P6    S    
C5    C6    A    
C23   H6    S    
C24   P3    S    
C8    C18   A    
C45   H16   S    
C3    C5    A    
O1    P1    D    
C12   O14   S    
C13   H18   S    
Ba2   O6    S    
Ba2   O36   S    
H33   O21   S    
C34   O22   S    
C9    P4    S    
C3    C7    A    
O36   P5    S    
C34   H8    S    
O12   P2    S    
Ba1   O10   S    
C38   H34   S    
C28   H28   S    
C6    O27   S    
C38   O13   S    
O15   P2    D    
Ba2   O4    S    
C29   C31   A    
C31   C32   A    
H42   O26   S    
C30   C35   A    
Ba1   O4    S    
C1    C12   S    
H43   O27   S    
C33   P5    S    
C1    H9    S    
C38   C39   S    
Ba1   O16   S    
C14   H44   S    
C10   C13   A    
H38   O24   S    
O13   P1    S    
C40   C41   S    
O7    P7    S    
Ba1   O1    S    
O8    P8    D    
Ba1   P1    S    
C42   C43   S    
C23   O7    S    
H48   O30   S    
C2    C46   A    
C33   C35   A    
O14   P6    S    
C44   C45   S    
C43   H11   S    
O33   P8    S    
C43   H39   S    
C9    C10   A    
C3    C17   A    
H46   O28   S    
O32   P4    S    
C37   O18   S    
Ba2   O5    S    
Ba2   O35   S    
C29   C36   A    
C44   H15   S    
Ba2   P4    S    
C45   H40   S    
C19   C46   A    
C34   H7    S    
C23   H35   S    
C1    H5    S    
C41   H3    S    
C37   H12   S    
C43   H13   S    
C15   C17   A    
C9    C19   A    
C28   C37   S    
O9    P8    S    
C39   H49   S    
C5    O26   S    
C22   H20   S    
C23   C34   S    
C10   C11   A    
C44   O9    S    
C42   O24   S    
C25   C26   A    
H47   O29   S    
C37   H23   S    
C39   H50   S    
Ba1   O15   S    
Ba1   O35   S    
C20   O30   S    
Ba1   P2    S    
Ba1   O5    S    
C36   H25   S    
