data_mof_unit_13254.cif
_audit_creation_date              2012-12-10T17:37:49-0500
_audit_creation_method            fapswitch 2.2
_symmetry_space_group_name_H-M    P1
_symmetry_Int_Tables_number       1
_space_group_crystal_system       triclinic
_cell_length_a                    12.323065
_cell_length_b                    13.211924
_cell_length_c                    17.330873
_cell_angle_alpha                 105.252853
_cell_angle_beta                  74.689405
_cell_angle_gamma                 116.706695
_cell_volume                      2396.79438493

loop_
_atom_site_label
_atom_site_type_symbol
_atom_type_description
_atom_site_fract_x
_atom_site_fract_y
_atom_site_fract_z
_atom_type_partial_charge
C1    C     C_R   0.144500 0.713615 0.507683 0.776352
C2    C     C_R   0.860440 0.441943 0.784700 0.077791
C3    C     C_R   0.966010 0.554715 0.161517 -0.152805
C4    C     C_R   0.955523 0.548679 0.241945 -0.207351
C5    C     C_R   0.104675 0.463720 0.202636 -0.200303
C6    C     C_R   0.114462 0.469023 0.121851 -0.171990
C7    C     C_R   0.043581 0.512548 0.100752 0.191743
C8    C     C_2   0.957781 0.505685 0.986180 -0.223392
C9    C     C_2   0.052562 0.513630 0.014998 -0.231931
C10   C     C_R   0.024075 0.502462 0.263006 -0.026506
C11   C     C_R   0.733026 0.976484 0.390822 -0.193555
C12   C     C_R   0.985275 0.500399 0.651534 0.779383
C13   C     C_R   0.774659 0.164838 0.471942 -0.046879
C14   C     C_R   0.179646 0.915562 0.564652 -0.189808
C15   C     C_R   0.257491 0.030452 0.582570 -0.147206
C16   C     C_R   0.383259 0.067659 0.553487 -0.185291
C17   C     C_R   0.433680 0.990426 0.502608 0.079981
C18   C     C_R   0.351796 0.875999 0.477126 0.081072
C19   C     C_R   0.562453 0.023198 0.475423 0.076258
C20   C     C_R   0.606212 0.945111 0.418177 0.166868
C21   C     C_R   0.522975 0.837810 0.387108 -0.242054
C22   C     C_R   0.397640 0.804437 0.414996 -0.198238
C23   C     C_R   0.855950 0.286378 0.488273 0.789174
C24   C     C_R   0.649469 0.131346 0.503541 -0.258482
C25   C     C_R   0.817005 0.086340 0.417148 -0.193221
C26   C     C_R   0.225838 0.836772 0.513895 -0.102567
C27   C     C_R   0.640532 0.672757 0.631016 -0.302891
C28   C     C_R   0.250278 0.352213 0.389510 0.071586
C29   C     C_R   0.348787 0.319715 0.365850 -0.257466
C30   C     C_R   0.448308 0.375127 0.407525 -0.192153
C31   C     C_R   0.450569 0.464379 0.473881 -0.006707
C32   C     C_R   0.347108 0.494521 0.496031 0.292083
C33   C     C_R   0.550890 0.524575 0.519114 -0.036562
C34   C     C_R   0.013499 0.497957 0.348001 0.785046
C35   C     C_R   0.544822 0.612549 0.585472 0.180744
C36   C     C_R   0.443419 0.640300 0.606098 -0.289303
C37   C     C_R   0.347123 0.582838 0.562407 -0.181195
C38   C     C_R   0.657883 0.502033 0.501726 0.008264
C39   C     C_R   0.742767 0.646440 0.610756 0.068570
C40   C     C_R   0.975162 0.498272 0.736518 -0.040805
C41   C     C_R   0.082726 0.556843 0.770530 -0.238379
C42   C     C_R   0.077906 0.561146 0.851962 -0.147774
C43   C     C_R   0.965299 0.504952 0.900315 0.160745
C44   C     C_R   0.857063 0.447296 0.866895 -0.196784
Cu1   Cu    Cu3+1 0.900140 0.524980 0.518800 0.927041
Cu2   Cu    Cu3+1 0.099860 0.475020 0.481200 0.923708
H1    H     H_    0.170454 0.601492 0.734281 0.139163
H2    H     H_    0.175822 0.437479 0.075676 0.122337
H3    H     H_    0.914006 0.111405 0.392019 0.146675
H4    H     H_    0.554832 0.779358 0.340755 0.143654
H5    H     H_    0.766866 0.917268 0.347089 0.131567
H6    H     H_    0.622623 0.192678 0.549255 0.141931
H7    H     H_    0.083403 0.887831 0.592463 0.150728
H8    H     H_    0.437660 0.157893 0.570663 0.129800
H9    H     H_    0.220677 0.090621 0.621441 0.143079
H10   H     H_    0.337439 0.722812 0.385455 0.175731
H11   H     H_    0.816976 0.692683 0.645630 0.116718
H12   H     H_    0.894735 0.581449 0.287639 0.154881
H13   H     H_    0.438291 0.707592 0.656785 0.147090
H14   H     H_    0.636344 0.739963 0.681935 0.133528
H15   H     H_    0.173412 0.308537 0.356878 0.120661
H16   H     H_    0.521842 0.346275 0.386676 0.136522
H17   H     H_    0.347947 0.251202 0.315039 0.142785
H18   H     H_    0.274146 0.610763 0.583210 0.203424
H19   H     H_    0.159257 0.428558 0.217671 0.147017
H20   H     H_    0.136219 0.513671 0.974083 0.144480
H21   H     H_    0.770149 0.404076 0.904540 0.122532
H22   H     H_    0.869400 0.492204 0.025475 0.143202
H23   H     H_    0.162160 0.610075 0.876970 0.129463
N1    N     N_R   0.749710 0.562810 0.547300 -0.178499
N2    N     N_R   0.249640 0.437820 0.453210 -0.206159
O1    O     O_R   0.025490 0.682370 0.523640 -0.578222
O2    O     O_R   0.194150 0.640180 0.491890 -0.603938
O3    O     O_R   0.905900 0.523560 0.631310 -0.583622
O4    O     O_R   0.074570 0.481370 0.599560 -0.595471
O5    O     O_R   0.805850 0.359820 0.508110 -0.591620
O6    O     O_R   0.974510 0.317630 0.476360 -0.584535
O7    O     O_R   0.925430 0.518630 0.400440 -0.586286
O8    O     O_R   0.094100 0.476440 0.368690 -0.598080
H24   H     H_    0.670373 0.436831 0.452363 0.126486
H25   H     H_    0.914236 0.593461 0.147402 0.124021
C45   C     C_3   0.742197 0.371374 0.750067 -0.400601
C46   C     C_3   0.664787 0.441030 0.765302 -0.307889
C47   C     C_3   0.557845 0.378992 0.717875 -0.842802
H26   H     H_    0.593294 0.368379 0.651630 0.262663
H27   H     H_    0.497547 0.293146 0.735300 0.244338
H28   H     H_    0.502328 0.430366 0.731294 0.241753
H29   H     H_    0.627586 0.454940 0.831162 0.200549
H30   H     H_    0.722761 0.526588 0.746855 0.233379
H31   H     H_    0.762245 0.339515 0.684191 0.202126
H32   H     H_    0.687392 0.293050 0.778658 0.180632

loop_
_geom_bond_atom_site_label_1
_geom_bond_atom_site_label_2
_ccdc_geom_bond_type
C24   H6    S    
C38   N1    A    
C12   O3    A    
C41   C42   A    
C19   C20   A    
C18   C26   A    
C47   H28   S    
C23   O5    A    
C36   H13   S    
C29   H17   S    
Cu1   Cu2   S    
C6    H2    S    
Cu1   O5    S    
C5    C6    A    
C36   C37   A    
C47   H27   S    
C3    C7    A    
C27   H14   S    
C30   C31   A    
C11   C25   A    
C15   C16   A    
C39   H11   S    
C13   C23   S    
C9    H20   S    
C21   H4    S    
C33   C35   A    
C46   C47   S    
C2    C44   A    
C16   C17   A    
C3    H25   S    
C8    C43   S    
Cu1   O7    S    
C28   H15   S    
C46   H29   S    
C21   C22   A    
Cu1   O1    S    
C13   C25   A    
Cu2   O4    S    
C32   N2    A    
C16   H8    S    
C46   H30   S    
C11   C20   A    
C1    O1    A    
C47   H26   S    
C5    H19   S    
C27   C39   A    
C8    C9    D    
C22   H10   S    
C27   C35   A    
C42   H23   S    
C14   C26   A    
C45   H32   S    
C13   C24   A    
Cu1   O3    S    
C35   C36   A    
C15   H9    S    
C12   C40   S    
C43   C44   A    
C29   C30   A    
C34   O8    A    
C31   C32   A    
C31   C33   A    
C17   C18   A    
C41   H1    S    
C10   C34   S    
C32   C37   A    
C23   O6    A    
Cu2   N2    S    
C40   C41   A    
C8    H22   S    
C30   H16   S    
C1    C26   S    
C2    C45   S    
C28   N2    A    
C42   C43   A    
C4    C10   A    
C3    C4    A    
C37   H18   S    
C7    C9    S    
C28   C29   A    
Cu1   N1    S    
C18   C22   A    
Cu2   O6    S    
C6    C7    A    
C33   C38   A    
C45   H31   S    
C1    O2    A    
C19   C24   A    
C5    C10   A    
C34   O7    A    
Cu2   O8    S    
C38   H24   S    
C17   C19   A    
C39   N1    A    
C25   H3    S    
C11   H5    S    
C2    C40   A    
C14   H7    S    
C20   C21   A    
C45   C46   S    
C12   O4    A    
C4    H12   S    
C14   C15   A    
C44   H21   S    
Cu2   O2    S    
