data_mof_unit_8998.cif
_audit_creation_date              2012-12-11T14:29:40-0500
_audit_creation_method            fapswitch 2.2
_symmetry_space_group_name_H-M    P1
_symmetry_Int_Tables_number       1
_space_group_crystal_system       triclinic
_cell_length_a                    6.940103
_cell_length_b                    14.877993
_cell_length_c                    16.159876
_cell_angle_alpha                 90.477382
_cell_angle_beta                  89.610176
_cell_angle_gamma                 90.446861
_cell_volume                      1668.43827632

loop_
_atom_site_label
_atom_site_type_symbol
_atom_type_description
_atom_site_fract_x
_atom_site_fract_y
_atom_site_fract_z
_atom_type_partial_charge
O1    O     O_R   0.494400 0.416610 0.413880 -0.546643
O2    O     O_R   0.823920 0.406790 0.585520 -0.532479
O3    O     O_R   0.994250 0.583390 0.586120 -0.535635
C1    C     C_R   0.653683 0.385734 0.614114 0.763876
O4    O     O_R   0.824110 0.405730 0.414490 -0.544072
O5    O     O_R   0.994440 0.582310 0.413870 -0.554026
C2    C     C_R   0.654594 0.383753 0.386441 0.749931
O6    O     O_R   0.494210 0.417690 0.586130 -0.525648
O7    O     O_3   0.660810 0.557940 0.500000 -0.378252
V1    V     V_3+5 0.935650 0.489250 0.500000 1.433722
O8    O     O_R   0.324160 0.593210 0.414480 -0.540359
C3    C     C_R   0.157500 0.614649 0.386047 0.672216
O9    O     O_R   0.323970 0.594270 0.585510 -0.535998
C4    C     C_R   0.155053 0.612962 0.616383 0.732737
V2    V     V_3+5 0.435660 0.510750 0.500000 1.435395
O10   O     O_3   0.160630 0.442060 0.500000 -0.361725
C5    C     C_R   0.157856 0.562581 0.796970 -0.033798
C6    C     C_R   0.157780 0.541632 0.881121 -0.146747
C7    C     C_R   0.144333 0.608443 0.940721 -0.130708
C8    C     C_R   0.130156 0.697542 0.917589 -0.120357
C9    C     C_R   0.131591 0.722692 0.833219 0.047936
C10   C     C_R   0.144868 0.654258 0.770459 0.024537
C11   C     C_R   0.125439 0.815115 0.812064 -0.162812
C12   C     C_R   0.137901 0.840390 0.726980 0.023271
C13   C     C_R   0.130080 0.772368 0.664388 -0.002661
C14   C     C_R   0.142779 0.680181 0.685208 -0.157557
C15   C     C_R   0.160652 0.931438 0.701157 0.205294
C16   C     C_R   0.145963 0.953610 0.617189 -0.174235
C17   C     C_R   0.110600 0.887869 0.557381 0.304954
C18   C     C_R   0.111399 0.797918 0.580569 -0.223265
H1    H     H_    0.168663 0.472429 0.901071 0.115054
H2    H     H_    0.146478 0.591022 0.005550 0.116872
H3    H     H_    0.120790 0.746504 0.967261 0.109800
H4    H     H_    0.165765 0.022635 0.598092 0.134962
H5    H     H_    0.094471 0.748274 0.531842 0.104338
C19   C     C_2   0.997539 0.704968 0.279000 -0.230751
C20   C     C_2   0.161968 0.678523 0.315735 0.097096
H6    H     H_    0.861122 0.680597 0.303591 0.120572
C21   C     C_2   0.987858 0.757595 0.200381 0.324608
C22   C     C_2   0.114209 0.825141 0.184216 -0.323060
H7    H     H_    0.225122 0.842873 0.227940 0.146658
C23   C     C_2   0.771064 0.226773 0.795822 -0.146781
C24   C     C_2   0.614166 0.177396 0.814980 -0.322913
H8    H     H_    0.898402 0.221469 0.833854 0.135770
H9    H     H_    0.484082 0.182963 0.778705 0.136656
C25   C     C_2   0.786498 0.286278 0.722481 -0.142559
C26   C     C_2   0.634678 0.321529 0.683328 -0.304033
H10   H     H_    0.930692 0.303373 0.702024 0.171267
H11   H     H_    0.489778 0.306575 0.704807 0.157021
C27   C     C_2   0.786105 0.208185 0.216288 0.316864
C28   C     C_2   0.619851 0.180997 0.178644 -0.336941
H12   H     H_    0.483343 0.210333 0.196356 0.092591
C29   C     C_2   0.792242 0.279304 0.282252 -0.211217
C30   C     C_2   0.637705 0.314848 0.320533 -0.348971
H13   H     H_    0.934608 0.301753 0.301409 0.143898
H14   H     H_    0.493118 0.293497 0.304536 0.130526
O11   O     O_R   0.770210 0.079270 0.910680 -0.543987
O12   O     O_R   0.440150 0.091160 0.082270 -0.551676
O13   O     O_R   0.269970 0.914530 0.082860 -0.546606
C31   C     C_R   0.609724 0.112733 0.111077 0.754400
O14   O     O_R   0.440480 0.090100 0.911240 -0.540835
O15   O     O_R   0.270310 0.913460 0.910610 -0.528212
C32   C     C_R   0.609646 0.112457 0.883795 0.734442
O16   O     O_R   0.769870 0.080340 0.082930 -0.509879
O17   O     O_3   0.603660 0.938980 0.996790 -0.372013
V3    V     V_3+5 0.328750 0.007610 0.996740 1.426428
O18   O     O_R   0.940600 0.902510 0.911180 -0.542995
C33   C     C_R   0.109922 0.883921 0.880003 0.781386
O19   O     O_R   0.940270 0.903570 0.082200 -0.533073
C34   C     C_R   0.107632 0.882804 0.110669 0.736823
V4    V     V_3+5 0.828770 0.986010 0.996670 1.450866
O20   O     O_3   0.103730 0.054750 0.996710 -0.366906
N1    N     N_2   0.085876 0.911544 0.472811 -0.523302
H15   H     H_    0.092143 0.858124 0.431811 0.248106
C35   C     C_3   0.923807 0.969356 0.456767 -0.558813
H16   H     H_    0.914471 0.982015 0.389347 0.188918
H17   H     H_    0.941430 0.035110 0.488895 0.202046
H18   H     H_    0.787466 0.936533 0.477383 0.200071
N2    N     N_2   0.344839 0.701731 0.280561 -0.507990
H19   H     H_    0.419865 0.646561 0.259349 0.253897
C36   C     C_3   0.463486 0.761504 0.330465 -0.567314
H20   H     H_    0.579199 0.790791 0.291224 0.189392
H21   H     H_    0.532033 0.724691 0.381785 0.209973
H22   H     H_    0.377143 0.817657 0.356430 0.195912
N3    N     N_2   0.836199 0.738745 0.143351 -0.503587
H23   H     H_    0.717619 0.779315 0.151246 0.264029
C37   C     C_3   0.788196 0.645085 0.129208 -0.545129
H24   H     H_    0.693020 0.639065 0.074471 0.204577
H25   H     H_    0.711272 0.616789 0.183571 0.177004
H26   H     H_    0.920676 0.605689 0.117006 0.197164
N4    N     N_2   0.966431 0.170690 0.191773 -0.482224
H27   H     H_    0.075673 0.217843 0.187149 0.234713
C38   C     C_3   0.023633 0.094147 0.240171 -0.509595
H28   H     H_    0.158941 0.065858 0.214219 0.186684
H29   H     H_    0.910658 0.040842 0.238193 0.184643
H30   H     H_    0.049312 0.114925 0.305423 0.175378
C39   C     C_1   0.172979 0.486342 0.741942 0.241315
N5    N     N_1   0.185284 0.424533 0.698534 -0.365712
N6    N     N_2   0.221615 0.999454 0.757369 -0.522225
H31   H     H_    0.364394 0.017225 0.749431 0.249046
C40   C     C_3   0.096648 0.076171 0.764149 -0.526827
H32   H     H_    0.132886 0.114163 0.821247 0.209587
H33   H     H_    0.943800 0.053861 0.767825 0.209415
H34   H     H_    0.116901 0.121352 0.710368 0.168463

loop_
_geom_bond_atom_site_label_1
_geom_bond_atom_site_label_2
_ccdc_geom_bond_type
C37   H24   S    
C38   H28   S    
N1    H15   S    
C7    C8    A    
C12   C15   A    
C1    O6    A    
C36   H20   S    
C24   C32   S    
C26   H11   S    
N3    H23   S    
C20   N2    S    
C15   N6    S    
C40   H32   S    
C22   C34   S    
C18   H5    S    
C19   C20   D    
O13   V3    S    
O5    C3    A    
C17   N1    S    
O12   C31   A    
V2    O10   S    
C39   N5    T    
O14   C32   A    
C6    C7    A    
C23   C25   S    
O16   V4    S    
C3    C20   S    
O19   V4    S    
C40   H34   S    
O8    V2    S    
O14   V3    S    
O12   V3    S    
V3    O20   S    
C11   C12   A    
O1    V2    S    
O7    V1    S    
N3    C37   S    
C16   H4    S    
C38   H29   S    
C9    C10   A    
N1    C35   S    
C23   H8    S    
C7    H2    S    
C36   H21   S    
O11   C32   A    
C25   H10   S    
C29   H13   S    
C30   H14   S    
C27   C29   S    
O15   V3    S    
C28   H12   S    
C12   C13   A    
C21   C22   D    
N2    C36   S    
C27   C28   D    
C13   C14   A    
O17   V4    S    
O11   V4    S    
O18   C33   A    
C11   C33   S    
O2    C1    A    
C35   H16   S    
C17   C18   A    
N4    C38   S    
C35   H17   S    
N6    H31   S    
C5    C6    A    
C4    C14   S    
C24   H9    S    
O3    C4    A    
C8    H3    S    
C22   H7    S    
N6    C40   S    
C38   H30   S    
C9    C11   A    
C23   C24   D    
C21   N3    S    
O2    V1    S    
N4    H27   S    
C36   H22   S    
O4    C2    A    
C13   C18   A    
C25   C26   D    
C16   C17   A    
O1    C2    A    
C19   C21   S    
O5    V1    S    
O8    C3    A    
C29   C30   D    
C28   C31   S    
O6    V2    S    
C5    C10   A    
O15   C33   A    
C31   O16   A    
O9    V2    S    
O7    V2    S    
O4    V1    S    
O3    V1    S    
V1    O10   S    
C19   H6    S    
O18   V4    S    
O19   C34   A    
C35   H18   S    
O13   C34   A    
N2    H19   S    
C27   N4    S    
V4    O20   S    
C8    C9    A    
C40   H33   S    
O17   V3    S    
C10   C14   A    
C37   H26   S    
C15   C16   A    
C37   H25   S    
C6    H1    S    
C2    C30   S    
O9    C4    A    
C5    C39   S    
C1    C26   S    
