data_mof_unit_19000.cif
_audit_creation_date              2012-12-10T20:42:38-0500
_audit_creation_method            fapswitch 2.2
_symmetry_space_group_name_H-M    P1
_symmetry_Int_Tables_number       1
_space_group_crystal_system       triclinic
_cell_length_a                    8.903261
_cell_length_b                    10.695796
_cell_length_c                    9.892108
_cell_angle_alpha                 88.62094
_cell_angle_beta                  89.762742
_cell_angle_gamma                 90.350846
_cell_volume                      941.701184472

loop_
_atom_site_label
_atom_site_type_symbol
_atom_type_description
_atom_site_fract_x
_atom_site_fract_y
_atom_site_fract_z
_atom_type_partial_charge
C1    C     C_R   0.496533 0.260312 0.500858 0.905060
C2    C     C_R   0.606953 0.940223 0.410542 -0.021313
C3    C     C_R   0.504144 0.871086 0.492867 -0.107943
C4    C     C_R   0.386587 0.932000 0.555304 -0.051628
C5    C     C_3   0.303663 0.916688 0.686516 -0.271201
C6    C     C_3   0.295906 0.059909 0.685484 -0.280596
C7    C     C_R   0.402320 0.425679 0.074152 0.162645
C8    C     C_R   0.589333 0.579819 0.069404 -0.099569
C9    C     C_R   0.590236 0.579096 0.925647 -0.060695
C10   C     C_R   0.399845 0.427495 0.931539 0.235120
C11   C     C_3   0.389270 0.288699 0.929524 -0.560975
C12   C     C_R   0.218831 0.501663 0.500069 0.977718
C13   C     C_3   0.400292 0.286284 0.082421 -0.240742
C14   C     C_R   0.503630 0.739369 0.498355 0.909277
C15   C     C_R   0.781221 0.500667 0.499809 0.964050
C16   C     C_1   0.065466 0.503165 0.499973 -0.154517
C17   C     C_1   0.934601 0.502672 0.499567 -0.179647
C18   C     C_R   0.378803 0.058824 0.553602 0.080193
C19   C     C_R   0.496687 0.128402 0.497928 -0.056799
C20   C     C_R   0.601561 0.070367 0.414248 -0.281357
H1    H     H_    0.683490 0.126325 0.357895 0.164971
H2    H     H_    0.489059 0.246883 0.880616 0.226961
H3    H     H_    0.509837 0.249283 0.119276 0.187838
H4    H     H_    0.194140 0.867814 0.673297 0.175510
H5    H     H_    0.363344 0.103544 0.764548 0.154783
H6    H     H_    0.663432 0.642868 0.121556 0.166648
H7    H     H_    0.665408 0.641194 0.869653 0.155026
H8    H     H_    0.277775 0.259082 0.891116 0.211342
N1    N     N_R   0.499010 0.499140 0.142800 -0.120471
N2    N     N_R   0.499010 0.499180 0.857150 -0.103077
O1    O     O_R   0.500020 0.316790 0.614690 -0.617336
O2    O     O_R   0.500000 0.316760 0.385350 -0.635429
O3    O     O_R   0.285350 0.500020 0.614650 -0.594300
O4    O     O_R   0.285340 0.499980 0.385310 -0.627127
O5    O     O_R   0.500000 0.683240 0.614650 -0.610843
O6    O     O_R   0.499980 0.683210 0.385310 -0.613612
O7    O     O_R   0.714660 0.500020 0.614690 -0.621349
O8    O     O_R   0.714650 0.499980 0.385350 -0.609155
Zn1   Zn    Zn3+2 0.500010 0.500020 0.653130 0.992822
Zn2   Zn    Zn3+2 0.499990 0.499980 0.346870 0.968872
C21   C     C_R   0.267183 0.226362 0.155131 0.183622
C22   C     C_R   0.276621 0.099373 0.193870 -0.137183
C23   C     C_R   0.162609 0.042299 0.271196 -0.125233
C24   C     C_R   0.037902 0.111296 0.310274 -0.041844
C25   C     C_R   0.024729 0.236491 0.269003 -0.130273
C26   C     C_R   0.138519 0.294149 0.191664 -0.091523
H9    H     H_    0.374209 0.045214 0.166824 0.158860
H10   H     H_    0.172216 0.945094 0.302814 0.149213
H11   H     H_    0.952096 0.067943 0.373495 0.147086
H12   H     H_    0.927144 0.289330 0.298501 0.132916
H13   H     H_    0.126479 0.391712 0.162536 0.137293
C27   C     C_2   0.725486 0.881922 0.327468 0.873802
O9    O     O_2   0.789369 0.787476 0.368051 -0.644702
O10   O     O_R   0.766473 0.937439 0.203196 -0.817173
H14   H     H_    0.849133 0.890159 0.156035 0.349581
C28   C     C_2   0.395400 0.865539 0.802843 0.993129
O11   O     O_2   0.340581 0.785991 0.879197 -0.633668
O12   O     O_R   0.541191 0.910113 0.824549 -0.784054
H15   H     H_    0.589281 0.870419 0.907641 0.342023
C29   C     C_2   0.139573 0.111594 0.672032 0.913603
O13   O     O_2   0.033312 0.057363 0.726545 -0.605028
O14   O     O_R   0.117282 0.224226 0.601042 -0.819814
H16   H     H_    0.007627 0.249126 0.599091 0.330211

loop_
_geom_bond_atom_site_label_1
_geom_bond_atom_site_label_2
_ccdc_geom_bond_type
C24   H11   S    
C8    C9    A    
C7    C10   A    
O5    Zn1   S    
C23   C24   A    
C15   O8    A    
C15   C17   S    
O14   H16   S    
C7    N1    A    
C8    H6    S    
C23   H10   S    
C10   N2    A    
C5    C28   S    
C19   C20   A    
O1    Zn1   S    
C7    C13   S    
C21   C26   A    
C4    C18   A    
C13   C21   S    
C2    C3    A    
O12   H15   S    
C10   C11   S    
O7    Zn1   S    
C25   C26   A    
C20   H1    S    
O8    Zn2   S    
C11   C13   S    
C13   H3    S    
O3    Zn1   S    
C3    C14   S    
C2    C27   S    
C9    N2    A    
O4    Zn2   S    
C8    N1    A    
C11   H8    S    
N1    Zn2   S    
C27   O10   S    
N2    Zn1   S    
C22   H9    S    
O2    Zn2   S    
C14   O6    A    
C5    C6    S    
C6    C18   S    
C1    C19   S    
C6    H5    S    
C16   C17   T    
C22   C23   A    
C2    C20   A    
C3    C4    A    
C6    C29   S    
C5    H4    S    
C1    O1    A    
C27   O9    D    
C9    H7    S    
C29   O14   S    
C18   C19   A    
C21   C22   A    
C14   O5    A    
C28   O11   D    
O10   H14   S    
C4    C5    S    
O6    Zn2   S    
C25   H12   S    
C11   H2    S    
C12   O3    A    
C12   O4    A    
C26   H13   S    
C1    O2    A    
C15   O7    A    
C24   C25   A    
C12   C16   S    
C28   O12   S    
C29   O13   D    
