data_mof_unit_31288.cif
_audit_creation_date              2012-12-10T17:35:03-0500
_audit_creation_method            fapswitch 2.2
_symmetry_space_group_name_H-M    P1
_symmetry_Int_Tables_number       1
_space_group_crystal_system       triclinic
_cell_length_a                    12.493156
_cell_length_b                    13.214203
_cell_length_c                    13.817161
_cell_angle_alpha                 107.3236
_cell_angle_beta                  73.897887
_cell_angle_gamma                 116.881344
_cell_volume                      1914.79025728

loop_
_atom_site_label
_atom_site_type_symbol
_atom_type_description
_atom_site_fract_x
_atom_site_fract_y
_atom_site_fract_z
_atom_type_partial_charge
C1    C     C_R   0.143727 0.713861 0.513031 0.797752
C2    C     C_1   0.972684 0.507057 0.792168 -0.156367
C3    C     C_R   0.726318 0.970754 0.382396 -0.109882
C4    C     C_R   0.773950 0.163377 0.484081 -0.051782
C5    C     C_R   0.184119 0.902365 0.629663 -0.139519
C6    C     C_R   0.266866 0.997193 0.684564 -0.136381
C7    C     C_R   0.390891 0.029829 0.649062 -0.153841
C8    C     C_R   0.436260 0.977916 0.550875 0.083587
C9    C     C_R   0.350852 0.877241 0.497463 0.028727
C10   C     C_R   0.563114 0.017449 0.506314 -0.039972
C11   C     C_R   0.601838 0.941485 0.421010 0.031610
C12   C     C_R   0.983484 0.504004 0.686272 0.858655
C13   C     C_R   0.515484 0.840690 0.371554 0.358382
C14   C     C_R   0.392667 0.815150 0.404992 -0.236800
C15   C     C_R   0.652476 0.131098 0.537526 0.249103
C16   C     C_R   0.811439 0.080606 0.413779 -0.252750
C17   C     C_R   0.224973 0.836608 0.540308 -0.061082
C18   C     C_R   0.671723 0.709237 0.629239 0.249613
C19   C     C_R   0.233180 0.330731 0.384277 0.099268
C20   C     C_R   0.311039 0.279869 0.378136 -0.260135
C21   C     C_R   0.412369 0.341782 0.426676 -0.089268
C22   C     C_R   0.445520 0.460104 0.473315 0.018880
C23   C     C_R   0.856309 0.286489 0.489884 0.811410
C24   C     C_R   0.354665 0.504464 0.489671 0.208156
C25   C     C_R   0.557779 0.531195 0.514950 -0.141383
C26   C     C_R   0.575707 0.644488 0.571915 -0.062811
C27   C     C_R   0.492951 0.689387 0.577113 -0.155337
C28   C     C_R   0.378078 0.617123 0.554214 0.346725
C29   C     C_R   0.657327 0.499501 0.498972 0.459433
C30   C     C_R   0.751509 0.660946 0.627269 0.319036
C31   C     C_R   0.016123 0.495727 0.313722 0.819003
C32   C     C_1   0.026606 0.494948 0.208375 -0.121897
C33   C     C_2   0.037122 0.497728 0.016317 -0.204493
C34   C     C_2   0.951756 0.514050 0.988997 0.284604
C35   C     C_1   0.962691 0.510162 0.881683 -0.014036
C36   C     C_1   0.033050 0.495593 0.120362 0.020298
Cu1   Cu    Cu3+1 0.899780 0.525060 0.522890 1.019920
Cu2   Cu    Cu3+1 0.100220 0.474940 0.477110 0.995527
H1    H     H_    0.329641 0.743109 0.358883 0.185840
H2    H     H_    0.507878 0.777242 0.617991 0.235554
H3    H     H_    0.152499 0.280597 0.349043 0.127917
H4    H     H_    0.458647 0.292391 0.431538 0.193167
H5    H     H_    0.289834 0.190377 0.339570 0.155661
H6    H     H_    0.111841 0.484601 0.959057 0.156433
H7    H     H_    0.905178 0.103940 0.375385 0.159491
H8    H     H_    0.758532 0.912032 0.322062 0.198315
H9    H     H_    0.089380 0.872478 0.664323 0.148750
H10   H     H_    0.448121 0.091613 0.703140 0.164459
H11   H     H_    0.234950 0.040709 0.758889 0.149313
N1    N     N_R   0.748810 0.563010 0.557590 -0.237306
N2    N     N_R   0.250540 0.437620 0.443020 -0.197334
O1    O     O_R   0.025040 0.682470 0.528790 -0.572798
O2    O     O_R   0.194310 0.640150 0.490130 -0.544611
O3    O     O_R   0.903380 0.524130 0.659910 -0.568285
O4    O     O_R   0.072660 0.481800 0.621240 -0.516884
O5    O     O_R   0.805690 0.359850 0.509870 -0.500390
O6    O     O_R   0.974960 0.317530 0.471210 -0.617065
O7    O     O_R   0.927340 0.518200 0.378760 -0.516747
O8    O     O_R   0.096620 0.475870 0.340090 -0.586073
N3    N     N_2   0.850728 0.529762 0.062261 -0.405473
H12   H     H_    0.862878 0.560903 0.138017 0.277753
C37   C     C_3   0.780830 0.574687 0.032468 -0.600223
H13   H     H_    0.704722 0.579575 0.095754 0.267128
H14   H     H_    0.741101 0.516392 0.963207 0.222227
H15   H     H_    0.839625 0.662964 0.016812 0.219477
N4    N     N_2   0.840420 0.716925 0.692691 -0.370838
H16   H     H_    0.885780 0.804686 0.695203 0.265323
C38   C     C_3   0.795492 0.690953 0.794746 -0.603493
H17   H     H_    0.873095 0.725744 0.836457 0.215329
H18   H     H_    0.748564 0.595903 0.790718 0.225310
H19   H     H_    0.730775 0.731444 0.838650 0.253525
Cl1   Cl    Cl    0.689509 0.847129 0.708787 -0.642165
Cl2   Cl    Cl    0.680447 0.396875 0.388976 -0.606725
Cl3   Cl    Cl    0.277372 0.659008 0.657572 -0.608684
Cl4   Cl    Cl    0.556037 0.746606 0.261879 -0.648311
N5    N     N_2   0.620990 0.219487 0.610926 -0.429879
H20   H     H_    0.543076 0.227348 0.609482 0.254200
C39   C     C_3   0.666667 0.260249 0.707351 -0.633817
H21   H     H_    0.639868 0.331636 0.755521 0.218151
H22   H     H_    0.767271 0.293438 0.693515 0.212252
H23   H     H_    0.630079 0.189169 0.750026 0.229572

loop_
_geom_bond_atom_site_label_1
_geom_bond_atom_site_label_2
_ccdc_geom_bond_type
C2    C35   T    
N4    C38   S    
C19   C20   A    
C18   C26   A    
C2    C12   S    
C7    C8    A    
C5    H9    S    
C26   C27   A    
C37   H13   S    
C32   C36   T    
C31   O7    A    
N5    C39   S    
C10   C15   A    
C5    C6    A    
C39   H22   S    
C29   Cl2   S    
C33   C36   S    
C25   C29   A    
N3    C37   S    
C34   C35   S    
C31   O8    A    
C1    O2    A    
C37   H14   S    
C14   H1    S    
Cu1   O5    S    
Cu2   O4    S    
C13   Cl4   S    
C8    C9    A    
C22   C25   A    
C18   C30   A    
Cu1   O7    S    
C24   N2    A    
C15   N5    S    
C30   N1    A    
C28   Cl3   S    
C21   C22   A    
C34   N3    S    
C29   N1    A    
C18   Cl1   S    
C23   O5    A    
N5    H20   S    
Cu1   O1    S    
C39   H21   S    
C38   H17   S    
Cu2   N2    S    
C25   C26   A    
Cu2   O8    S    
N3    H12   S    
C4    C16   A    
C9    C14   A    
Cu1   Cu2   S    
Cu2   O6    S    
C31   C32   S    
C27   H2    S    
C33   C34   D    
C30   N4    S    
C23   O6    A    
Cu1   O3    S    
C9    C17   A    
C22   C24   A    
C20   H5    S    
C4    C23   S    
C37   H15   S    
C33   H6    S    
C24   C28   A    
C16   H7    S    
C6    C7    A    
C3    H8    S    
C1    C17   S    
C7    H10   S    
C4    C15   A    
Cu1   N1    S    
C11   C13   A    
C39   H23   S    
Cu2   O2    S    
C38   H19   S    
N4    H16   S    
C6    H11   S    
C1    O1    A    
C12   O4    A    
C3    C11   A    
C10   C11   A    
C21   H4    S    
C19   N2    A    
C5    C17   A    
C20   C21   A    
C8    C10   A    
C27   C28   A    
C38   H18   S    
C13   C14   A    
C12   O3    A    
C3    C16   A    
C19   H3    S    
