data_mof_unit_23889.cif
_audit_creation_date              2012-12-11T16:27:26-0500
_audit_creation_method            fapswitch 2.2
_symmetry_space_group_name_H-M    P1
_symmetry_Int_Tables_number       1
_space_group_crystal_system       triclinic
_cell_length_a                    21.645008
_cell_length_b                    6.909632
_cell_length_c                    14.778571
_cell_angle_alpha                 89.654239
_cell_angle_beta                  105.613338
_cell_angle_gamma                 89.69534
_cell_volume                      2128.6157791

loop_
_atom_site_label
_atom_site_type_symbol
_atom_type_description
_atom_site_fract_x
_atom_site_fract_y
_atom_site_fract_z
_atom_type_partial_charge
O1    O     O_R   0.835850 0.638310 0.002120 -0.537277
O2    O     O_R   0.164150 0.361690 0.997880 -0.537277
O3    O     O_R   0.664150 0.138310 0.997880 -0.537075
O4    O     O_R   0.335850 0.861690 0.002120 -0.537075
O5    O     O_R   0.717530 0.306070 0.861970 -0.542030
O6    O     O_R   0.282470 0.693930 0.138030 -0.542030
O7    O     O_R   0.782470 0.806070 0.138030 -0.542850
O8    O     O_R   0.217530 0.193930 0.861970 -0.542850
C1    C     C_R   0.705206 0.478069 0.824588 0.687700
C2    C     C_R   0.294794 0.521931 0.175412 0.687700
C3    C     C_R   0.794910 0.976143 0.175503 0.687302
C4    C     C_R   0.205090 0.023857 0.824497 0.687302
O9    O     O_R   0.838690 0.308440 0.993250 -0.540130
O10   O     O_R   0.161310 0.691560 0.006750 -0.540130
O11   O     O_R   0.661310 0.808440 0.006750 -0.539472
O12   O     O_R   0.338690 0.191560 0.993250 -0.539472
O13   O     O_R   0.786170 0.140510 0.130090 -0.539806
O14   O     O_R   0.213830 0.859490 0.869910 -0.539806
O15   O     O_R   0.713830 0.640510 0.869910 -0.540422
O16   O     O_R   0.286170 0.359490 0.130090 -0.540422
C5    C     C_R   0.865352 0.476899 0.998235 0.695430
C6    C     C_R   0.134648 0.523101 0.001765 0.695430
C7    C     C_R   0.634692 0.977729 0.001862 0.697575
C8    C     C_R   0.365308 0.022271 0.998138 0.697575
O17   O     O_3   0.732630 0.472520 0.044740 -0.367633
O18   O     O_3   0.267370 0.527480 0.955260 -0.367633
O19   O     O_3   0.767370 0.972520 0.955260 -0.367672
O20   O     O_3   0.232630 0.027480 0.044740 -0.367673
V1    V     V_3+5 0.753220 0.196740 0.991700 1.428936
V2    V     V_3+5 0.246780 0.803260 0.008300 1.428936
V3    V     V_3+5 0.746780 0.696740 0.008300 1.428375
V4    V     V_3+5 0.253220 0.303260 0.991700 1.428375
C9    C     C_R   0.533522 0.907157 0.832700 -0.153435
C10   C     C_R   0.466478 0.092843 0.167300 -0.153435
C11   C     C_R   0.963451 0.576439 0.166702 -0.152397
C12   C     C_R   0.036549 0.423561 0.833298 -0.152397
C13   C     C_R   0.485919 0.873817 0.749797 -0.122064
C14   C     C_R   0.514081 0.126183 0.250203 -0.122064
C15   C     C_R   0.009404 0.626284 0.248887 -0.124032
C16   C     C_R   0.990596 0.373715 0.751113 -0.124033
C17   C     C_R   0.421584 0.884122 0.748814 -0.123669
C18   C     C_R   0.578416 0.115877 0.251186 -0.123669
C19   C     C_R   0.073547 0.640124 0.249536 -0.125325
C20   C     C_R   0.926453 0.359875 0.750464 -0.125325
C21   C     C_R   0.404345 0.928559 0.830688 -0.140768
C22   C     C_R   0.595654 0.071441 0.169312 -0.140768
C23   C     C_R   0.092256 0.603747 0.168033 -0.144482
C24   C     C_R   0.907744 0.396253 0.831967 -0.144482
C25   C     C_R   0.451580 0.963739 0.915879 0.071620
C26   C     C_R   0.548420 0.036261 0.084121 0.071620
C27   C     C_R   0.046684 0.553351 0.083368 0.072150
C28   C     C_R   0.953316 0.446648 0.916632 0.072150
C29   C     C_R   0.517522 0.952449 0.916970 0.065119
C30   C     C_R   0.482478 0.047551 0.083030 0.065119
C31   C     C_R   0.980889 0.539606 0.082626 0.066880
C32   C     C_R   0.019111 0.460394 0.917374 0.066880
C33   C     C_R   0.434053 0.011528 0.998875 -0.183814
C34   C     C_R   0.565947 0.988472 0.001125 -0.183814
C35   C     C_R   0.065831 0.513559 0.000774 -0.185613
C36   C     C_R   0.934169 0.486441 0.999226 -0.185612
H1    H     H_    0.582873 0.897897 0.829774 0.111980
H2    H     H_    0.417127 0.102103 0.170226 0.111980
H3    H     H_    0.914303 0.565677 0.170220 0.114297
H4    H     H_    0.085697 0.434322 0.829780 0.114297
H5    H     H_    0.499065 0.840186 0.685944 0.132513
H6    H     H_    0.500935 0.159814 0.314056 0.132513
H7    H     H_    0.995160 0.653480 0.312515 0.132169
H8    H     H_    0.004840 0.346519 0.687485 0.132169
H9    H     H_    0.353686 0.935766 0.826344 0.089387
H10   H     H_    0.646314 0.064233 0.173656 0.089387
H11   H     H_    0.142807 0.614613 0.172413 0.095110
H12   H     H_    0.857193 0.385386 0.827587 0.095110
C37   C     C_R   0.177153 0.020433 0.722783 -0.034020
C38   C     C_R   0.822847 0.979567 0.277216 -0.034020
C39   C     C_R   0.322923 0.509199 0.276843 -0.031957
C40   C     C_R   0.677076 0.490801 0.723157 -0.031958
C41   C     C_R   0.186691 0.083402 0.566382 -0.165193
C42   C     C_R   0.813309 0.916599 0.433617 -0.165193
C43   C     C_R   0.312054 0.444282 0.432294 -0.164423
C44   C     C_R   0.687946 0.555716 0.567705 -0.164424
C45   C     C_R   0.214686 0.067813 0.662604 -0.176394
C46   C     C_R   0.785314 0.932187 0.337396 -0.176394
C47   C     C_R   0.284376 0.467902 0.336329 -0.177975
C48   C     C_R   0.715624 0.532097 0.663671 -0.177975
C49   C     C_R   0.111317 0.989099 0.686706 -0.225639
C50   C     C_R   0.888683 0.010901 0.313293 -0.225640
C51   C     C_R   0.389304 0.527115 0.313175 -0.224079
C52   C     C_R   0.610696 0.472886 0.686824 -0.224079
C53   C     C_R   0.081166 0.008630 0.589210 0.080042
C54   C     C_R   0.918834 0.991371 0.410790 0.080042
C55   C     C_R   0.418925 0.502283 0.410467 0.081261
C56   C     C_R   0.581075 0.497717 0.589533 0.081261
C57   C     C_R   0.120448 0.056641 0.529413 0.142321
C58   C     C_R   0.879552 0.943359 0.470586 0.142321
C59   C     C_R   0.378737 0.459463 0.469640 0.141381
C60   C     C_R   0.621263 0.540535 0.530360 0.141381
C61   C     C_R   0.013534 0.986254 0.549491 0.051182
C62   C     C_R   0.986466 0.013746 0.450509 0.051182
C63   C     C_R   0.486786 0.515886 0.450615 0.050537
C64   C     C_R   0.513214 0.484113 0.549385 0.050537
C65   C     C_R   0.027934 0.061879 0.394568 -0.197968
C66   C     C_R   0.972066 0.938121 0.605432 -0.197967
C67   C     C_R   0.470927 0.440006 0.604651 -0.198352
C68   C     C_R   0.529073 0.559993 0.395349 -0.198352
C69   C     C_R   0.093419 0.081492 0.433332 -0.209488
C70   C     C_R   0.906581 0.918509 0.566668 -0.209488
C71   C     C_R   0.405213 0.429433 0.565496 -0.207994
C72   C     C_R   0.594787 0.570565 0.434504 -0.207995
H13   H     H_    0.123204 0.118795 0.387468 0.127231
H14   H     H_    0.876795 0.881206 0.612532 0.127231
H15   H     H_    0.374768 0.395646 0.610886 0.126747
H16   H     H_    0.625232 0.604351 0.389114 0.126747
H17   H     H_    0.914934 0.043075 0.262692 0.103629
H18   H     H_    0.085066 0.956925 0.737308 0.103629
H19   H     H_    0.583851 0.443806 0.737014 0.101599
H20   H     H_    0.416149 0.556196 0.262986 0.101599
H21   H     H_    0.216696 0.120558 0.520873 0.110593
H22   H     H_    0.783304 0.879442 0.479127 0.110593
H23   H     H_    0.281332 0.411679 0.477366 0.110658
H24   H     H_    0.718668 0.588318 0.522633 0.110659
H25   H     H_    0.615193 0.141971 0.315798 0.120615
H26   H     H_    0.384807 0.858029 0.684202 0.120615
H27   H     H_    0.890924 0.321593 0.686336 0.121973
H28   H     H_    0.109076 0.678406 0.313663 0.121974
H29   H     H_    0.734491 0.904973 0.309704 0.101528
H30   H     H_    0.265509 0.095027 0.690296 0.101528
H31   H     H_    0.767001 0.547816 0.691670 0.100838
H32   H     H_    0.232999 0.452182 0.308329 0.100838
H33   H     H_    0.011513 0.086290 0.319939 0.137285
H34   H     H_    0.988487 0.913711 0.680061 0.137285
H35   H     H_    0.486836 0.412291 0.679053 0.137486
H36   H     H_    0.513164 0.587707 0.320946 0.137486

loop_
_geom_bond_atom_site_label_1
_geom_bond_atom_site_label_2
_ccdc_geom_bond_type
O17   V3    S    
C7    C34   S    
C44   H24   S    
O1    C5    A    
C51   C55   A    
C45   H30   S    
O19   V1    S    
O13   V1    S    
O3    C7    A    
O1    V3    S    
C47   H32   S    
C44   C48   A    
O15   V3    S    
C40   C48   A    
C61   C62   A    
O7    C3    A    
C26   C30   A    
C50   H17   S    
O9    V1    S    
C49   H18   S    
C42   H22   S    
C24   H12   S    
C14   C18   A    
C41   H21   S    
C70   H14   S    
O4    C8    A    
C56   C60   A    
C25   C33   A    
O17   V1    S    
O2    V4    S    
C18   C22   A    
O3    V1    S    
C12   C16   A    
C28   C36   A    
C57   C69   A    
C1    O15   A    
C58   C70   A    
C14   H6    S    
C2    O16   A    
C8    C33   S    
C43   H23   S    
C4    C37   S    
O2    C6    A    
O14   V2    S    
C1    C40   S    
C21   C25   A    
C44   C60   A    
C40   C52   A    
C16   C20   A    
C61   C66   A    
C48   H31   S    
O11   C7    A    
C63   C68   A    
C60   C72   A    
O12   C8    A    
C31   C36   A    
C65   C69   A    
C15   H7    S    
O10   V2    S    
C37   C45   A    
C54   C58   A    
O5    V1    S    
C9    C29   A    
O7    V3    S    
C21   H9    S    
C26   C34   A    
C52   C56   A    
O20   V4    S    
C5    C36   S    
C50   C54   A    
C6    C35   S    
C49   C53   A    
O18   V4    S    
C15   C19   A    
O19   V3    S    
C64   C67   A    
C9    C13   A    
C72   H16   S    
C53   C61   A    
O8    V4    S    
C17   H26   S    
C11   C15   A    
C46   H29   S    
O5    C1    A    
C12   C32   A    
C2    C39   S    
C42   C46   A    
C63   C64   A    
C41   C45   A    
O8    C4    A    
C37   C49   A    
C51   H20   S    
O9    C5    A    
C38   C50   A    
O11   V3    S    
C23   H11   S    
C11   C31   A    
C59   C71   A    
C13   H5    S    
O6    V2    S    
O18   V2    S    
C16   H8    S    
C27   C35   A    
C10   H2    S    
C68   C72   A    
C56   C64   A    
C67   C71   A    
O16   V4    S    
C39   C51   A    
C69   H13   S    
C3    O13   A    
C53   C57   A    
C10   C14   A    
C71   H15   S    
C66   H34   S    
C3    C38   S    
O6    C2    A    
C23   C27   A    
C29   C34   A    
C10   C30   A    
O12   V4    S    
C62   C65   A    
C22   C26   A    
C20   H27   S    
C32   C35   A    
O10   C6    A    
C52   H19   S    
O20   V2    S    
C43   C47   A    
C39   C47   A    
C67   H35   S    
C42   C58   A    
C25   C29   A    
C41   C57   A    
C66   C70   A    
C27   C31   A    
C13   C17   A    
O4    V2    S    
C22   H10   S    
C55   C59   A    
C28   C32   A    
C24   C28   A    
C9    H1    S    
C68   H36   S    
C4    O14   A    
C17   C21   A    
C11   H3    S    
C55   C63   A    
C12   H4    S    
C43   C59   A    
C19   C23   A    
C19   H28   S    
C54   C62   A    
C38   C46   A    
C20   C24   A    
C18   H25   S    
C30   C33   A    
C65   H33   S    
