data_mof_unit_22701.cif
_audit_creation_date              2012-12-10T18:43:41-0500
_audit_creation_method            fapswitch 2.2
_symmetry_space_group_name_H-M    P1
_symmetry_Int_Tables_number       1
_space_group_crystal_system       triclinic
_cell_length_a                    10.639408
_cell_length_b                    10.646783
_cell_length_c                    9.848125
_cell_angle_alpha                 89.730872
_cell_angle_beta                  104.257397
_cell_angle_gamma                 90.286421
_cell_volume                      1081.17059884

loop_
_atom_site_label
_atom_site_type_symbol
_atom_type_description
_atom_site_fract_x
_atom_site_fract_y
_atom_site_fract_z
_atom_type_partial_charge
C1    C     C_R   0.502619 0.260260 0.501066 0.879923
C2    C     C_R   0.497363 0.739737 0.498922 0.896013
C3    C     C_R   0.257438 0.496013 0.441120 0.899943
C4    C     C_R   0.742542 0.495567 0.558907 0.900805
C5    C     C_R   0.586650 0.572010 0.094542 -0.073079
C6    C     C_R   0.413391 0.427942 0.905468 -0.069060
C7    C     C_R   0.586634 0.571956 0.950702 -0.068766
C8    C     C_R   0.413394 0.428013 0.049304 -0.070485
C9    C     C_2   0.117809 0.477107 0.406676 0.025775
C10   C     C_2   0.881902 0.475274 0.593376 0.019842
C11   C     C_2   0.068365 0.421339 0.504752 -0.163588
C12   C     C_2   0.930630 0.421530 0.494360 -0.169051
C13   C     C_R   0.409294 0.067480 0.399559 -0.234911
C14   C     C_R   0.590719 0.932538 0.600392 -0.234454
C15   C     C_R   0.404060 0.938117 0.396202 0.192780
C16   C     C_R   0.596027 0.061900 0.603654 0.190571
C17   C     C_R   0.496382 0.872145 0.497719 -0.073985
C18   C     C_R   0.503620 0.127866 0.502237 -0.070265
H1    H     H_    0.867768 0.391463 0.395190 0.172000
H2    H     H_    0.130902 0.388821 0.603128 0.160532
H3    H     H_    0.655957 0.629623 0.167066 0.131153
H4    H     H_    0.344149 0.370258 0.832966 0.122151
H5    H     H_    0.655907 0.629505 0.914324 0.124199
H6    H     H_    0.344151 0.370432 0.085687 0.126947
H7    H     H_    0.338985 0.121801 0.323631 0.148387
H8    H     H_    0.661047 0.878222 0.676317 0.148010
N1    N     N_R   0.499970 0.499970 0.857200 -0.076625
N2    N     N_R   0.500030 0.500030 0.142800 -0.078326
O1    O     O_R   0.499990 0.316750 0.614620 -0.616061
O2    O     O_R   0.500010 0.683250 0.385380 -0.611402
O3    O     O_R   0.499990 0.316780 0.385290 -0.621476
O4    O     O_R   0.500010 0.683220 0.614710 -0.616446
O5    O     O_R   0.317810 0.500000 0.571850 -0.628734
O6    O     O_R   0.682190 0.500000 0.428150 -0.631157
O7    O     O_R   0.317810 0.500030 0.342520 -0.609552
O8    O     O_R   0.682190 0.499970 0.657480 -0.609137
Zn1   Zn    Zn3+2 0.500000 0.499980 0.653120 0.936539
Zn2   Zn    Zn3+2 0.500000 0.500020 0.346880 0.934606
C19   C     C_3   0.965993 0.517421 0.732930 -0.912502
H9    H     H_    0.907577 0.562530 0.798190 0.243981
H10   H     H_    0.016479 0.435261 0.791414 0.241858
H11   H     H_    0.039014 0.586904 0.716296 0.254265
C20   C     C_3   0.034337 0.523484 0.268497 -0.926205
H12   H     H_    0.093560 0.570246 0.204420 0.249761
H13   H     H_    0.982109 0.443226 0.207784 0.246210
H14   H     H_    0.962817 0.592779 0.287267 0.249596
C21   C     C_3   0.298430 0.873139 0.288314 -0.886170
H15   H     H_    0.244227 0.807150 0.340904 0.231184
H16   H     H_    0.227896 0.941293 0.226765 0.228459
H17   H     H_    0.341220 0.820612 0.213693 0.259946
C22   C     C_3   0.701917 0.126880 0.711224 -0.881382
H18   H     H_    0.756235 0.192451 0.658315 0.229255
H19   H     H_    0.659392 0.179834 0.785740 0.260308
H20   H     H_    0.772270 0.058694 0.772948 0.227820

loop_
_geom_bond_atom_site_label_1
_geom_bond_atom_site_label_2
_ccdc_geom_bond_type
C11   C12   S    
O3    Zn2   S    
C3    C9    S    
N2    Zn2   S    
C19   H11   S    
C5    N2    A    
C9    C11   D    
C6    N1    A    
C16   C22   S    
C3    O7    A    
C20   H12   S    
C22   H20   S    
C1    O1    A    
C5    C7    A    
C7    N1    A    
C21   H16   S    
C16   C18   A    
O4    Zn1   S    
C14   H8    S    
C2    C17   S    
C20   H13   S    
C14   C17   A    
C13   H7    S    
C1    C18   S    
C10   C12   D    
C13   C18   A    
N1    Zn1   S    
C7    H5    S    
C12   H1    S    
C2    O4    A    
O8    Zn1   S    
C8    H6    S    
C21   H17   S    
C14   C16   A    
C13   C15   A    
C8    N2    A    
C20   H14   S    
C4    O6    A    
C11   H2    S    
C9    C20   S    
C2    O2    A    
C3    O5    A    
C4    C10   S    
C22   H18   S    
C6    H4    S    
C1    O3    A    
O7    Zn2   S    
C5    H3    S    
C4    O8    A    
O2    Zn2   S    
C19   H10   S    
O1    Zn1   S    
C19   H9    S    
C15   C17   A    
C15   C21   S    
C6    C8    A    
O6    Zn2   S    
O5    Zn1   S    
C21   H15   S    
C10   C19   S    
C22   H19   S    
