data_mof_unit_33450.cif
_audit_creation_date              2012-10-26T18:47:57-0400
_audit_creation_method            fapswitch 2.2
_symmetry_space_group_name_H-M    P1
_symmetry_Int_Tables_number       1
_space_group_crystal_system       triclinic
_cell_length_a                    15.854246
_cell_length_b                    8.672298
_cell_length_c                    7.521712
_cell_angle_alpha                 102.802465
_cell_angle_beta                  95.759215
_cell_angle_gamma                 92.489474
_cell_volume                      1001.07933993

loop_
_atom_site_label
_atom_site_type_symbol
_atom_type_description
_atom_site_fract_x
_atom_site_fract_y
_atom_site_fract_z
_atom_type_partial_charge
C1    C     C_R   0.497284 0.199988 0.453446 0.535954
C2    C     C_2   0.503444 0.968018 0.572517 -0.141854
C3    C     C_R   0.340442 0.499740 0.499831 0.531172
C4    C     C_R   0.502425 0.799999 0.546545 0.542711
C5    C     C_R   0.659590 0.500203 0.500189 0.547113
C6    C     C_3   0.058129 0.439359 0.664051 -0.189003
C7    C     C_3   0.036936 0.396293 0.320441 -0.294856
C8    C     C_3   0.939227 0.401360 0.321052 -0.266582
C9    C     C_1   0.749333 0.500978 0.502203 0.036147
C10   C     C_3   0.083270 0.504688 0.498980 0.034042
C11   C     C_3   0.958391 0.633639 0.936713 -0.103985
C12   C     C_3   0.959638 0.431662 0.661693 0.142014
C13   C     C_3   0.356875 0.300838 0.970534 -0.021867
C14   C     C_3   0.108133 0.936025 0.640651 -0.141773
C15   C     C_3   0.917375 0.505576 0.505191 0.042599
C16   C     C_3   0.956269 0.677658 0.523576 0.110509
C17   C     C_3   0.054288 0.676522 0.512106 0.192161
C18   C     C_1   0.825070 0.502597 0.505333 0.043890
C19   C     C_1   0.175268 0.502625 0.496515 -0.036989
C20   C     C_1   0.250843 0.501145 0.498388 -0.033385
C21   C     C_2   0.495869 0.031946 0.427464 -0.154399
Cl1   Cl    Cl    0.904916 0.774956 0.359403 -0.737462
Cu1   Cu    Cu3+1 0.509300 0.517380 0.684380 1.046013
Cu2   Cu    Cu3+1 0.490700 0.482620 0.315620 0.996864
H1    H     H_    0.939472 0.302849 0.619843 0.158744
H2    H     H_    0.911339 0.446948 0.203097 0.213082
H3    H     H_    0.069042 0.709961 0.382737 0.138433
H4    H     H_    0.942869 0.754345 0.654194 0.167509
H5    H     H_    0.010622 0.692307 0.885182 0.139110
H6    H     H_    0.984184 0.625357 0.075530 0.165486
H7    H     H_    0.904241 0.710774 0.947601 0.191425
H8    H     H_    0.322918 0.411964 0.998186 0.124366
H9    H     H_    0.359883 0.242909 0.088071 0.144447
H10   H     H_    0.318878 0.217878 0.853453 0.080250
H11   H     H_    0.045429 0.981489 0.606862 0.156354
H12   H     H_    0.092450 0.509357 0.794636 0.153201
H13   H     H_    0.149895 0.941176 0.531573 0.118602
H14   H     H_    0.138698 0.015590 0.769450 0.132002
H15   H     H_    0.488719 0.960509 0.287695 0.133874
H16   H     H_    0.510563 0.039431 0.712275 0.164900
H17   H     H_    0.558205 0.636515 0.051629 0.203939
H18   H     H_    0.080040 0.317480 0.652109 0.068366
H19   H     H_    0.056679 0.434035 0.197991 0.128678
H20   H     H_    0.054925 0.272095 0.309142 0.134024
H21   H     H_    0.910507 0.278378 0.300736 0.136250
N1    N     N_2   0.476670 0.456430 0.038530 0.044484
N2    N     N_2   0.523330 0.543570 0.961470 -0.179082
O1    O     O_R   0.506050 0.286130 0.619770 -0.443092
O2    O     O_3   0.438274 0.326804 0.920476 -0.437174
O3    O     O_3   0.099372 0.780736 0.668694 -0.596547
O4    O     O_R   0.490330 0.256780 0.308370 -0.503770
O5    O     O_R   0.387300 0.514690 0.655770 -0.469127
O6    O     O_R   0.371580 0.485340 0.344370 -0.539541
O7    O     O_R   0.509670 0.743220 0.691630 -0.507326
O8    O     O_R   0.493950 0.713870 0.380230 -0.524993
O9    O     O_R   0.628420 0.514660 0.655630 -0.491979
O10   O     O_R   0.612700 0.485310 0.344230 -0.500570
O11   O     O_3   0.928978 0.480010 0.835764 -0.583361

loop_
_geom_bond_atom_site_label_1
_geom_bond_atom_site_label_2
_ccdc_geom_bond_type
C17   O3    S    
C6    C10   S    
C15   C18   S    
C2    C4    S    
C3    O5    A    
C1    O1    A    
C1    C21   S    
C7    C8    S    
C7    H19   S    
C7    C10   S    
C11   O11   S    
C1    O4    A    
C10   C19   S    
C13   H8    S    
C19   C20   T    
C21   H15   S    
C12   C15   S    
C5    O10   A    
C12   H1    S    
Cu1   Cu2   S    
C12   O11   S    
C2    C21   D    
H17   N2    S    
C11   H7    S    
C13   H10   S    
C7    H20   S    
C14   H13   S    
C5    C9    S    
C3    O6    A    
N1    O2    S    
Cu1   O9    S    
Cu1   O5    S    
C14   O3    S    
Cu2   O4    S    
C13   O2    S    
C6    H12   S    
C8    C15   S    
C4    O8    A    
C6    C12   S    
Cu2   N1    S    
C14   H14   S    
Cu1   N2    S    
C10   C17   S    
C15   C16   S    
C17   H3    S    
C2    H16   S    
C9    C18   T    
C3    C20   S    
C8    H2    S    
C11   H5    S    
Cu1   O7    S    
C13   H9    S    
C6    H18   S    
C14   H11   S    
C16   H4    S    
C16   C17   S    
C16   Cl1   S    
Cu1   O1    S    
C5    O9    A    
C4    O7    A    
Cu2   O6    S    
N1    N2    D    
C8    H21   S    
C11   H6    S    
Cu2   O10   S    
Cu2   O8    S    
