data_mof_unit_43516.cif
_audit_creation_date              2012-12-10T19:08:07-0500
_audit_creation_method            fapswitch 2.2
_symmetry_space_group_name_H-M    P1
_symmetry_Int_Tables_number       1
_space_group_crystal_system       triclinic
_cell_length_a                    9.051535
_cell_length_b                    10.790524
_cell_length_c                    9.615435
_cell_angle_alpha                 90.043953
_cell_angle_beta                  90.858096
_cell_angle_gamma                 89.857116
_cell_volume                      939.038790372

loop_
_atom_site_label
_atom_site_type_symbol
_atom_type_description
_atom_site_fract_x
_atom_site_fract_y
_atom_site_fract_z
_atom_type_partial_charge
C1    C     C_R   0.493916 0.262780 0.499796 0.862399
C2    C     C_R   0.381238 0.934615 0.408222 0.123104
C3    C     C_R   0.476212 0.870403 0.502126 -0.155071
C4    C     C_R   0.546974 0.936448 0.607694 0.058148
C5    C     C_3   0.699992 0.926539 0.666687 -0.457755
C6    C     C_3   0.704099 0.067672 0.664168 -0.003873
C7    C     C_R   0.628717 0.488229 0.075369 0.228992
C8    C     C_R   0.370764 0.504253 0.069489 0.270290
C9    C     C_R   0.372233 0.503602 0.922399 -0.113097
C10   C     C_R   0.628652 0.488239 0.928437 0.254397
C11   C     C_3   0.758142 0.573257 0.924571 -0.487105
C12   C     C_R   0.220921 0.500070 0.499343 0.865779
C13   C     C_3   0.758154 0.573547 0.082330 -0.473049
C14   C     C_R   0.493268 0.737222 0.500007 0.826063
C15   C     C_R   0.779061 0.500368 0.500642 0.856746
C16   C     C_1   0.065630 0.500344 0.499054 -0.132553
C17   C     C_1   0.934362 0.500497 0.500832 -0.154427
C18   C     C_R   0.549767 0.062959 0.605929 0.048423
C19   C     C_R   0.478376 0.129562 0.500832 -0.158156
C20   C     C_R   0.382589 0.065927 0.407219 0.134785
Cu1   Cu    Cu3+1 0.499990 0.499980 0.640670 0.964444
Cu2   Cu    Cu3+1 0.500010 0.500020 0.359330 1.014358
H1    H     H_    0.730206 0.664830 0.878067 0.212359
H2    H     H_    0.857612 0.528160 0.128827 0.211552
H3    H     H_    0.730132 0.665316 0.127750 0.223604
H4    H     H_    0.700998 0.887848 0.773787 0.186806
H5    H     H_    0.777483 0.880795 0.594005 0.213762
H6    H     H_    0.708234 0.109399 0.769894 0.158735
H7    H     H_    0.268325 0.508357 0.866106 0.155862
H8    H     H_    0.857365 0.527469 0.880872 0.203180
N1    N     N_R   0.500920 0.500930 0.147930 -0.179695
N2    N     N_R   0.500930 0.500890 0.852020 -0.198392
O1    O     O_R   0.500000 0.319640 0.618810 -0.576703
O2    O     O_R   0.500020 0.319680 0.381230 -0.548856
O3    O     O_R   0.288380 0.499980 0.618770 -0.603147
O4    O     O_R   0.288400 0.500020 0.381190 -0.523784
O5    O     O_R   0.499980 0.680320 0.618770 -0.577634
O6    O     O_R   0.500000 0.680360 0.381190 -0.558090
O7    O     O_R   0.711600 0.499980 0.618810 -0.582538
O8    O     O_R   0.711620 0.500020 0.381230 -0.578151
I1    I     I_    0.238770 0.166096 0.268072 -0.275732
I2    I     I_    0.231862 0.835116 0.274690 -0.313067
I3    I     I_    0.864831 0.138429 0.522743 -0.342838
N3    N     N_3   0.229593 0.511312 0.132821 -0.507362
H9    H     H_    0.167774 0.434266 0.101182 0.212882
H10   H     H_    0.175098 0.590539 0.095907 0.214403

loop_
_geom_bond_atom_site_label_1
_geom_bond_atom_site_label_2
_ccdc_geom_bond_type
C7    C10   A    
Cu1   O3    S    
C12   O4    A    
Cu2   O4    S    
C19   C20   A    
Cu1   O7    S    
C9    H7    S    
Cu2   O8    S    
C20   I1    S    
C14   O6    A    
C4    C18   A    
Cu1   Cu2   S    
C14   O5    A    
C11   C13   S    
C15   O7    A    
C16   C17   T    
C3    C14   S    
C2    I2    S    
C6    C18   S    
C11   H1    S    
N3    H10   S    
C1    O2    A    
C2    C3    A    
C6    I3    S    
C5    C6    S    
Cu2   O2    S    
Cu1   N2    S    
C12   O3    A    
C15   O8    A    
C1    C19   S    
C7    N1    A    
Cu2   N1    S    
C1    O1    A    
C5    H4    S    
Cu2   O6    S    
C10   N2    A    
C7    C13   S    
Cu1   O1    S    
N3    H9    S    
C13   H2    S    
Cu1   O5    S    
C18   C19   A    
C10   C11   S    
C15   C17   S    
C8    C9    A    
C12   C16   S    
C9    N2    A    
C5    H5    S    
C8    N1    A    
C2    C20   A    
C6    H6    S    
C3    C4    A    
C8    N3    S    
C11   H8    S    
C4    C5    S    
C13   H3    S    
