data_mof_unit_7917.cif
_audit_creation_date              2012-12-10T18:18:21-0500
_audit_creation_method            fapswitch 2.2
_symmetry_space_group_name_H-M    P1
_symmetry_Int_Tables_number       1
_space_group_crystal_system       triclinic
_cell_length_a                    14.014588
_cell_length_b                    14.917573
_cell_length_c                    15.441795
_cell_angle_alpha                 90.05844
_cell_angle_beta                  65.952569
_cell_angle_gamma                 90.414133
_cell_volume                      2948.04354796

loop_
_atom_site_label
_atom_site_type_symbol
_atom_type_description
_atom_site_fract_x
_atom_site_fract_y
_atom_site_fract_z
_atom_type_partial_charge
C1    C     C_R   0.500969 0.672872 0.498301 0.887895
C2    C     C_R   0.498583 0.327128 0.502492 0.895212
C3    C     C_R   0.379938 0.469458 0.108802 -0.242638
C4    C     C_R   0.620262 0.463659 0.888731 -0.241159
C5    C     C_R   0.303005 0.478269 0.074763 -0.241165
C6    C     C_R   0.695795 0.451494 0.924130 -0.244990
C7    C     C_R   0.444590 0.185822 0.592657 0.031421
C8    C     C_R   0.545899 0.814153 0.407747 0.024557
C9    C     C_R   0.496179 0.231982 0.506233 -0.079466
C10   C     C_R   0.502711 0.767985 0.494886 -0.076988
C11   C     C_R   0.548333 0.188249 0.420743 -0.299147
C12   C     C_R   0.459251 0.811666 0.581400 -0.300444
C13   C     C_R   0.549486 0.095986 0.417949 0.131792
C14   C     C_R   0.457300 0.903945 0.584165 0.133436
C15   C     C_R   0.501158 0.046886 0.502826 0.033922
C16   C     C_R   0.503118 0.953078 0.499038 0.034317
C17   C     C_R   0.450029 0.091410 0.591136 0.098387
C18   C     C_R   0.549587 0.908548 0.410224 0.096599
C19   C     C_R   0.598180 0.052531 0.331054 -0.214700
C20   C     C_R   0.409922 0.947383 0.671193 -0.214784
C21   C     C_R   0.597625 0.959834 0.326906 -0.236121
C22   C     C_R   0.405523 0.040058 0.674820 -0.235715
C23   C     C_R   0.433502 0.504901 0.677591 0.873067
C24   C     C_R   0.566542 0.495780 0.322427 0.877622
C25   C     C_R   0.178417 0.437023 0.551235 -0.068591
C26   C     C_R   0.820341 0.565075 0.452012 -0.040604
C27   C     C_R   0.225411 0.563981 0.449764 -0.071784
C28   C     C_R   0.774117 0.436625 0.551279 -0.080550
C29   C     C_R   0.125162 0.566401 0.447822 -0.012499
C30   C     C_R   0.873949 0.434844 0.554275 -0.014740
C31   C     C_R   0.050180 0.501294 0.501103 0.050269
C32   C     C_R   0.948493 0.500735 0.502122 0.050549
C33   C     C_R   0.077101 0.436380 0.553225 -0.000931
C34   C     C_R   0.921264 0.566266 0.450859 0.007291
C35   C     C_R   0.097371 0.631271 0.394826 0.113719
C36   C     C_R   0.901817 0.370006 0.607288 0.110870
C37   C     C_R   0.995318 0.630799 0.398183 -0.263557
C38   C     C_R   0.002963 0.372038 0.606076 -0.254397
C39   C     C_R   0.389112 0.514256 0.782374 -0.137101
C40   C     C_R   0.611287 0.483548 0.218098 -0.140913
C41   C     C_R   0.251993 0.523480 0.944455 0.078315
C42   C     C_R   0.746549 0.446937 0.060344 0.080562
C43   C     C_R   0.281292 0.524315 0.843786 0.051816
C44   C     C_R   0.714457 0.453377 0.160889 0.053338
C45   C     C_R   0.462908 0.513541 0.820977 -0.297160
C46   C     C_R   0.541495 0.497329 0.176506 -0.307873
C47   C     C_R   0.436048 0.497531 0.916173 0.056976
C48   C     C_R   0.565580 0.475928 0.082699 0.065023
C49   C     C_R   0.328974 0.500101 0.979194 0.112521
C50   C     C_R   0.670560 0.458157 0.021826 0.112224
C51   C     C_R   0.514807 0.480331 0.949715 0.091531
C52   C     C_R   0.486564 0.477081 0.047938 0.093103
H1    H     H_    0.224067 0.465147 0.124979 0.140564
H2    H     H_    0.773995 0.437812 0.872837 0.162458
H3    H     H_    0.200389 0.387753 0.591106 0.127373
H4    H     H_    0.797872 0.615609 0.413862 0.115934
H5    H     H_    0.466038 0.525844 0.218602 0.171400
H6    H     H_    0.543640 0.523875 0.774490 0.179752
H7    H     H_    0.354532 0.452561 0.183008 0.153146
H8    H     H_    0.646589 0.455271 0.813181 0.142809
H9    H     H_    0.586672 0.226750 0.355826 0.133697
H10   H     H_    0.425583 0.773136 0.646763 0.128567
H11   H     H_    0.635860 0.090415 0.265841 0.143389
H12   H     H_    0.375126 0.909491 0.736705 0.143492
N1    N     N_R   0.249980 0.499930 0.499960 -0.096537
N2    N     N_R   0.750020 0.500070 0.500040 -0.099153
O1    O     O_R   0.419720 0.632140 0.499980 -0.628612
O2    O     O_R   0.580280 0.367860 0.500020 -0.623283
O3    O     O_R   0.580270 0.632160 0.499970 -0.615739
O4    O     O_R   0.419730 0.367840 0.500030 -0.618316
O5    O     O_R   0.373870 0.499980 0.632250 -0.621607
O6    O     O_R   0.626130 0.500020 0.367750 -0.617701
O7    O     O_R   0.534420 0.500000 0.632240 -0.614207
O8    O     O_R   0.465580 0.500000 0.367760 -0.612735
Zn1   Zn    Zn3+2 0.392800 0.499980 0.500010 0.921770
Zn2   Zn    Zn3+2 0.607200 0.500020 0.499990 0.920787
H13   H     H_    0.284956 0.612830 0.411813 0.148797
H14   H     H_    0.714340 0.388140 0.589790 0.146250
C53   C     C_3   0.174606 0.700200 0.332098 -0.442112
C54   C     C_3   0.252326 0.656678 0.240766 -0.338691
C55   C     C_3   0.330393 0.724966 0.176269 -0.869834
H15   H     H_    0.288988 0.778613 0.155805 0.258727
H16   H     H_    0.376519 0.755261 0.212866 0.255614
H17   H     H_    0.384864 0.691031 0.110925 0.260997
H18   H     H_    0.296284 0.603005 0.257661 0.215570
H19   H     H_    0.208942 0.625673 0.202066 0.229887
H20   H     H_    0.132770 0.754153 0.312339 0.202528
H21   H     H_    0.215938 0.733668 0.371360 0.197319
C56   C     C_3   0.827033 0.297241 0.665028 -0.441922
C57   C     C_3   0.821323 0.220476 0.601041 -0.331126
C58   C     C_3   0.748474 0.145801 0.659029 -0.875857
H22   H     H_    0.778814 0.115796 0.708532 0.259606
H23   H     H_    0.669209 0.172608 0.700327 0.255702
H24   H     H_    0.743017 0.092642 0.610819 0.254818
H25   H     H_    0.792685 0.245425 0.548256 0.222079
H26   H     H_    0.900648 0.192330 0.561818 0.226444
H27   H     H_    0.853459 0.269591 0.718412 0.205390
H28   H     H_    0.748406 0.325546 0.706399 0.187354
H29   H     H_    0.974056 0.679948 0.357567 0.141234
H30   H     H_    0.024517 0.322268 0.645888 0.140119
C59   C     C_3   0.786980 0.421413 0.205590 -0.385213
C60   C     C_3   0.856503 0.497630 0.214753 -0.326729
C61   C     C_3   0.943528 0.461040 0.239770 -0.911210
H31   H     H_    0.910031 0.422922 0.307457 0.276918
H32   H     H_    0.995109 0.416301 0.182550 0.252920
H33   H     H_    0.991465 0.517389 0.247597 0.252679
H34   H     H_    0.892204 0.535966 0.147581 0.210228
H35   H     H_    0.809171 0.545598 0.269963 0.239459
H36   H     H_    0.742579 0.389166 0.275342 0.210478
H37   H     H_    0.836299 0.365961 0.163110 0.191872
C62   C     C_3   0.199295 0.536295 0.803195 -0.392081
C63   C     C_3   0.207452 0.628799 0.756008 -0.321033
C64   C     C_3   0.118241 0.642546 0.724916 -0.869831
H38   H     H_    0.118683 0.589346 0.674552 0.271844
H39   H     H_    0.041933 0.641082 0.787413 0.248119
H40   H     H_    0.127551 0.708582 0.689150 0.250008
H41   H     H_    0.205158 0.683181 0.805657 0.196518
H42   H     H_    0.282399 0.636927 0.693366 0.243558
H43   H     H_    0.205232 0.481430 0.752803 0.208837
H44   H     H_    0.119022 0.527882 0.858003 0.193150
C65   C     C_3   0.142947 0.554176 0.013522 -0.430935
C66   C     C_3   0.122990 0.653700 0.999454 -0.312267
C67   C     C_3   0.064803 0.702795 0.093150 -0.931704
H45   H     H_    0.042928 0.770804 0.078783 0.253407
H46   H     H_    0.992836 0.665834 0.138285 0.259084
H47   H     H_    0.115582 0.710016 0.132179 0.269360
H48   H     H_    0.198067 0.689954 0.960790 0.226929
H49   H     H_    0.075008 0.658031 0.957482 0.219041
H50   H     H_    0.081705 0.510546 0.007338 0.168873
H51   H     H_    0.130600 0.546807 0.088081 0.214356
C68   C     C_3   0.860674 0.429639 0.994226 -0.445217
C69   C     C_3   0.879118 0.332007 0.959884 -0.333196
C70   C     C_3   0.990727 0.319645 0.885903 -0.925414
H52   H     H_    0.005215 0.362646 0.823002 0.257830
H53   H     H_    0.002588 0.248594 0.862694 0.251281
H54   H     H_    0.047840 0.337473 0.916317 0.262774
H55   H     H_    0.865783 0.286790 0.020900 0.214898
H56   H     H_    0.824048 0.311350 0.928309 0.221610
H57   H     H_    0.885678 0.476885 0.933296 0.195537
H58   H     H_    0.914580 0.445234 0.028055 0.205573
C71   C     C_3   0.383505 0.236836 0.684257 -0.437776
C72   C     C_3   0.447962 0.248960 0.743465 -0.351071
C73   C     C_3   0.379172 0.277453 0.844636 -0.871843
H59   H     H_    0.332559 0.337082 0.844412 0.267041
H60   H     H_    0.324943 0.222047 0.882646 0.253312
H61   H     H_    0.428837 0.293982 0.883135 0.259382
H62   H     H_    0.486906 0.185368 0.746829 0.223763
H63   H     H_    0.509521 0.300714 0.709674 0.227281
H64   H     H_    0.359406 0.303985 0.670133 0.198480
H65   H     H_    0.308342 0.201793 0.725371 0.200875
C74   C     C_3   0.582646 0.763076 0.314181 -0.422586
C75   C     C_3   0.701122 0.748265 0.272016 -0.343257
C76   C     C_3   0.740339 0.715743 0.169690 -0.903199
H66   H     H_    0.699358 0.653128 0.165603 0.274902
H67   H     H_    0.726903 0.767687 0.124480 0.262813
H68   H     H_    0.825285 0.702362 0.141830 0.247962
H69   H     H_    0.743104 0.811338 0.273384 0.224688
H70   H     H_    0.719988 0.697533 0.315132 0.220697
H71   H     H_    0.542937 0.696918 0.323203 0.192378
H72   H     H_    0.558570 0.799112 0.263509 0.198568
H73   H     H_    0.636215 0.929686 0.257775 0.159876
H74   H     H_    0.367576 0.070087 0.744071 0.160954

loop_
_geom_bond_atom_site_label_1
_geom_bond_atom_site_label_2
_ccdc_geom_bond_type
C36   C56   S    
C73   H61   S    
C63   H42   S    
C59   C60   S    
C27   C29   A    
C34   C37   A    
C62   C63   S    
C37   H29   S    
C65   H51   S    
O6    Zn2   S    
C53   H20   S    
C55   H15   S    
C71   H64   S    
C67   H45   S    
C47   C49   A    
C40   C46   A    
C43   C62   S    
C5    H1    S    
C35   C37   A    
C23   O7    A    
C2    O2    A    
C63   H41   S    
C22   H74   S    
C67   H46   S    
C69   H56   S    
C15   C16   A    
C18   C21   A    
C73   H60   S    
O3    Zn2   S    
C62   H43   S    
C41   C65   S    
C66   H48   S    
C53   H21   S    
C54   H19   S    
C68   H58   S    
C61   H31   S    
C1    O1    A    
C26   C34   A    
C19   H11   S    
C69   C70   S    
C7    C17   A    
C70   H54   S    
C74   C75   S    
C31   C33   A    
C60   H35   S    
C42   C68   S    
C76   H67   S    
C28   H14   S    
C39   C45   A    
C64   H40   S    
C48   C50   A    
C76   H66   S    
C41   C43   A    
C5    C49   A    
C42   C44   A    
C6    H2    S    
C41   C49   A    
C63   C64   S    
C55   H16   S    
C71   H65   S    
C46   C48   A    
C45   C47   A    
C75   H70   S    
C45   H6    S    
C21   H73   S    
O8    Zn1   S    
C13   C19   A    
C4    C51   A    
C51   C52   A    
C26   N2    A    
C72   H63   S    
C57   H25   S    
C8    C74   S    
C25   N1    A    
C38   H30   S    
C65   H50   S    
C58   H22   S    
C67   H47   S    
C39   C43   A    
C11   H9    S    
C69   H55   S    
C8    C18   A    
C56   H27   S    
C62   H44   S    
C74   H71   S    
C20   H12   S    
C28   N2    A    
C54   H18   S    
C27   N1    A    
C30   C32   A    
C14   C20   A    
C58   H23   S    
C12   H10   S    
C31   C32   A    
C40   C44   A    
C3    C52   A    
N2    Zn2   S    
C4    H8    S    
C60   H34   S    
C61   H32   S    
C16   C18   A    
C6    C50   A    
C76   H68   S    
C9    C11   A    
C65   C66   S    
C10   C12   A    
C42   C50   A    
C4    C6    A    
C12   C14   A    
C13   C15   A    
C46   H5    S    
C70   H52   S    
O7    Zn2   S    
C14   C16   A    
C35   C53   S    
O1    Zn1   S    
C68   C69   S    
C3    C5    A    
C7    C71   S    
C55   H17   S    
C24   O6    A    
C70   H53   S    
C64   H38   S    
C15   C17   A    
C75   H69   S    
C19   C21   A    
C72   H62   S    
C1    C10   S    
C25   H3    S    
C20   C22   A    
C54   C55   S    
C27   H13   S    
C26   H4    S    
C47   C51   A    
C44   C59   S    
C57   H26   S    
O2    Zn2   S    
C29   C35   A    
C17   C22   A    
N1    Zn1   S    
C30   C36   A    
C56   H28   S    
C74   H72   S    
C36   C38   A    
C59   H37   S    
C29   C31   A    
C71   C72   S    
C58   H24   S    
O5    Zn1   S    
C11   C13   A    
C24   O8    A    
C57   C58   S    
C23   C39   S    
C28   C30   A    
C24   C40   S    
C61   H33   S    
C66   H49   S    
C60   C61   S    
C1    O3    A    
C68   H57   S    
C53   C54   S    
C7    C9    A    
C48   C52   A    
C75   C76   S    
C23   O5    A    
C8    C10   A    
C25   C33   A    
O4    Zn1   S    
C66   C67   S    
C72   C73   S    
C33   C38   A    
C56   C57   S    
C2    O4    A    
C2    C9    S    
C59   H36   S    
C73   H59   S    
C32   C34   A    
C64   H39   S    
C3    H7    S    
