data_mof_unit_62481.cif
_audit_creation_date              2012-12-10T17:00:05-0500
_audit_creation_method            fapswitch 2.2
_symmetry_space_group_name_H-M    P1
_symmetry_Int_Tables_number       1
_space_group_crystal_system       triclinic
_cell_length_a                    13.166439
_cell_length_b                    13.194118
_cell_length_c                    16.048832
_cell_angle_alpha                 80.331447
_cell_angle_beta                  100.448365
_cell_angle_gamma                 91.042716
_cell_volume                      2702.60663916

loop_
_atom_site_label
_atom_site_type_symbol
_atom_type_description
_atom_site_fract_x
_atom_site_fract_y
_atom_site_fract_z
_atom_type_partial_charge
C1    C     C_R   0.462991 0.777073 0.468766 0.523940
C2    C     C_2   0.051583 0.537512 0.478426 0.020912
C3    C     C_2   0.886708 0.556626 0.526556 -0.080385
C4    C     C_R   0.537284 0.223615 0.532091 0.519839
C5    C     C_2   0.941022 0.515943 0.477008 -0.158273
C6    C     C_R   0.776861 0.534462 0.523541 0.511826
C7    C     C_R   0.223169 0.467085 0.475937 0.555372
C8    C     C_R   0.515730 0.487722 0.726961 0.511899
C9    C     C_R   0.484088 0.512417 0.273059 0.503272
C10   C     C_1   0.521951 0.482858 0.817674 0.021126
C11   C     C_2   0.533201 0.474050 0.984992 -0.117783
C12   C     C_1   0.472081 0.521826 0.105994 -0.038430
C13   C     C_2   0.465916 0.526665 0.014893 -0.117403
C14   C     C_3   0.645957 0.069705 0.615755 -0.390982
C15   C     C_2   0.092098 0.641926 0.489055 0.600122
C16   C     C_1   0.527105 0.478825 0.893906 -0.038700
C17   C     C_1   0.477442 0.517621 0.182265 0.022026
C18   C     C_2   0.555587 0.113171 0.547898 0.027871
C19   C     C_2   0.492588 0.055404 0.499946 -0.121651
C20   C     C_2   0.447239 0.888469 0.457382 -0.107017
C21   C     C_2   0.506161 0.943547 0.509840 -0.149006
C22   C     C_2   0.111973 0.458785 0.472289 -0.104660
H1    H     H_    0.405636 0.573814 0.971036 0.141774
H2    H     H_    0.618381 0.014247 0.666711 0.134250
H3    H     H_    0.701095 0.030694 0.586389 0.140228
H4    H     H_    0.209812 0.728661 0.535854 0.333630
H5    H     H_    0.079404 0.382529 0.471497 0.078474
H6    H     H_    0.593475 0.426906 0.028864 0.140577
H7    H     H_    0.565660 0.905116 0.560566 0.166938
H8    H     H_    0.429818 0.092403 0.451200 0.119003
H9    H     H_    0.387311 0.925457 0.406116 0.115567
H10   H     H_    0.905208 0.460778 0.437735 0.149028
H11   H     H_    0.922781 0.608862 0.568445 0.140815
H12   H     H_    0.687844 0.131686 0.646376 0.131663
O1    O     O_3   0.500000 0.500000 0.500000 -0.445821
O2    O     O_R   0.564890 0.556920 0.685230 -0.536163
O3    O     O_R   0.419250 0.562810 0.301190 -0.539076
O4    O     O_R   0.461010 0.422870 0.688230 -0.529223
O5    O     O_R   0.554850 0.457400 0.325340 -0.536968
O6    O     O_2   0.036349 0.717516 0.460290 -0.512876
O7    O     O_R   0.192174 0.653986 0.533324 -0.688753
O8    O     O_R   0.732880 0.470090 0.478000 -0.539347
O9    O     O_R   0.260330 0.535210 0.424090 -0.504269
O10   O     O_R   0.533020 0.732860 0.528350 -0.539471
O11   O     O_R   0.473780 0.261850 0.569570 -0.540137
O12   O     O_R   0.406490 0.723840 0.419860 -0.520474
O13   O     O_R   0.586720 0.281460 0.482230 -0.536887
O14   O     O_R   0.723810 0.584530 0.562340 -0.535778
O15   O     O_R   0.282980 0.410180 0.535580 -0.528857
Zn1   Zn    Zn3+2 0.592010 0.428480 0.447310 0.942727
Zn2   Zn    Zn3+2 0.579060 0.591980 0.567800 0.959072
Zn3   Zn    Zn3+2 0.430650 0.400450 0.572090 0.965071
Zn4   Zn    Zn3+2 0.398290 0.579090 0.412800 0.981371

loop_
_geom_bond_atom_site_label_1
_geom_bond_atom_site_label_2
_ccdc_geom_bond_type
C12   C17   T    
C14   H12   S    
C2    C22   D    
C20   H9    S    
C7    O9    A    
O1    Zn4   S    
C7    C22   S    
C11   C16   S    
C14   C18   S    
C1    O10   A    
C22   H5    S    
C5    H10   S    
O3    Zn4   S    
O15   Zn3   S    
O1    Zn1   S    
C9    O3    A    
C7    O15   A    
C4    C18   S    
C8    O2    A    
C10   C16   T    
C12   C13   S    
C2    C15   S    
C11   C13   D    
C15   O7    S    
O2    Zn2   S    
C6    O14   A    
C11   H6    S    
O8    Zn1   S    
O12   Zn4   S    
C9    C17   S    
C19   C21   S    
O13   Zn1   S    
C4    O11   A    
C8    O4    A    
C14   H3    S    
O1    Zn2   S    
C1    O12   A    
C21   H7    S    
C15   O6    D    
C2    C5    S    
O4    Zn3   S    
C3    H11   S    
C9    O5    A    
O5    Zn1   S    
C20   C21   D    
C13   H1    S    
C8    C10   S    
C18   C19   D    
O10   Zn2   S    
C3    C6    S    
C14   H2    S    
O1    Zn3   S    
C1    C20   S    
O11   Zn3   S    
C19   H8    S    
C6    O8    A    
O9    Zn4   S    
O14   Zn2   S    
H4    O7    S    
C3    C5    D    
C4    O13   A    
