data_mof_unit_66045.cif
_audit_creation_date              2012-12-10T18:26:53-0500
_audit_creation_method            fapswitch 2.2
_symmetry_space_group_name_H-M    P1
_symmetry_Int_Tables_number       1
_space_group_crystal_system       triclinic
_cell_length_a                    24.186356
_cell_length_b                    24.637622
_cell_length_c                    16.148665
_cell_angle_alpha                 89.999983
_cell_angle_beta                  100.429138
_cell_angle_gamma                 90.000055
_cell_volume                      9463.92268037

loop_
_atom_site_label
_atom_site_type_symbol
_atom_type_description
_atom_site_fract_x
_atom_site_fract_y
_atom_site_fract_z
_atom_type_partial_charge
C1    C     C_R   0.424283 0.074715 0.488488 0.874179
C2    C     C_R   0.575717 0.925285 0.511512 0.874178
C3    C     C_R   0.575707 0.074724 0.511509 0.874206
C4    C     C_R   0.424293 0.925275 0.488491 0.874209
C5    C     C_R   0.924293 0.574725 0.488491 0.874208
C6    C     C_R   0.075707 0.425275 0.511509 0.874207
C7    C     C_R   0.075717 0.574715 0.511512 0.874178
C8    C     C_R   0.924283 0.425285 0.488488 0.874178
C9    C     C_R   0.464517 0.003145 0.832543 -0.249660
C10   C     C_R   0.535483 0.996855 0.167457 -0.249660
C11   C     C_R   0.964517 0.496855 0.832543 -0.249659
C12   C     C_R   0.035483 0.503146 0.167457 -0.249660
C13   C     C_R   0.516636 0.003422 0.886674 0.093238
C14   C     C_R   0.483364 0.996578 0.113326 0.093237
C15   C     C_R   0.016636 0.496578 0.886674 0.093238
C16   C     C_R   0.983364 0.503422 0.113326 0.093237
C17   C     C_R   0.565584 0.002555 0.851291 -0.225641
C18   C     C_R   0.434416 0.997445 0.148709 -0.225641
C19   C     C_R   0.065584 0.497446 0.851291 -0.225641
C20   C     C_R   0.934416 0.502553 0.148709 -0.225639
C21   C     C_R   0.561366 0.000747 0.763634 0.082343
C22   C     C_R   0.438634 0.999254 0.236366 0.082342
C23   C     C_R   0.061366 0.499254 0.763634 0.082341
C24   C     C_R   0.938634 0.500745 0.236366 0.082343
C25   C     C_2   0.521133 0.006671 0.979535 -0.136729
C26   C     C_2   0.478866 0.993330 0.020465 -0.136729
C27   C     C_2   0.021134 0.493330 0.979535 -0.136730
C28   C     C_2   0.978866 0.506670 0.020465 -0.136729
C29   C     C_R   0.383501 0.880924 0.481735 -0.172670
C30   C     C_R   0.616499 0.119075 0.518265 -0.172666
C31   C     C_R   0.616565 0.880982 0.518278 -0.172746
C32   C     C_R   0.383434 0.119017 0.481722 -0.172742
C33   C     C_R   0.883434 0.380983 0.481721 -0.172737
C34   C     C_R   0.116566 0.619017 0.518278 -0.172740
C35   C     C_R   0.116498 0.380924 0.518265 -0.172671
C36   C     C_R   0.883502 0.619076 0.481736 -0.172676
C37   C     C_R   0.389644 0.842164 0.546357 -0.243670
C38   C     C_R   0.610355 0.157837 0.453646 -0.243672
C39   C     C_R   0.610530 0.842270 0.453595 -0.243538
C40   C     C_R   0.389472 0.157732 0.546401 -0.243542
C41   C     C_R   0.889474 0.342266 0.546396 -0.243544
C42   C     C_R   0.110527 0.657732 0.453601 -0.243543
C43   C     C_R   0.110357 0.342165 0.453642 -0.243669
C44   C     C_R   0.889641 0.657833 0.546363 -0.243665
C45   C     C_R   0.352531 0.798732 0.542380 0.419420
C46   C     C_R   0.647468 0.201269 0.457624 0.419421
C47   C     C_R   0.647712 0.798896 0.457561 0.419494
C48   C     C_R   0.352289 0.201106 0.542434 0.419497
C49   C     C_R   0.852290 0.298892 0.542429 0.419497
C50   C     C_R   0.147711 0.701106 0.457568 0.419496
C51   C     C_R   0.147470 0.298733 0.457619 0.419420
C52   C     C_R   0.852528 0.701265 0.542387 0.419417
C53   C     C_R   0.308099 0.794214 0.473233 -0.026314
C54   C     C_R   0.691902 0.205784 0.526768 -0.026314
C55   C     C_R   0.692116 0.794396 0.526753 -0.026302
C56   C     C_R   0.307882 0.205603 0.473245 -0.026300
C57   C     C_R   0.807880 0.294399 0.473243 -0.026300
C58   C     C_R   0.192118 0.705602 0.526756 -0.026301
C59   C     C_R   0.191901 0.294214 0.526766 -0.026315
C60   C     C_R   0.808101 0.705787 0.473235 -0.026315
C61   C     C_R   0.302597 0.831927 0.407707 -0.186315
C62   C     C_R   0.697406 0.168069 0.592291 -0.186314
C63   C     C_R   0.697512 0.832057 0.592340 -0.186335
C64   C     C_R   0.302484 0.167938 0.407662 -0.186336
C65   C     C_R   0.802480 0.332067 0.407665 -0.186335
C66   C     C_R   0.197517 0.667936 0.592337 -0.186336
C67   C     C_R   0.197402 0.331926 0.592294 -0.186315
C68   C     C_R   0.802601 0.668079 0.407704 -0.186314
C69   C     C_R   0.339588 0.875515 0.411616 0.389261
C70   C     C_R   0.660415 0.124482 0.588382 0.389255
C71   C     C_R   0.660445 0.875583 0.588450 0.389573
C72   C     C_R   0.339552 0.124413 0.411553 0.389569
C73   C     C_R   0.839548 0.375591 0.411556 0.389562
C74   C     C_R   0.160449 0.624412 0.588446 0.389568
C75   C     C_R   0.160412 0.375514 0.588385 0.389262
C76   C     C_R   0.839592 0.624490 0.411612 0.389266
C77   C     C_2   0.265027 0.752300 0.469181 -0.065995
C78   C     C_2   0.734975 0.247698 0.530821 -0.065995
C79   C     C_2   0.735238 0.752525 0.530834 -0.066158
C80   C     C_2   0.264760 0.247473 0.469165 -0.066160
C81   C     C_2   0.764758 0.252529 0.469163 -0.066160
C82   C     C_2   0.235241 0.747472 0.530836 -0.066160
C83   C     C_2   0.234973 0.252300 0.530819 -0.065995
C84   C     C_2   0.765029 0.747702 0.469183 -0.065993
C85   C     C_R   0.461873 0.000955 0.745894 0.561612
C86   C     C_R   0.538127 0.999045 0.254106 0.561613
C87   C     C_R   0.961873 0.499045 0.745894 0.561613
C88   C     C_R   0.038127 0.500955 0.254106 0.561612
Cu1   Cu    Cu3+1 0.495980 0.000000 0.415120 1.055285
Cu2   Cu    Cu3+1 0.504020 0.000000 0.584880 1.055285
Cu3   Cu    Cu3+1 0.995980 0.500000 0.415120 1.055285
Cu4   Cu    Cu3+1 0.004020 0.500000 0.584880 1.055285
H1    H     H_    0.574426 0.994075 0.143849 0.173845
H2    H     H_    0.425574 0.005925 0.856151 0.173844
H3    H     H_    0.074426 0.505926 0.143849 0.173845
H4    H     H_    0.925574 0.494074 0.856151 0.173844
H5    H     H_    0.400989 0.999696 0.263447 0.228516
H6    H     H_    0.599010 0.000305 0.736553 0.228516
H7    H     H_    0.900989 0.500302 0.263447 0.228517
H8    H     H_    0.099011 0.499697 0.736553 0.228516
N1    N     N_R   0.510090 1.000000 0.712400 -0.233581
N2    N     N_R   0.489910 1.000000 0.287600 -0.233581
N3    N     N_R   0.010090 0.500000 0.712400 -0.233581
N4    N     N_R   0.989910 0.500000 0.287600 -0.233581
O1    O     O_R   0.439420 0.056820 0.420010 -0.557537
O2    O     O_R   0.560580 0.943180 0.579990 -0.557533
O3    O     O_R   0.560580 0.056820 0.579990 -0.558349
O4    O     O_R   0.439420 0.943180 0.420010 -0.558344
O5    O     O_R   0.939420 0.556820 0.420010 -0.558338
O6    O     O_R   0.060580 0.443180 0.579990 -0.558343
O7    O     O_R   0.060580 0.556820 0.579990 -0.557539
O8    O     O_R   0.939420 0.443180 0.420010 -0.557543
O9    O     O_R   0.446220 0.056810 0.563370 -0.553401
O10   O     O_R   0.553780 0.943190 0.436630 -0.553402
O11   O     O_R   0.553780 0.056810 0.436630 -0.552486
O12   O     O_R   0.446220 0.943190 0.563370 -0.552488
O13   O     O_R   0.946220 0.556810 0.563370 -0.552492
O14   O     O_R   0.053780 0.443190 0.436630 -0.552490
O15   O     O_R   0.053780 0.556810 0.436630 -0.553398
O16   O     O_R   0.946220 0.443190 0.563370 -0.553397
H9    H     H_    0.423964 0.845166 0.599578 0.206876
H10   H     H_    0.576033 0.154838 0.400428 0.206872
H11   H     H_    0.576237 0.845261 0.400332 0.206727
H12   H     H_    0.423766 0.154743 0.599660 0.206723
H13   H     H_    0.923771 0.345252 0.599653 0.206719
H14   H     H_    0.076232 0.654745 0.400342 0.206723
H15   H     H_    0.076037 0.345167 0.400420 0.206876
H16   H     H_    0.923958 0.654828 0.599587 0.206881
Cl1   Cl    Cl    0.673406 0.076219 0.670035 -0.520504
Cl2   Cl    Cl    0.326599 0.923774 0.329958 -0.520503
Cl3   Cl    Cl    0.326707 0.076216 0.329786 -0.519060
Cl4   Cl    Cl    0.673288 0.923777 0.670223 -0.519059
Cl5   Cl    Cl    0.173295 0.576213 0.670211 -0.519060
Cl6   Cl    Cl    0.826700 0.423793 0.329795 -0.519062
Cl7   Cl    Cl    0.826606 0.576236 0.329946 -0.520503
Cl8   Cl    Cl    0.173400 0.423773 0.670044 -0.520502
H17   H     H_    0.245480 0.771793 0.587707 0.191770
H18   H     H_    0.754517 0.228210 0.412289 0.191770
H19   H     H_    0.754796 0.772026 0.412314 0.191867
H20   H     H_    0.245209 0.227979 0.587691 0.191868
H21   H     H_    0.745214 0.272016 0.587696 0.191867
H22   H     H_    0.254790 0.727980 0.412308 0.191867
H23   H     H_    0.254522 0.271795 0.412294 0.191770
H24   H     H_    0.745472 0.728200 0.587702 0.191770
H25   H     H_    0.268134 0.828485 0.354732 0.217127
H26   H     H_    0.731871 0.171509 0.645265 0.217126
H27   H     H_    0.731945 0.828623 0.645361 0.217044
H28   H     H_    0.268049 0.171370 0.354645 0.217043
H29   H     H_    0.768043 0.328638 0.354649 0.217042
H30   H     H_    0.231953 0.671367 0.645354 0.217043
H31   H     H_    0.231865 0.328484 0.645270 0.217127
H32   H     H_    0.768141 0.671523 0.354725 0.217128
Cl9   Cl    Cl    0.635464 0.250225 0.376766 -0.545697
Cl10  Cl    Cl    0.364533 0.749780 0.623242 -0.545696
Cl11  Cl    Cl    0.364189 0.250023 0.623355 -0.545776
Cl12  Cl    Cl    0.635815 0.749983 0.376634 -0.545773
Cl13  Cl    Cl    0.135810 0.750025 0.376649 -0.545775
Cl14  Cl    Cl    0.864194 0.249971 0.623344 -0.545776
Cl15  Cl    Cl    0.864526 0.750212 0.623258 -0.545694
Cl16  Cl    Cl    0.135469 0.249782 0.376755 -0.545696
Cl17  Cl    Cl    0.394398 0.000259 0.683314 -0.542912
Cl18  Cl    Cl    0.605602 0.999740 0.316686 -0.542913
Cl19  Cl    Cl    0.894398 0.499740 0.683314 -0.542913
Cl20  Cl    Cl    0.105602 0.500260 0.316686 -0.542913
H33   H     H_    0.439010 0.979165 0.985463 0.159217
H34   H     H_    0.560990 0.020836 0.014538 0.159216
H35   H     H_    0.939010 0.520834 0.985462 0.159218
H36   H     H_    0.060990 0.479165 0.014538 0.159217
H37   H     H_    0.606741 0.003301 0.891120 0.179778
H38   H     H_    0.393259 0.996700 0.108880 0.179778
H39   H     H_    0.106741 0.496701 0.891120 0.179777
H40   H     H_    0.893259 0.503298 0.108880 0.179778

loop_
_geom_bond_atom_site_label_1
_geom_bond_atom_site_label_2
_ccdc_geom_bond_type
C11   H4    S    
C16   C28   S    
C87   Cl19  S    
Cu1   O11   S    
C26   H33   S    
Cu1   N2    S    
C24   H7    S    
C85   Cl17  S    
C14   C18   A    
C53   C77   S    
C34   C42   A    
Cu3   N4    S    
C44   H16   S    
Cu4   O6    S    
C35   C43   A    
C65   C73   A    
C32   C72   A    
C15   C19   A    
C4    O4    A    
C30   C38   A    
C47   C55   A    
C59   C83   S    
Cu2   O3    S    
C66   H30   S    
C82   H17   S    
C58   C82   S    
C79   C84   D    
C60   C84   S    
C17   H37   S    
C47   Cl12  S    
C66   C74   A    
C5    C36   S    
C51   Cl16  S    
C49   C57   A    
C6    C35   S    
C62   C70   A    
C40   C48   A    
Cu2   O9    S    
C41   C49   A    
C9    C13   A    
C77   H22   S    
C61   H25   S    
C36   C76   A    
Cu4   N3    S    
C59   C67   A    
C71   Cl4   S    
C11   C15   A    
C58   C66   A    
C23   N3    A    
C12   C16   A    
C84   H19   S    
C11   C87   A    
C69   Cl2   S    
C55   C63   A    
C56   C64   A    
C12   H3    S    
C86   Cl18  S    
Cu2   O12   S    
C52   C60   A    
C30   C70   A    
C4    C29   S    
C28   H35   S    
C27   H36   S    
C19   H39   S    
C9    C85   A    
C44   C52   A    
C52   Cl15  S    
C31   C71   A    
C23   H8    S    
C45   C53   A    
C22   H5    S    
C64   H28   S    
C6    O6    A    
C13   C25   S    
C1    O9    A    
C80   C83   D    
C63   H27   S    
C83   H20   S    
C88   N4    A    
C76   Cl7   S    
Cu1   O1    S    
C29   C69   A    
C18   H38   S    
C50   Cl13  S    
C81   H18   S    
C40   H12   S    
C12   C88   A    
C39   H11   S    
C67   H31   S    
C50   C58   A    
C7    O15   A    
Cu2   O2    S    
C10   C14   A    
C78   H21   S    
C43   H15   S    
Cu3   Cu4   S    
C75   Cl8   S    
C54   C62   A    
C10   H1    S    
C3    O3    A    
C25   C26   D    
C88   Cl20  S    
C2    O2    A    
C70   Cl1   S    
C17   C21   A    
C5    O13   A    
C2    C31   S    
C24   N4    A    
Cu3   O8    S    
C3    C30   S    
C19   C23   A    
Cu4   O13   S    
Cu2   N1    S    
C68   H32   S    
C41   H13   S    
C55   C79   S    
C15   C27   S    
C79   H24   S    
C16   C20   A    
C80   H23   S    
C35   C75   A    
C46   C54   A    
Cu3   O14   S    
C14   C26   S    
C38   H10   S    
C42   C50   A    
C87   N3    A    
C33   C73   A    
C20   H40   S    
C48   Cl11  S    
C34   C74   A    
C7    C34   S    
C37   H9    S    
C49   Cl14  S    
C36   C44   A    
C51   C59   A    
C1    C32   S    
C53   C61   A    
C86   N2    A    
C32   C40   A    
C85   N1    A    
C8    O16   A    
C72   Cl3   S    
C39   C47   A    
C61   C69   A    
C48   C56   A    
C46   Cl9   S    
Cu1   O10   S    
C10   C86   A    
C18   C22   A    
C4    O12   A    
C57   C65   A    
C22   N2    A    
Cu4   O7    S    
C25   H34   S    
C68   C76   A    
C56   C80   S    
C1    O1    A    
C13   C17   A    
C33   C41   A    
Cu3   O5    S    
C8    O8    A    
Cu4   O16   S    
C21   N1    A    
C3    O11   A    
C21   H6    S    
C2    O10   A    
C78   C81   D    
C43   C51   A    
C5    O5    A    
C77   C82   D    
C9    H2    S    
Cu1   O4    S    
C74   Cl5   S    
C7    O7    A    
Cu3   O15   S    
C8    C33   S    
C64   C72   A    
C65   H29   S    
C57   C81   S    
C38   C46   A    
C42   H14   S    
C67   C75   A    
C73   Cl6   S    
C60   C68   A    
C62   H26   S    
C29   C37   A    
C27   C28   D    
C31   C39   A    
C45   Cl10  S    
Cu1   Cu2   S    
C37   C45   A    
C63   C71   A    
C20   C24   A    
C6    O14   A    
C54   C78   S    
