data_mof_unit_19195.cif
_audit_creation_date              2012-12-10T18:11:06-0500
_audit_creation_method            fapswitch 2.2
_symmetry_space_group_name_H-M    P1
_symmetry_Int_Tables_number       1
_space_group_crystal_system       triclinic
_cell_length_a                    10.781414
_cell_length_b                    9.664445
_cell_length_c                    10.641296
_cell_angle_alpha                 89.53535
_cell_angle_beta                  88.888107
_cell_angle_gamma                 88.932301
_cell_volume                      1108.35000296

loop_
_atom_site_label
_atom_site_type_symbol
_atom_type_description
_atom_site_fract_x
_atom_site_fract_y
_atom_site_fract_z
_atom_type_partial_charge
C1    C     C_R   0.260458 0.500422 0.496977 0.787320
C2    C     C_3   0.491724 0.501311 0.121612 0.041863
C3    C     C_3   0.071980 0.604639 0.597580 -0.442468
C4    C     C_3   0.074762 0.351070 0.531671 -0.419259
C5    C     C_3   0.928028 0.614325 0.600120 0.136628
C6    C     C_3   0.934057 0.353886 0.561642 0.127402
C7    C     C_3   0.068229 0.539781 0.371036 -0.401483
C8    C     C_3   0.121922 0.499113 0.499470 0.095944
C9    C     C_3   0.877754 0.496787 0.515229 0.103263
C10   C     C_3   0.925509 0.525184 0.377491 -0.534947
C11   C     C_3   0.606223 0.077695 0.571737 -0.347101
C12   C     C_3   0.598908 0.914491 0.582243 -0.349128
C13   C     C_3   0.385644 0.085029 0.566353 0.211257
C14   C     C_3   0.379594 0.919605 0.554077 0.175996
C15   C     C_3   0.508040 0.087018 0.370684 0.561422
C16   C     C_3   0.520476 0.918070 0.371200 0.585251
C17   C     C_R   0.496156 0.500424 0.259751 0.807475
C18   C     C_R   0.738821 0.498695 0.510458 0.784747
C19   C     C_R   0.497562 0.500180 0.739637 0.775751
C20   C     C_3   0.410338 0.597964 0.040982 -0.116736
C21   C     C_3   0.459051 0.377039 0.040420 -0.133095
C22   C     C_3   0.378624 0.473353 0.957871 -0.214912
C23   C     C_3   0.493594 0.502379 0.876171 0.043498
C24   C     C_3   0.525158 0.627708 0.956129 -0.130661
C25   C     C_3   0.573923 0.406764 0.956243 -0.192372
C26   C     C_3   0.606142 0.530948 0.038343 -0.189299
Cu1   Cu    Cu3+1 0.499860 0.642410 0.500060 0.967749
Cu2   Cu    Cu3+1 0.499860 0.357590 0.500060 0.948168
H1    H     H_    0.285570 0.449383 0.921758 0.123473
H2    H     H_    0.882231 0.621783 0.339575 0.182393
H3    H     H_    0.898134 0.438990 0.315645 0.174474
H4    H     H_    0.610481 0.119756 0.666368 0.209018
H5    H     H_    0.584092 0.884220 0.681165 0.158675
H6    H     H_    0.697019 0.104385 0.529484 0.133791
H7    H     H_    0.690802 0.867473 0.559408 0.177385
H8    H     H_    0.303429 0.122191 0.514278 0.132000
H9    H     H_    0.306694 0.899996 0.484432 0.158087
H10   H     H_    0.340577 0.675089 0.075293 0.186815
H11   H     H_    0.428694 0.273366 0.070474 0.207646
H12   H     H_    0.551430 0.731194 0.919522 0.117862
H13   H     H_    0.642069 0.328880 0.920797 0.126200
H14   H     H_    0.702256 0.549364 0.068361 0.116399
H15   H     H_    0.106175 0.707884 0.570292 0.186494
H16   H     H_    0.093700 0.281518 0.450248 0.183246
H17   H     H_    0.110773 0.576674 0.690626 0.144671
H18   H     H_    0.127255 0.304408 0.610463 0.147027
H19   H     H_    0.900468 0.715528 0.556620 0.134670
H20   H     H_    0.892500 0.267630 0.508886 0.126303
H21   H     H_    0.092481 0.648275 0.346441 0.193040
H22   H     H_    0.108253 0.472166 0.295785 0.183401
N1    N     N_3   0.500250 0.143650 0.502780 -0.208970
N2    N     N_3   0.500250 0.856350 0.502780 -0.203789
O1    O     O_R   0.317570 0.620260 0.500070 -0.546506
O2    O     O_R   0.317570 0.379740 0.500070 -0.584035
O3    O     O_R   0.499850 0.620240 0.316900 -0.517407
O4    O     O_R   0.499850 0.379760 0.316900 -0.513959
O5    O     O_R   0.682190 0.620260 0.500030 -0.584274
O6    O     O_R   0.682190 0.379740 0.500030 -0.614518
O7    O     O_R   0.499910 0.620280 0.683200 -0.602501
O8    O     O_R   0.499910 0.379720 0.683200 -0.588510
N3    N     N_2   0.360627 0.141298 0.692971 -0.391405
H23   H     H_    0.310153 0.232621 0.697087 0.259149
C27   C     C_3   0.424289 0.107522 0.808914 -0.668436
H24   H     H_    0.492298 0.186987 0.830118 0.230413
H25   H     H_    0.473449 0.007677 0.807579 0.205482
H26   H     H_    0.356022 0.106449 0.888279 0.222539
N4    N     N_2   0.334564 0.850523 0.668575 -0.363506
H27   H     H_    0.395756 0.826152 0.738074 0.274102
C28   C     C_3   0.210711 0.886029 0.715757 -0.719829
H28   H     H_    0.170752 0.794939 0.764402 0.223440
H29   H     H_    0.149019 0.921424 0.639049 0.209083
H30   H     H_    0.213106 0.968398 0.786948 0.251445
Cl1   Cl    Cl    0.368790 0.149320 0.288898 -0.651170
Cl2   Cl    Cl    0.402081 0.857215 0.264799 -0.659037
N5    N     N_2   0.615010 0.147190 0.303288 -0.392306
H31   H     H_    0.687437 0.189499 0.349800 0.247864
C29   C     C_3   0.637105 0.129279 0.169835 -0.668584
H32   H     H_    0.652325 0.231667 0.126971 0.223614
H33   H     H_    0.559806 0.076423 0.123875 0.272263
H34   H     H_    0.725004 0.070850 0.153583 0.207091
N6    N     N_2   0.646550 0.876421 0.326291 -0.395797
H35   H     H_    0.721577 0.922815 0.365787 0.210310
C30   C     C_3   0.677305 0.804092 0.210757 -0.581551
H36   H     H_    0.766678 0.841516 0.171120 0.165589
H37   H     H_    0.606615 0.819860 0.137936 0.257597
H38   H     H_    0.694072 0.693690 0.232441 0.221008
N7    N     N_2   0.879594 0.607404 0.729712 -0.398568
H39   H     H_    0.938133 0.567792 0.797032 0.265448
C31   C     C_3   0.806353 0.723464 0.775413 -0.766298
H40   H     H_    0.796053 0.717073 0.879384 0.223164
H41   H     H_    0.713031 0.717695 0.736252 0.260862
H42   H     H_    0.850714 0.823054 0.750108 0.217898
N8    N     N_2   0.914888 0.333031 0.697000 -0.406261
H43   H     H_    0.989749 0.341327 0.755300 0.249496
C32   C     C_3   0.824271 0.235527 0.739889 -0.748816
H44   H     H_    0.831571 0.219825 0.843008 0.215523
H45   H     H_    0.840304 0.133963 0.693784 0.214695
H46   H     H_    0.731427 0.279917 0.721297 0.262613

loop_
_geom_bond_atom_site_label_1
_geom_bond_atom_site_label_2
_ccdc_geom_bond_type
C7    C10   S    
C15   N5    S    
N7    H39   S    
C27   H25   S    
N8    H43   S    
C22   H1    S    
C1    C8    S    
C32   H44   S    
C4    C8    S    
C6    C9    S    
N6    H35   S    
Cu2   O4    S    
C32   H46   S    
C7    C8    S    
C4    H18   S    
C29   H32   S    
C5    H19   S    
C3    H15   S    
C6    H20   S    
C16   Cl2   S    
C24   C26   S    
Cu2   N1    S    
Cu1   O3    S    
C15   C16   S    
N3    C27   S    
C28   H29   S    
C1    O1    A    
N6    C30   S    
C13   N1    S    
C10   H3    S    
C18   O6    A    
C14   N2    S    
C20   C24   S    
C23   C24   S    
C15   N1    S    
C31   H41   S    
C9    C10   S    
C17   O3    A    
Cu2   O8    S    
C27   H26   S    
N8    C32   S    
C21   C22   S    
C2    C17   S    
C28   H28   S    
C12   N2    S    
C29   H33   S    
C2    C20   S    
N4    H27   S    
C7    H21   S    
C13   H8    S    
C4    C6    S    
C3    C8    S    
Cu1   O5    S    
C25   H13   S    
Cu2   O2    S    
C4    H16   S    
C19   O7    A    
C25   C26   S    
C3    H17   S    
C12   H7    S    
C28   H30   S    
C19   C23   S    
N5    H31   S    
C5    C9    S    
C20   H10   S    
C10   H2    S    
C18   O5    A    
C30   H36   S    
C21   H11   S    
C14   N4    S    
C6    N8    S    
C2    C21   S    
C32   H45   S    
C2    C26   S    
C31   H42   S    
N5    C29   S    
C17   O4    A    
C1    O2    A    
C15   Cl1   S    
C20   C22   S    
C11   H4    S    
N7    C31   S    
Cu1   N2    S    
C26   H14   S    
C29   H34   S    
C21   C25   S    
C30   H37   S    
C11   H6    S    
C16   N2    S    
C7    H22   S    
C3    C5    S    
C11   C12   S    
Cu1   O1    S    
Cu2   O6    S    
C19   O8    A    
C12   H5    S    
Cu1   O7    S    
C14   H9    S    
C16   N6    S    
C24   H12   S    
C23   C25   S    
N3    H23   S    
C11   N1    S    
C27   H24   S    
C5    N7    S    
C9    C18   S    
C30   H38   S    
C13   N3    S    
Cu1   Cu2   S    
C22   C23   S    
N4    C28   S    
C31   H40   S    
C13   C14   S    
