data_mof_unit_40380.cif
_audit_creation_date              2012-12-10T19:10:06-0500
_audit_creation_method            fapswitch 2.2
_symmetry_space_group_name_H-M    P1
_symmetry_Int_Tables_number       1
_space_group_crystal_system       triclinic
_cell_length_a                    10.856053
_cell_length_b                    10.824052
_cell_length_c                    9.572915
_cell_angle_alpha                 90.871864
_cell_angle_beta                  90.863645
_cell_angle_gamma                 90.001244
_cell_volume                      1124.62152372

loop_
_atom_site_label
_atom_site_type_symbol
_atom_type_description
_atom_site_fract_x
_atom_site_fract_y
_atom_site_fract_z
_atom_type_partial_charge
Br1   Br    Br    0.194155 0.722402 0.801569 -0.539229
Br2   Br    Br    0.340577 0.283881 0.148406 -0.555948
Br3   Br    Br    0.143291 0.833670 0.384264 -0.495539
C1    C     C_R   0.503868 0.262512 0.499240 0.812834
C2    C     C_R   0.836994 0.340573 0.970038 -0.129284
C3    C     C_R   0.782652 0.226264 0.939045 -0.093967
C4    C     C_R   0.262265 0.500164 0.498891 0.859053
C5    C     C_R   0.779119 0.181501 0.801347 -0.114002
C6    C     C_R   0.827686 0.251940 0.693915 -0.111477
C7    C     C_R   0.882594 0.366820 0.724520 0.123758
C8    C     C_R   0.525775 0.066201 0.623828 0.086272
C9    C     C_R   0.518785 0.129669 0.498291 -0.077690
C10   C     C_R   0.530254 0.062652 0.372380 -0.171438
C11   C     C_R   0.528515 0.933803 0.373317 -0.181491
C12   C     C_R   0.174614 0.668670 0.987859 0.268522
C13   C     C_R   0.516465 0.871092 0.500326 -0.061914
C14   C     C_R   0.524798 0.939049 0.625128 0.078908
C15   C     C_3   0.444666 0.937677 0.750467 -0.399157
C16   C     C_R   0.502634 0.737762 0.500606 0.838600
C17   C     C_3   0.448306 0.077529 0.750593 -0.442710
C18   C     C_R   0.544308 0.599153 0.075717 0.217339
C19   C     C_R   0.439265 0.410891 0.069481 0.318358
C20   C     C_R   0.441477 0.410503 0.921560 -0.099386
C21   C     C_R   0.541991 0.600340 0.928864 0.272344
C22   C     C_3   0.666020 0.658326 0.923621 -0.484065
C23   C     C_R   0.931314 0.547985 0.392318 -0.210658
C24   C     C_3   0.670810 0.652668 0.082259 -0.499901
C25   C     C_R   0.737463 0.496277 0.501237 0.778998
C26   C     C_R   0.175119 0.753471 0.099775 -0.199175
C27   C     C_R   0.144886 0.714580 0.233976 0.251775
C28   C     C_R   0.112242 0.590286 0.254504 0.054846
C29   C     C_R   0.116330 0.505715 0.142443 -0.201402
C30   C     C_R   0.150266 0.544306 0.010592 -0.184052
C31   C     C_R   0.871240 0.493762 0.503547 -0.081214
C32   C     C_R   0.939985 0.438783 0.612490 0.003429
C33   C     C_R   0.068062 0.444829 0.609661 -0.186571
C34   C     C_R   0.128149 0.498928 0.497329 -0.035718
C35   C     C_R   0.058605 0.548302 0.385927 0.064232
C36   C     C_R   0.887887 0.410009 0.863318 -0.168845
Cu1   Cu    Cu3+1 0.499990 0.499980 0.640670 0.979596
Cu2   Cu    Cu3+1 0.500010 0.500020 0.359330 0.990227
H1    H     H_    0.739771 0.091651 0.778273 0.134250
H2    H     H_    0.734406 0.598863 0.871147 0.226472
H3    H     H_    0.661800 0.754228 0.884153 0.191027
H4    H     H_    0.740278 0.585901 0.121265 0.205309
H5    H     H_    0.673195 0.745311 0.133772 0.196659
H6    H     H_    0.089726 0.410282 0.156605 0.188573
H7    H     H_    0.878853 0.589218 0.308001 0.150030
H8    H     H_    0.121211 0.401501 0.692190 0.147986
H9    H     H_    0.928937 0.498757 0.888044 0.147397
H10   H     H_    0.840202 0.375088 0.076750 0.131048
H11   H     H_    0.744063 0.172000 0.021758 0.126138
H12   H     H_    0.824331 0.216286 0.587584 0.115400
H13   H     H_    0.530153 0.884219 0.274282 0.160003
H14   H     H_    0.152151 0.478270 0.924830 0.169040
H15   H     H_    0.533825 0.108897 0.273065 0.188027
H16   H     H_    0.351784 0.901771 0.724417 0.266824
H17   H     H_    0.490895 0.896940 0.843219 0.189772
H18   H     H_    0.357067 0.120459 0.728877 0.215804
H19   H     H_    0.500161 0.117746 0.841397 0.201198
H20   H     H_    0.195297 0.849855 0.081743 0.193965
H21   H     H_    0.394681 0.338050 0.862702 0.162127
N1    N     N_R   0.500790 0.500930 0.147930 -0.209082
N2    N     N_R   0.500790 0.500890 0.852020 -0.196791
O1    O     O_R   0.500000 0.319640 0.618810 -0.595843
O2    O     O_R   0.500010 0.319680 0.381230 -0.546083
O3    O     O_R   0.319640 0.499990 0.618790 -0.561603
O4    O     O_R   0.319650 0.500030 0.381210 -0.547738
O5    O     O_R   0.499990 0.680320 0.618770 -0.563086
O6    O     O_R   0.500000 0.680360 0.381190 -0.586355
O7    O     O_R   0.680350 0.499970 0.618790 -0.577128
O8    O     O_R   0.680360 0.500010 0.381210 -0.597597

loop_
_geom_bond_atom_site_label_1
_geom_bond_atom_site_label_2
_ccdc_geom_bond_type
Br2   C19   S    
Br3   C27   S    
C19   N1    A    
C8    C9    A    
C30   H14   S    
C34   C35   A    
Br1   C12   S    
Cu1   O7    S    
C1    C9    S    
Cu1   O3    S    
C6    C7    A    
C15   H16   S    
Cu2   O8    S    
C28   C29   A    
Cu1   N2    S    
C28   C35   S    
C23   H7    S    
C23   C31   A    
C10   H15   S    
C29   C30   A    
C22   H2    S    
C14   C15   S    
C18   C24   S    
C25   C31   S    
C21   N2    A    
C26   H20   S    
C25   O8    A    
C10   C11   A    
C9    C10   A    
C17   H18   S    
C1    O2    A    
C24   H4    S    
C26   C27   A    
C13   C16   S    
C2    C3    A    
C24   H5    S    
Cu1   Cu2   S    
C11   H13   S    
C5    H1    S    
C12   C26   A    
Cu2   O4    S    
C15   C17   S    
Cu1   O1    S    
C2    C36   A    
C4    C34   S    
C27   C28   A    
C29   H6    S    
C11   C13   A    
C8    C17   S    
C18   N1    A    
C25   O7    A    
C17   H19   S    
Cu1   O5    S    
Cu2   N1    S    
Cu2   O2    S    
C4    O3    A    
C7    C32   S    
C20   N2    A    
C36   H9    S    
C6    H12   S    
C21   C22   S    
C22   H3    S    
C33   C34   A    
C31   C32   A    
C18   C21   A    
C2    H10   S    
C16   O5    A    
C1    O1    A    
C7    C36   A    
C16   O6    A    
C3    C5    A    
C3    H11   S    
C4    O4    A    
C19   C20   A    
C15   H17   S    
C20   H21   S    
C23   C35   A    
C33   H8    S    
C32   C33   A    
C13   C14   A    
C12   C30   A    
C5    C6    A    
Cu2   O6    S    
C22   C24   S    
C8    C14   A    
