data_mof_unit_23230.cif
_audit_creation_date              2012-12-10T17:30:27-0500
_audit_creation_method            fapswitch 2.2
_symmetry_space_group_name_H-M    P1
_symmetry_Int_Tables_number       1
_space_group_crystal_system       triclinic
_cell_length_a                    12.00236
_cell_length_b                    12.810516
_cell_length_c                    14.940425
_cell_angle_alpha                 89.939181
_cell_angle_beta                  86.991648
_cell_angle_gamma                 94.377276
_cell_volume                      2287.29952621

loop_
_atom_site_label
_atom_site_type_symbol
_atom_type_description
_atom_site_fract_x
_atom_site_fract_y
_atom_site_fract_z
_atom_type_partial_charge
C1    C     C_R   0.523109 0.700216 0.497116 0.891407
C2    C     C_R   0.382744 0.141226 0.447915 -0.390907
C3    C     C_R   0.467861 0.870022 0.448797 0.465790
C4    C     C_R   0.532121 0.129978 0.551213 0.465802
C5    C     C_R   0.461882 0.975917 0.469450 -0.091902
C6    C     C_R   0.538099 0.024084 0.530558 -0.091921
C7    C     C_R   0.950424 0.398958 0.417025 -0.119677
C8    C     C_R   0.049576 0.601042 0.582974 -0.119680
C9    C     C_R   0.834778 0.411013 0.425162 0.086264
C10   C     C_R   0.165222 0.588987 0.574837 0.086279
C11   C     C_R   0.859278 0.542136 0.535403 -0.047291
C12   C     C_R   0.476891 0.299785 0.502884 0.891421
C13   C     C_R   0.140722 0.457864 0.464596 -0.047294
C14   C     C_R   0.976875 0.536708 0.530041 -0.005906
C15   C     C_R   0.023125 0.463292 0.469959 -0.005905
C16   C     C_R   0.501560 0.503337 0.672816 0.869748
C17   C     C_R   0.498439 0.496663 0.327185 0.869731
C18   C     C_R   0.547970 0.411447 0.183545 0.404264
C19   C     C_R   0.451996 0.588535 0.816458 0.404255
C20   C     C_R   0.493862 0.489099 0.231976 -0.187118
C21   C     C_R   0.506132 0.510899 0.768026 -0.187119
C22   C     C_R   0.437497 0.564099 0.189866 -0.276158
C23   C     C_R   0.404171 0.665871 0.964454 -0.026284
C24   C     C_R   0.562508 0.435908 0.810136 -0.276168
C25   C     C_R   0.441361 0.569783 0.097736 0.138261
C26   C     C_R   0.558623 0.430217 0.902265 0.138273
C27   C     C_R   0.497099 0.495339 0.046755 -0.007349
C28   C     C_R   0.502872 0.504655 0.953246 -0.007363
C29   C     C_R   0.546706 0.411849 0.089318 0.051063
C30   C     C_R   0.453262 0.588144 0.910683 0.051098
C31   C     C_R   0.394781 0.652801 0.056927 -0.285616
C32   C     C_R   0.605205 0.347204 0.943073 -0.285621
C33   C     C_2   0.990794 0.317857 0.354420 0.415841
C34   C     C_R   0.595805 0.334131 0.035545 -0.026326
C35   C     C_2   0.009206 0.682144 0.645579 0.415844
C36   C     C_2   0.368660 0.765961 0.930078 0.578825
C37   C     C_2   0.631352 0.234061 0.069920 0.578896
C38   C     C_R   0.460138 0.188204 0.504088 -0.230928
C39   C     C_R   0.539858 0.811799 0.495913 -0.230931
C40   C     C_R   0.618795 0.965370 0.569175 0.558778
C41   C     C_R   0.381195 0.034634 0.430827 0.558774
C42   C     C_R   0.617254 0.858778 0.552083 -0.390909
H1    H     H_    0.396369 0.622556 0.229408 0.178418
H2    H     H_    0.777263 0.363409 0.385894 0.192333
H3    H     H_    0.570193 0.322861 0.286110 0.339354
H4    H     H_    0.429771 0.677135 0.713914 0.339356
H5    H     H_    0.074268 0.291930 0.356227 0.054493
H6    H     H_    0.925732 0.708072 0.643771 0.054490
H7    H     H_    0.291344 0.795573 0.956679 0.050479
H8    H     H_    0.708683 0.204483 0.043310 0.050429
H9    H     H_    0.562335 0.237221 0.641438 0.317026
H10   H     H_    0.437614 0.762767 0.358588 0.317041
H11   H     H_    0.746574 0.959504 0.644623 0.331806
H12   H     H_    0.603657 0.377462 0.770594 0.178431
H13   H     H_    0.253420 0.040505 0.355377 0.331804
H14   H     H_    0.355911 0.711278 0.098000 0.158365
H15   H     H_    0.644093 0.288734 0.902001 0.158360
H16   H     H_    0.326950 0.188798 0.413819 0.169434
H17   H     H_    0.673060 0.811209 0.586168 0.169435
H18   H     H_    0.181236 0.405867 0.419007 0.117884
H19   H     H_    0.818764 0.594133 0.580994 0.117883
H20   H     H_    0.222737 0.636591 0.614106 0.192341
N1    N     N_R   0.207800 0.519350 0.516680 -0.122809
N2    N     N_R   0.792200 0.480650 0.483320 -0.122808
O1    O     O_R   0.421700 0.658830 0.504450 -0.605580
O2    O     O_3   0.392552 0.660125 0.773435 -0.716916
O3    O     O_2   0.929412 0.277007 0.299620 -0.533635
O4    O     O_2   0.070587 0.722995 0.700379 -0.533628
O5    O     O_2   0.429428 0.820086 0.877508 -0.513588
O6    O     O_2   0.570603 0.179922 0.122494 -0.513510
O7    O     O_3   0.597994 0.175746 0.616065 -0.669785
O8    O     O_3   0.401969 0.824250 0.383959 -0.669782
O9    O     O_3   0.696729 0.012197 0.624500 -0.667698
O10   O     O_3   0.303278 0.987815 0.375483 -0.667693
O11   O     O_R   0.578300 0.341170 0.495550 -0.605569
O12   O     O_R   0.609310 0.646410 0.493750 -0.617379
O13   O     O_R   0.390690 0.353590 0.506250 -0.617387
O14   O     O_R   0.406180 0.506230 0.637500 -0.603264
O15   O     O_R   0.593820 0.493770 0.362500 -0.603286
O16   O     O_R   0.593800 0.493820 0.626800 -0.622366
O17   O     O_R   0.406200 0.506180 0.373200 -0.622368
O18   O     O_3   0.607384 0.339832 0.226573 -0.716897
Zn1   Zn    Zn3+2 0.374730 0.508290 0.507150 0.972269
Zn2   Zn    Zn3+2 0.625270 0.491710 0.492850 0.972270

loop_
_geom_bond_atom_site_label_1
_geom_bond_atom_site_label_2
_ccdc_geom_bond_type
C25   C31   A    
C26   C32   A    
C16   C21   S    
C27   C29   A    
C9    N2    A    
C10   N1    A    
O16   Zn2   S    
O12   Zn2   S    
C13   H18   S    
C19   C21   A    
C24   C26   A    
H4    O2    S    
C5    C6    A    
C11   C14   A    
O11   Zn2   S    
O1    Zn1   S    
O13   Zn1   S    
C2    C41   A    
C24   H12   S    
C34   C37   S    
C17   O15   A    
C17   C20   S    
C40   O9    S    
C19   O2    S    
N2    Zn2   S    
C41   O10   S    
H13   O10   S    
O14   Zn1   S    
H3    O18   S    
C22   C25   A    
C1    O1    A    
C31   H14   S    
C17   O17   A    
C16   O14   A    
C40   C42   A    
C3    C39   A    
C37   O6    D    
C7    C33   S    
C10   H20   S    
H9    O7    S    
C32   H15   S    
C35   H6    S    
O17   Zn1   S    
C39   C42   A    
C23   C30   A    
C4    C6    A    
C11   N2    A    
C11   H19   S    
C29   C34   A    
N1    Zn1   S    
C16   O16   A    
C8    C35   S    
C23   C31   A    
H10   O8    S    
C2    C38   A    
C22   H1    S    
C13   N1    A    
C12   O13   A    
C18   C29   A    
C20   C22   A    
C13   C15   A    
C33   H5    S    
C6    C40   A    
C12   O11   A    
C36   O5    D    
C33   O3    D    
C7    C9    A    
C5    C41   A    
C9    H2    S    
C8    C14   A    
C1    O12   A    
H11   O9    S    
C4    C38   A    
C3    C5    A    
C42   H17   S    
C2    H16   S    
C25   C27   A    
C26   C28   A    
C28   C30   A    
C3    O8    S    
C37   H8    S    
O15   Zn2   S    
C35   O4    D    
C7    C15   A    
C18   O18   S    
C18   C20   A    
C12   C38   S    
C1    C39   S    
C8    C10   A    
C23   C36   S    
C21   C24   A    
C27   C28   A    
C14   C15   A    
C19   C30   A    
C4    O7    S    
C36   H7    S    
C32   C34   A    
