data_mof_unit_22556.cif
_audit_creation_date              2012-12-10T18:23:01-0500
_audit_creation_method            fapswitch 2.2
_symmetry_space_group_name_H-M    P1
_symmetry_Int_Tables_number       1
_space_group_crystal_system       triclinic
_cell_length_a                    14.926938
_cell_length_b                    14.276117
_cell_length_c                    10.712956
_cell_angle_alpha                 89.812815
_cell_angle_beta                  90.352154
_cell_angle_gamma                 89.665065
_cell_volume                      2282.82256115

loop_
_atom_site_label
_atom_site_type_symbol
_atom_type_description
_atom_site_fract_x
_atom_site_fract_y
_atom_site_fract_z
_atom_type_partial_charge
C1    C     C_R   0.327318 0.500152 0.505577 0.923428
C2    C     C_R   0.950173 0.584182 0.305956 -0.210492
C3    C     C_R   0.578508 0.798908 0.484731 0.256030
C4    C     C_R   0.423644 0.201876 0.529633 0.258547
C5    C     C_R   0.421546 0.799843 0.514876 0.257425
C6    C     C_R   0.576592 0.201209 0.470780 0.249399
C7    C     C_R   0.421589 0.899984 0.528023 -0.070004
C8    C     C_R   0.580047 0.100444 0.475862 -0.080251
C9    C     C_R   0.578669 0.899091 0.472220 -0.068711
C10   C     C_R   0.420316 0.101268 0.524248 -0.078658
C11   C     C_R   0.500159 0.950027 0.500148 -0.057909
C12   C     C_R   0.672517 0.499888 0.499881 0.919598
C13   C     C_R   0.500164 0.050638 0.499968 -0.055224
C14   C     C_R   0.344055 0.951281 0.562771 0.177018
C15   C     C_R   0.659640 0.047759 0.452146 0.174914
C16   C     C_R   0.656244 0.949526 0.437632 0.182646
C17   C     C_R   0.340744 0.049636 0.548416 0.173551
C18   C     C_R   0.496317 0.500085 0.257302 0.899431
C19   C     C_R   0.508065 0.499867 0.741873 0.893464
C20   C     C_3   0.460237 0.577993 0.034987 0.182892
C21   C     C_3   0.545287 0.421271 0.963091 0.190651
C22   C     C_3   0.548489 0.575447 0.963102 0.207903
C23   C     C_R   0.952617 0.506520 0.509122 0.032651
C24   C     C_3   0.457105 0.423619 0.035451 0.149490
C25   C     C_3   0.417708 0.502491 0.950951 0.086240
C26   C     C_3   0.587378 0.497155 0.047559 0.127347
C27   C     C_3   0.507635 0.499854 0.877707 -0.275488
C28   C     C_3   0.498073 0.499891 0.121111 -0.292373
C29   C     C_R   0.812715 0.545344 0.408239 -0.337688
C30   C     C_R   0.185972 0.465330 0.607001 -0.352209
C31   C     C_R   0.767859 0.500275 0.504055 -0.091204
C32   C     C_R   0.231225 0.501035 0.505049 -0.085230
C33   C     C_R   0.813027 0.460112 0.605754 0.122039
C34   C     C_R   0.046111 0.506847 0.507818 0.039445
C35   C     C_R   0.185738 0.535509 0.400257 0.150560
C36   C     C_R   0.906686 0.465688 0.610965 0.060524
C37   C     C_R   0.092026 0.542407 0.402493 0.056953
C38   C     C_3   0.333786 0.509239 0.867244 -0.373202
C39   C     C_3   0.244663 0.520630 0.933458 -0.935403
C40   C     C_3   0.675871 0.498654 0.120443 -0.373537
C41   C     C_3   0.758084 0.496237 0.037340 -0.897679
C42   C     C_3   0.386769 0.730916 0.997395 -0.830817
C43   C     C_3   0.626322 0.271302 0.992487 -0.856167
C44   C     C_3   0.631266 0.720662 0.006616 -0.822777
C45   C     C_R   0.905046 0.545984 0.407614 0.136070
C46   C     C_3   0.366299 0.280547 0.009892 -0.841345
C47   C     C_3   0.766562 0.319656 0.718692 -0.765427
C48   C     C_3   0.251074 0.460272 0.224984 -0.782900
C49   C     C_3   0.712528 0.759582 0.605120 -0.725059
C50   C     C_3   0.338251 0.252637 0.708047 -0.786288
C51   C     C_3   0.287311 0.768405 0.392935 -0.738988
C52   C     C_3   0.664441 0.255632 0.296379 -0.776445
C53   C     C_3   0.277659 0.894510 0.752847 -0.859349
C54   C     C_3   0.794269 0.088923 0.563862 -0.869552
C55   C     C_3   0.721909 0.893872 0.246532 -0.859616
C56   C     C_R   0.093615 0.467853 0.609720 0.138464
C57   C     C_3   0.206926 0.097881 0.437877 -0.851701
C58   C     C_R   0.955498 0.430599 0.713621 -0.217938
C59   C     C_R   0.042900 0.580805 0.301999 -0.227810
C60   C     C_R   0.048365 0.431400 0.712620 -0.221046
H1    H     H_    0.775558 0.578524 0.333141 0.146679
H2    H     H_    0.341231 0.569646 0.802619 0.212344
H3    H     H_    0.332457 0.445134 0.810098 0.196748
H4    H     H_    0.764636 0.426885 0.992463 0.265482
H5    H     H_    0.754338 0.551959 0.965129 0.273757
H6    H     H_    0.818953 0.507598 0.095150 0.245497
H7    H     H_    0.676734 0.563272 0.177158 0.194783
H8    H     H_    0.678517 0.438845 0.186226 0.201116
H9    H     H_    0.366037 0.642244 0.148077 0.236167
H10   H     H_    0.357733 0.791052 0.049029 0.238105
H11   H     H_    0.334889 0.703609 0.933026 0.249829
H12   H     H_    0.222346 0.434073 0.683153 0.160122
H13   H     H_    0.444023 0.757262 0.942801 0.255354
H14   H     H_    0.547824 0.307363 0.842171 0.247978
H15   H     H_    0.660161 0.215647 0.937729 0.239636
H16   H     H_    0.573526 0.237893 0.049345 0.242617
H17   H     H_    0.677493 0.304267 0.052326 0.264455
H18   H     H_    0.563165 0.689221 0.843057 0.240271
H19   H     H_    0.651457 0.786662 0.959640 0.231374
H20   H     H_    0.691679 0.691353 0.052874 0.254515
H21   H     H_    0.580084 0.737667 0.077867 0.268382
H22   H     H_    0.451617 0.308580 0.156223 0.251122
H23   H     H_    0.922739 0.401691 0.794667 0.165439
H24   H     H_    0.328055 0.229547 0.066692 0.242723
H25   H     H_    0.415271 0.240932 0.953002 0.242035
H26   H     H_    0.317722 0.319146 0.950645 0.262721
H27   H     H_    0.767046 0.457359 0.786675 0.227194
H28   H     H_    0.791566 0.300623 0.813339 0.224019
H29   H     H_    0.811638 0.287077 0.648800 0.235467
H30   H     H_    0.698295 0.290646 0.706875 0.260341
H31   H     H_    0.216822 0.602363 0.231205 0.206245
H32   H     H_    0.304485 0.471077 0.156763 0.275345
H33   H     H_    0.188554 0.436252 0.178775 0.240792
H34   H     H_    0.074537 0.609009 0.219866 0.146449
H35   H     H_    0.274859 0.404544 0.289911 0.259344
H36   H     H_    0.695318 0.739447 0.409690 0.248495
H37   H     H_    0.738042 0.832074 0.614230 0.218724
H38   H     H_    0.770445 0.710445 0.603843 0.236353
H39   H     H_    0.670722 0.742639 0.687344 0.239656
H40   H     H_    0.292959 0.256434 0.519947 0.258252
H41   H     H_    0.274047 0.287010 0.732604 0.220540
H42   H     H_    0.394165 0.291009 0.751985 0.256239
H43   H     H_    0.337372 0.179907 0.744970 0.232135
H44   H     H_    0.304312 0.741109 0.586753 0.247673
H45   H     H_    0.084871 0.402488 0.791757 0.147179
H46   H     H_    0.268864 0.843430 0.383223 0.220599
H47   H     H_    0.224593 0.727357 0.396274 0.227311
H48   H     H_    0.326391 0.746886 0.310060 0.242295
H49   H     H_    0.707771 0.251581 0.484009 0.260373
H50   H     H_    0.671877 0.183978 0.257811 0.229742
H51   H     H_    0.725956 0.295870 0.275349 0.228033
H52   H     H_    0.606207 0.290398 0.251448 0.255730
H53   H     H_    0.207428 0.924776 0.588741 0.236072
H54   H     H_    0.221476 0.851247 0.787707 0.246172
H55   H     H_    0.274871 0.964310 0.798308 0.241355
H56   H     H_    0.913624 0.614832 0.228038 0.142120
H57   H     H_    0.341603 0.858873 0.778331 0.253941
H58   H     H_    0.783019 0.076078 0.370600 0.235665
H59   H     H_    0.856228 0.130984 0.554933 0.247349
H60   H     H_    0.813241 0.015728 0.588034 0.239495
H61   H     H_    0.753254 0.118558 0.640561 0.251794
H62   H     H_    0.792767 0.921280 0.410235 0.236458
H63   H     H_    0.777637 0.849795 0.210919 0.244544
H64   H     H_    0.725152 0.964100 0.201806 0.241404
H65   H     H_    0.657616 0.859884 0.220993 0.256109
H66   H     H_    0.217114 0.078178 0.630535 0.235547
H67   H     H_    0.222562 0.452332 0.970972 0.264565
H68   H     H_    0.145026 0.140464 0.449001 0.248804
H69   H     H_    0.188042 0.025951 0.409020 0.235997
H70   H     H_    0.248205 0.130446 0.363619 0.249487
H71   H     H_    0.248712 0.574328 0.007520 0.275944
H72   H     H_    0.192970 0.544310 0.865267 0.257301
N1    N     N_R   0.500000 0.750030 0.500000 -0.147657
N2    N     N_2   0.349892 0.254011 0.574613 -0.238459
N3    N     N_2   0.339351 0.751373 0.505365 -0.241012
N4    N     N_2   0.651046 0.253208 0.429314 -0.237844
N5    N     N_2   0.270309 0.904530 0.618790 -0.318422
N6    N     N_2   0.744674 0.092147 0.447382 -0.315917
N7    N     N_2   0.729703 0.902281 0.380653 -0.319206
N8    N     N_2   0.255971 0.095553 0.554813 -0.314273
N9    N     N_R   0.500000 0.249970 0.500000 -0.146078
N10   N     N_2   0.415284 0.659649 0.085528 -0.280810
N11   N     N_2   0.587414 0.339270 0.908297 -0.275537
N12   N     N_2   0.596582 0.655808 0.914902 -0.296576
N13   N     N_2   0.412610 0.343827 0.091736 -0.292617
N14   N     N_2   0.762546 0.420555 0.704830 -0.298023
N15   N     N_2   0.235095 0.547619 0.288733 -0.327741
N16   N     N_2   0.660604 0.749060 0.491480 -0.246040
O1    O     O_R   0.367850 0.580280 0.500030 -0.593907
O2    O     O_R   0.632150 0.419720 0.499970 -0.585924
O3    O     O_R   0.632150 0.580280 0.499970 -0.610331
O4    O     O_R   0.367850 0.419720 0.500030 -0.611722
O5    O     O_R   0.499970 0.580260 0.313950 -0.604298
O6    O     O_R   0.500030 0.419740 0.686050 -0.630089
O7    O     O_R   0.500030 0.580260 0.686050 -0.638700
O8    O     O_R   0.499970 0.419740 0.313950 -0.631962
Zn1   Zn    Zn3+2 0.500000 0.607200 0.500000 0.959197
Zn2   Zn    Zn3+2 0.500000 0.392800 0.500000 0.951853

loop_
_geom_bond_atom_site_label_1
_geom_bond_atom_site_label_2
_ccdc_geom_bond_type
H14   N11   S    
C34   C56   A    
C8    C13   A    
C23   C45   A    
H44   N3    S    
C54   H60   S    
O7    Zn1   S    
C34   C37   A    
C19   O7    A    
C43   N11   S    
C12   O3    A    
C21   C26   S    
C57   H68   S    
H31   N15   S    
C7    C11   A    
H66   N8    S    
C53   N5    S    
O3    Zn1   S    
C57   H69   S    
C35   C37   A    
C9    C16   A    
H62   N7    S    
O6    Zn2   S    
C36   C58   A    
C24   N13   S    
C38   C39   S    
C53   H57   S    
C46   N13   S    
C20   C25   S    
C52   H52   S    
C10   C17   A    
C58   C60   A    
C15   C16   A    
C48   N15   S    
C42   H10   S    
C33   C36   A    
C55   N7    S    
C1    O4    A    
C6    N4    S    
C49   H38   S    
C2    H56   S    
C7    C14   A    
C55   H65   S    
C51   H48   S    
C40   H7    S    
C42   N10   S    
C48   H32   S    
C31   C33   A    
C1    O1    A    
C59   H34   S    
C19   C27   S    
C46   H25   S    
C21   C27   S    
C47   N14   S    
C50   H43   S    
C54   H59   S    
H49   N4    S    
C47   H29   S    
C14   C17   A    
C51   N3    S    
C12   O2    A    
H40   N2    S    
C55   H63   S    
C2    C45   A    
C43   H15   S    
H36   N16   S    
C29   H1    S    
C39   H67   S    
C48   H33   S    
C32   C35   A    
C20   N10   S    
C57   H70   S    
C44   H20   S    
C18   C28   S    
C24   C25   S    
C21   N11   S    
C44   H21   S    
C50   N2    S    
C48   H35   S    
C4    N9    A    
C5    C7    A    
C2    C59   A    
C41   H5    S    
C20   C28   S    
C52   H51   S    
H9    N10   S    
C30   C56   A    
C1    C32   S    
C56   C60   A    
C49   N16   S    
C29   C45   A    
C3    N1    A    
C5    N1    A    
C3    C9    A    
H18   N12   S    
C25   C38   S    
C49   H39   S    
C14   N5    S    
C52   H50   S    
C44   N12   S    
C23   C34   A    
C35   N15   S    
C6    N9    A    
C9    C11   A    
C37   C59   A    
C18   O5    A    
O4    Zn2   S    
C46   H24   S    
C6    C8    A    
C40   C41   S    
C54   H61   S    
C20   C22   S    
C50   H42   S    
C8    C15   A    
C22   C27   S    
C12   C31   S    
C22   C26   S    
C52   N4    S    
C47   H30   S    
H53   N5    S    
C16   N7    S    
C25   C27   S    
C4    C10   A    
C39   H72   S    
H22   N13   S    
C18   O8    A    
C53   H54   S    
C4    N2    S    
C38   H3    S    
C43   H16   S    
C5    N3    S    
C55   H64   S    
C42   H13   S    
O2    Zn2   S    
C44   H19   S    
C24   C28   S    
C10   C13   A    
H27   N14   S    
C30   H12   S    
C41   H6    S    
C43   H17   S    
C26   C28   S    
C47   H28   S    
C15   N6    S    
O8    Zn2   S    
C29   C31   A    
C58   H23   S    
C30   C32   A    
C11   C13   A    
C26   C40   S    
C54   N6    S    
C39   H71   S    
C51   H46   S    
C42   H11   S    
C17   N8    S    
N1    Zn1   S    
O5    Zn1   S    
C33   N14   S    
C49   H37   S    
N9    Zn2   S    
C3    N16   S    
C57   N8    S    
C50   H41   S    
C51   H47   S    
C23   C36   A    
C40   H8    S    
C21   C24   S    
C22   N12   S    
C19   O6    A    
C41   H4    S    
C38   H2    S    
H58   N6    S    
O1    Zn1   S    
C60   H45   S    
C53   H55   S    
C46   H26   S    
