data_mof_unit_64268.cif
_audit_creation_date              2012-10-26T18:04:21-0400
_audit_creation_method            fapswitch 2.2
_symmetry_space_group_name_H-M    P1
_symmetry_Int_Tables_number       1
_space_group_crystal_system       triclinic
_cell_length_a                    38.6859
_cell_length_b                    32.238486
_cell_length_c                    21.423946
_cell_angle_alpha                 89.993394
_cell_angle_beta                  123.560331
_cell_angle_gamma                 90.010455
_cell_volume                      22265.3928998

loop_
_atom_site_label
_atom_site_type_symbol
_atom_type_description
_atom_site_fract_x
_atom_site_fract_y
_atom_site_fract_z
_atom_type_partial_charge
C1    C     C_R   0.920407 0.000002 0.420480 0.557296
C2    C     C_R   0.271731 0.980127 0.819779 -0.105115
C3    C     C_R   0.982815 0.228424 0.932550 -0.105775
C4    C     C_R   0.516450 0.728420 0.067294 -0.105785
C5    C     C_R   0.483567 0.728424 0.932734 -0.105792
C6    C     C_R   0.000010 0.206552 0.000014 0.038173
C7    C     C_R   0.500010 0.706552 0.000014 0.038185
C8    C     C_1   0.500003 0.838520 0.000014 -0.057453
C9    C     C_1   0.000003 0.338520 0.000014 -0.057412
C10   C     C_3   0.984076 0.963977 0.754937 -0.084397
C11   C     C_3   0.014709 0.963479 0.243856 -0.084144
C12   C     C_3   0.484284 0.463886 0.755146 -0.084334
C13   C     C_R   0.228267 0.484286 0.176850 -0.105108
C14   C     C_3   0.514590 0.463431 0.243737 -0.084127
C15   C     C_1   0.000010 0.161770 0.000012 -0.060458
C16   C     C_1   0.500010 0.661770 0.000012 -0.060469
C17   C     C_1   0.000008 0.124292 0.000009 -0.027681
C18   C     C_1   0.500008 0.624293 0.000009 -0.027696
C19   C     C_1   0.500001 0.876000 0.000011 -0.021785
C20   C     C_1   0.000002 0.376000 0.000011 -0.021749
C21   C     C_3   0.000149 0.000102 0.811221 0.024146
C22   C     C_3   0.999855 0.000121 0.188783 0.024185
C23   C     C_3   0.500149 0.500104 0.811220 0.024174
C24   C     C_R   0.771727 0.484210 0.823089 -0.105115
C25   C     C_3   0.499856 0.500122 0.188784 0.024170
C26   C     C_3   0.977294 0.032321 0.748091 -0.121982
C27   C     C_3   0.023781 0.031561 0.252972 -0.122370
C28   C     C_3   0.477108 0.532191 0.747904 -0.122037
C29   C     C_3   0.523886 0.531483 0.253077 -0.122386
C30   C     C_3   0.016665 0.036040 0.746087 -0.145410
C31   C     C_3   0.984562 0.036587 0.255127 -0.145627
C32   C     C_3   0.516456 0.536136 0.745877 -0.145489
C33   C     C_3   0.484684 0.536637 0.255249 -0.145649
C34   C     C_3   0.039541 0.003986 0.810427 -0.138008
C35   C     C_R   0.706324 0.999960 0.206283 0.037405
C36   C     C_3   0.960618 0.005313 0.189733 -0.137959
C37   C     C_3   0.539517 0.504215 0.810401 -0.138067
C38   C     C_3   0.460637 0.505443 0.189752 -0.137969
C39   C     C_3   0.023449 0.968016 0.752944 -0.138223
C40   C     C_3   0.975492 0.968827 0.246012 -0.137948
C41   C     C_3   0.523633 0.468152 0.753127 -0.138190
C42   C     C_3   0.475391 0.468909 0.245911 -0.137923
C43   C     C_R   0.293676 0.999973 0.793718 0.037488
C44   C     C_R   0.206324 0.499960 0.206283 0.037398
C45   C     C_R   0.793676 0.499972 0.793719 0.037403
C46   C     C_R   0.728126 0.015755 0.279444 -0.105119
C47   C     C_R   0.271876 0.019808 0.723831 -0.105071
C48   C     C_R   0.228126 0.515620 0.279537 -0.105128
C49   C     C_R   0.079593 0.000007 0.579519 0.556942
C50   C     C_R   0.771879 0.515725 0.720527 -0.105099
C51   C     C_R   0.771572 0.015747 0.322962 -0.104011
C52   C     C_R   0.228430 0.019802 0.680310 -0.104251
C53   C     C_R   0.271572 0.515612 0.323055 -0.104031
C54   C     C_R   0.728433 0.515720 0.677010 -0.104112
C55   C     C_R   0.793513 0.999947 0.293611 0.038493
C56   C     C_R   0.206488 0.999964 0.706383 0.038498
C57   C     C_R   0.293513 0.499947 0.293611 0.038498
C58   C     C_R   0.706487 0.499966 0.706391 0.038532
C59   C     C_R   0.771712 0.984147 0.220457 -0.105987
C60   C     C_R   0.420407 0.500002 0.420480 0.557201
C61   C     C_R   0.228286 0.980125 0.776262 -0.105788
C62   C     C_R   0.271712 0.484281 0.220363 -0.105990
C63   C     C_R   0.728282 0.484209 0.779576 -0.105927
C64   C     C_1   0.661536 0.999971 0.161422 -0.057271
C65   C     C_1   0.338464 0.999978 0.838579 -0.057251
C66   C     C_1   0.161536 0.499970 0.161422 -0.057297
C67   C     C_1   0.838464 0.499977 0.838578 -0.057297
C68   C     C_1   0.838297 0.999965 0.338435 -0.057390
C69   C     C_1   0.161704 0.999983 0.661561 -0.057602
C70   C     C_1   0.338297 0.499965 0.338435 -0.057424
C71   C     C_R   0.579593 0.500007 0.579520 0.556832
C72   C     C_1   0.661703 0.499984 0.661565 -0.057583
C73   C     C_1   0.875775 0.999982 0.375903 -0.021516
C74   C     C_1   0.124225 0.999997 0.624094 -0.021943
C75   C     C_1   0.375775 0.499982 0.375904 -0.021588
C76   C     C_1   0.624225 0.499997 0.624096 -0.021954
C77   C     C_R   0.000264 0.000010 0.620837 0.570817
C78   C     C_R   0.999741 0.000017 0.379167 0.570442
C79   C     C_R   0.500263 0.500011 0.620836 0.570704
C80   C     C_R   0.499742 0.500017 0.379168 0.570384
C81   C     C_1   0.624054 0.999981 0.123916 -0.021706
C82   C     C_3   0.000685 0.000049 0.689528 0.067669
C83   C     C_1   0.375946 0.999985 0.876085 -0.021718
C84   C     C_1   0.124054 0.499981 0.123916 -0.021731
C85   C     C_1   0.875946 0.499984 0.876084 -0.021730
C86   C     C_R   0.999997 0.920447 0.999998 0.552795
C87   C     C_R   0.499997 0.420447 0.999998 0.552809
C88   C     C_R   0.000039 0.000091 0.879390 0.555591
C89   C     C_R   0.999962 0.000102 0.120610 0.555592
C90   C     C_R   0.500039 0.500093 0.879390 0.555599
C91   C     C_R   0.499962 0.500102 0.120610 0.555601
C92   C     C_R   0.000002 0.079660 0.000002 0.553539
C93   C     C_3   0.999324 0.000080 0.310480 0.067612
C94   C     C_R   0.500003 0.579661 0.000002 0.553546
C95   C     C_R   0.500000 0.920637 0.000003 0.551620
C96   C     C_R   0.000000 0.420637 0.000003 0.551660
C97   C     C_R   0.579414 0.999998 0.079330 0.551717
C98   C     C_R   0.420586 0.999998 0.920670 0.551626
C99   C     C_R   0.079414 0.499998 0.079330 0.551722
C100  C     C_R   0.920586 0.499998 0.920670 0.551721
C101  C     C_R   0.500000 0.079473 0.999997 0.551899
C102  C     C_R   1.000000 0.579473 0.999997 0.551955
C103  C     C_R   0.484707 0.228236 0.036402 -0.105060
C104  C     C_3   0.500684 0.500053 0.689527 0.067665
C105  C     C_R   0.515275 0.228251 0.963559 -0.105071
C106  C     C_R   0.984833 0.728236 0.036611 -0.105034
C107  C     C_R   0.015150 0.728251 0.963352 -0.105056
C108  C     C_R   0.499992 0.206373 0.999981 0.037346
C109  C     C_R   0.999992 0.706373 0.999981 0.037368
C110  C     C_R   0.015147 0.771694 0.963350 -0.105333
C111  C     C_R   0.984832 0.771679 0.036613 -0.105307
C112  C     C_R   0.515272 0.271694 0.963558 -0.105340
C113  C     C_R   0.484706 0.271679 0.036404 -0.105328
C114  C     C_3   0.962362 0.996286 0.692190 0.114259
C115  C     C_3   0.499327 0.500082 0.310483 0.067632
C116  C     C_3   0.037498 0.995042 0.307664 0.114074
C117  C     C_3   0.462383 0.496069 0.692213 0.114258
C118  C     C_3   0.537483 0.494919 0.307648 0.114177
C119  C     C_R   0.999989 0.793556 0.999982 0.038286
C120  C     C_R   0.499989 0.293556 0.999982 0.038272
C121  C     C_1   0.499995 0.161589 0.999984 -0.057356
C122  C     C_1   0.999995 0.661589 0.999984 -0.057323
C123  C     C_1   0.999990 0.838338 0.999986 -0.059622
C124  C     C_1   0.499990 0.338338 0.999986 -0.059641
C125  C     C_1   0.999992 0.875816 0.999991 -0.027243
C126  C     C_R   0.728267 0.984152 0.176943 -0.105093
C127  C     C_1   0.499992 0.375816 0.999990 -0.027265
C128  C     C_1   0.499998 0.124109 0.999988 -0.021778
C129  C     C_1   0.999998 0.624109 0.999988 -0.021744
C130  C     C_R   0.483564 0.771867 0.932734 -0.105337
C131  C     C_R   0.516449 0.771863 0.067294 -0.105337
C132  C     C_R   0.982812 0.271867 0.932550 -0.105312
C133  C     C_R   0.017202 0.271863 0.067479 -0.105324
C134  C     C_R   0.500005 0.793736 0.000014 0.037395
C135  C     C_R   0.000006 0.293736 0.000015 0.037430
C136  C     C_R   0.017203 0.228420 0.067478 -0.105779
Cu1   Cu    Cu3+1 1.000000 0.041030 0.500000 0.930768
Cu2   Cu    Cu3+1 0.499990 0.000050 0.937250 0.950887
Cu3   Cu    Cu3+1 0.000010 0.500050 0.062750 0.950751
Cu4   Cu    Cu3+1 0.999990 0.500050 0.937250 0.950734
Cu5   Cu    Cu3+1 0.500000 0.541030 0.500000 0.930824
Cu6   Cu    Cu3+1 0.000000 0.958990 0.500000 0.961353
Cu7   Cu    Cu3+1 0.500000 0.458990 0.500000 0.961652
Cu8   Cu    Cu3+1 0.041030 0.000050 0.040990 0.934569
Cu9   Cu    Cu3+1 0.958970 0.000050 0.959010 0.934422
Cu10  Cu    Cu3+1 0.541030 0.500050 0.040990 0.934348
Cu11  Cu    Cu3+1 0.458970 0.500050 0.959010 0.934363
Cu12  Cu    Cu3+1 0.500010 0.000050 0.062750 0.950887
H1    H     H_    0.970144 0.934799 0.758869 0.117837
H2    H     H_    0.026950 0.788214 0.934827 0.110570
H3    H     H_    0.472806 0.288187 0.064767 0.110628
H4    H     H_    0.527172 0.288214 0.935197 0.110598
H5    H     H_    0.472806 0.211717 0.064762 0.112963
H6    H     H_    0.527177 0.211744 0.935201 0.112930
H7    H     H_    0.973029 0.711717 0.065132 0.112951
H8    H     H_    0.026955 0.711745 0.934831 0.112914
H9    H     H_    0.969427 0.211912 0.880016 0.109787
H10   H     H_    0.030592 0.211905 0.120012 0.109787
H11   H     H_    0.470766 0.711912 0.880344 0.109745
H12   H     H_    0.027651 0.933855 0.238934 0.117444
H13   H     H_    0.529252 0.711905 0.119684 0.109760
H14   H     H_    0.470760 0.788381 0.880343 0.112634
H15   H     H_    0.529251 0.788374 0.119685 0.112618
H16   H     H_    0.969422 0.288381 0.880016 0.112608
H17   H     H_    0.030590 0.288374 0.120013 0.112590
H18   H     H_    0.957878 0.058213 0.746402 0.111453
H19   H     H_    0.044057 0.056792 0.255514 0.111939
H20   H     H_    0.457542 0.557970 0.746067 0.111525
H21   H     H_    0.544245 0.556647 0.255702 0.111986
H22   H     H_    0.030234 0.065358 0.741685 0.124948
H23   H     H_    0.470520 0.434629 0.759251 0.117758
H24   H     H_    0.971986 0.066344 0.260501 0.125250
H25   H     H_    0.529855 0.565533 0.741305 0.124938
H26   H     H_    0.472206 0.566436 0.260720 0.125266
H27   H     H_    0.071619 0.007217 0.860656 0.131645
H28   H     H_    0.928667 0.009617 0.139627 0.131400
H29   H     H_    0.571577 0.507633 0.860611 0.131470
H30   H     H_    0.428701 0.509853 0.139661 0.131369
H31   H     H_    0.042488 0.941919 0.754016 0.119722
H32   H     H_    0.955591 0.943380 0.244104 0.119228
H33   H     H_    0.542822 0.442166 0.754344 0.119667
H34   H     H_    0.527434 0.433765 0.238716 0.117376
H35   H     H_    0.455407 0.443527 0.243922 0.119180
H36   H     H_    0.788280 0.971843 0.197084 0.109693
H37   H     H_    0.211716 0.964676 0.797082 0.110062
H38   H     H_    0.288280 0.472082 0.196919 0.109680
H39   H     H_    0.711710 0.471940 0.802972 0.109717
H40   H     H_    0.711808 0.971848 0.120496 0.112659
H41   H     H_    0.288188 0.964677 0.873674 0.112562
H42   H     H_    0.211809 0.472087 0.120331 0.112650
H43   H     H_    0.788181 0.471939 0.879559 0.112647
H44   H     H_    0.711559 0.028065 0.302813 0.112870
H45   H     H_    0.788034 0.028050 0.379411 0.111517
H46   H     H_    0.288445 0.035261 0.703015 0.112696
H47   H     H_    0.211559 0.527825 0.302978 0.112856
H48   H     H_    0.788451 0.527998 0.697134 0.112832
H49   H     H_    0.900327 0.991413 0.644440 0.229269
H50   H     H_    0.913542 0.018598 0.593857 0.226313
H51   H     H_    0.099332 0.988122 0.355205 0.229491
H52   H     H_    0.087034 0.015713 0.406711 0.225888
H53   H     H_    0.400379 0.490841 0.644497 0.229254
H54   H     H_    0.413438 0.518097 0.593754 0.226227
H55   H     H_    0.599294 0.487797 0.355166 0.229272
H56   H     H_    0.211971 0.035251 0.626412 0.110970
H57   H     H_    0.587087 0.515426 0.406764 0.225757
H58   H     H_    0.288034 0.527810 0.379576 0.111473
H59   H     H_    0.711976 0.527989 0.620537 0.111196
H60   H     H_    0.973029 0.788187 0.065137 0.110620
N1    N     N_3   0.920381 0.991800 0.626143 -0.619484
N2    N     N_3   0.079306 0.989162 0.373533 -0.618415
N3    N     N_3   0.420429 0.491340 0.626194 -0.619380
N4    N     N_3   0.579272 0.488901 0.373498 -0.618679
O1    O     O_R   0.940150 0.034650 0.440170 -0.507060
O2    O     O_R   0.440150 0.999980 0.993200 -0.502555
O3    O     O_R   0.059850 0.499980 0.006800 -0.502625
O4    O     O_R   0.940150 0.499980 0.993200 -0.502619
O5    O     O_R   0.500000 0.059900 0.052920 -0.502498
O6    O     O_R   0.500000 0.059900 0.947080 -0.502575
O7    O     O_R   1.000000 0.559900 0.052920 -0.502532
O8    O     O_R   0.000000 0.559900 0.947080 -0.502546
O9    O     O_R   0.940170 0.965370 0.440140 -0.499725
O10   O     O_R   0.059830 0.965370 0.559860 -0.499606
O11   O     O_R   0.440170 0.465370 0.440140 -0.499704
O12   O     O_R   0.059850 0.034650 0.559830 -0.507235
O13   O     O_R   0.559830 0.465370 0.559860 -0.499519
O14   O     O_R   0.000010 0.034650 0.591580 -0.519183
O15   O     O_R   0.999990 0.034650 0.408420 -0.519582
O16   O     O_R   0.500010 0.534650 0.591580 -0.519269
O17   O     O_R   0.499990 0.534650 0.408420 -0.519592
O18   O     O_R   0.000020 0.965370 0.591550 -0.502566
O19   O     O_R   0.999980 0.965370 0.408450 -0.501612
O20   O     O_R   0.500020 0.465370 0.591550 -0.502390
O21   O     O_R   0.499980 0.465370 0.408450 -0.501548
O22   O     O_R   0.034640 0.940200 0.034570 -0.503106
O23   O     O_R   0.440150 0.534650 0.440170 -0.507071
O24   O     O_R   0.965360 0.940200 0.965430 -0.503145
O25   O     O_R   0.534640 0.440200 0.034570 -0.503117
O26   O     O_R   0.465360 0.440200 0.965430 -0.503137
O27   O     O_R   0.034640 0.000050 0.943030 -0.511507
O28   O     O_R   0.965360 0.000050 0.056970 -0.511520
O29   O     O_R   0.534640 0.500050 0.943030 -0.511531
O30   O     O_R   0.465360 0.500050 0.056970 -0.511515
O31   O     O_R   0.965370 0.000070 0.873780 -0.511656
O32   O     O_R   0.034630 0.000070 0.126220 -0.511649
O33   O     O_R   0.465370 0.500070 0.873780 -0.511653
O34   O     O_R   0.559850 0.534650 0.559830 -0.507159
O35   O     O_R   0.534630 0.500070 0.126220 -0.511675
O36   O     O_R   0.034650 0.059910 0.034650 -0.503695
O37   O     O_R   0.965350 0.059910 0.965350 -0.503774
O38   O     O_R   0.534650 0.559910 0.034650 -0.503712
O39   O     O_R   0.465350 0.559910 0.965350 -0.503767
O40   O     O_R   0.500030 0.940190 0.053050 -0.502539
O41   O     O_R   0.499970 0.940190 0.946950 -0.502466
O42   O     O_R   0.000030 0.440190 0.053050 -0.502492
O43   O     O_R   0.999970 0.440190 0.946950 -0.502487
O44   O     O_R   0.559860 0.000050 0.112810 -0.502432
O45   O     O_R   0.440140 0.000050 0.887190 -0.502354
O46   O     O_R   0.059860 0.500050 0.112810 -0.502448
O47   O     O_R   0.940140 0.500050 0.887190 -0.502449
O48   O     O_R   0.559850 0.999980 0.006800 -0.502626

loop_
_geom_bond_atom_site_label_1
_geom_bond_atom_site_label_2
_ccdc_geom_bond_type
C25   C91   S    
C44   C48   A    
Cu1   Cu6   S    
Cu3   O46   S    
C87   O25   A    
Cu4   O47   S    
C55   C59   A    
C49   O10   A    
C71   O13   A    
Cu3   O4    S    
C113  H3    S    
C47   H46   S    
C44   C66   S    
Cu8   O22   S    
Cu6   O18   S    
C102  C129  S    
C80   O17   A    
C72   C76   T    
C3    C6    A    
C94   O39   A    
C88   O31   A    
C87   C127  S    
C55   C68   S    
C92   O36   A    
C57   C62   A    
C92   O37   A    
C59   C126  A    
C60   O23   A    
C12   C23   S    
Cu11  O39   S    
C77   O18   A    
C86   O22   A    
C108  C121  S    
C81   C97   S    
Cu10  O38   S    
C101  O5    A    
C38   H30   S    
C24   C45   A    
C77   C82   S    
C114  N1    S    
C111  C119  A    
C103  C113  A    
C38   C42   S    
C28   C117  S    
Cu5   Cu7   S    
C10   H1    S    
Cu7   O11   S    
C71   C76   S    
C109  C122  S    
C123  C125  T    
C31   H24   S    
H57   N4    S    
C78   C93   S    
Cu5   O17   S    
Cu9   O28   S    
C29   C33   S    
C58   C63   A    
C101  C128  S    
Cu9   O31   S    
C1    O9    A    
H50   N1    S    
C30   H22   S    
C6    C136  A    
C34   H27   S    
Cu4   O3    S    
C6    C15   S    
C40   H32   S    
C50   H48   S    
C101  O6    A    
Cu4   O8    S    
C26   H18   S    
C13   C62   A    
C124  C127  T    
Cu2   Cu12  S    
C5    H11   S    
C83   C98   S    
C45   C67   S    
C133  C136  A    
C116  N2    S    
Cu11  O33   S    
C112  H4    S    
C35   C64   S    
C57   C70   S    
C4    C131  A    
Cu2   O41   S    
Cu12  O5    S    
C40   C93   S    
Cu6   O9    S    
C107  H8    S    
C10   C114  S    
C2    C61   A    
C102  O8    A    
C14   C42   S    
C115  C118  S    
C136  H10   S    
C27   C116  S    
C130  H14   S    
Cu5   O16   S    
C105  H6    S    
C20   C96   S    
Cu2   O45   S    
C77   O14   A    
C49   C74   S    
C87   O26   A    
C86   C125  S    
C133  C135  A    
C107  C109  A    
C89   O28   A    
C41   H33   S    
C130  C134  A    
C17   C92   S    
Cu7   O13   S    
C4    C7    A    
C106  C109  A    
C94   O38   A    
C28   C32   S    
C14   H34   S    
C21   C26   S    
C103  H5    S    
C11   H12   S    
Cu5   O34   S    
C12   H23   S    
Cu2   O48   S    
C106  C111  A    
C10   C21   S    
C25   C29   S    
C48   C53   A    
C79   O20   A    
C105  C108  A    
C91   O35   A    
C67   C85   T    
C8    C19   T    
Cu12  O40   S    
C30   C34   S    
C8    C134  S    
C34   C39   S    
C43   C65   S    
C36   C40   S    
Cu3   O42   S    
H49   N1    S    
C82   C114  S    
C121  C128  T    
C51   H45   S    
C112  C120  A    
C53   C57   A    
C98   O2    A    
C21   C34   S    
C99   O46   A    
C14   C118  S    
C68   C73   T    
C31   C93   S    
C88   O27   A    
C27   C31   S    
C46   C51   A    
C86   O24   A    
C13   H42   S    
C3    C132  A    
Cu8   O27   S    
C120  C124  S    
C10   C39   S    
C52   H56   S    
C93   C116  S    
C30   C82   S    
C35   C126  A    
C132  H16   S    
Cu1   O14   S    
C33   H26   S    
C2    H41   S    
C133  H17   S    
C25   C38   S    
C113  C120  A    
C9    C20   T    
Cu1   O12   S    
C80   C115  S    
C131  H15   S    
C2    C43   A    
Cu5   O23   S    
C117  N3    S    
C61   H37   S    
C53   H58   S    
C89   O32   A    
C69   C74   T    
Cu4   O43   S    
C50   C54   A    
C32   C37   S    
C22   C89   S    
C11   C116  S    
C91   O30   A    
C103  C108  A    
C102  O7    A    
C54   H59   S    
C97   O44   A    
C9    C135  S    
C98   O45   A    
C16   C18   T    
C5    C130  A    
C105  C112  A    
Cu12  O44   S    
C24   C63   A    
C63   H39   S    
C22   C27   S    
Cu8   O36   S    
C48   H47   S    
C1    O1    A    
Cu7   O20   S    
C107  C110  A    
H55   N4    S    
Cu9   O24   S    
C23   C28   S    
C32   H25   S    
C60   O11   A    
C79   O16   A    
C32   C104  S    
C19   C95   S    
C12   C41   S    
C5    C7    A    
Cu10  Cu11  S    
C54   C58   A    
Cu11  O26   S    
Cu9   O37   S    
C78   O15   A    
C15   C17   T    
C95   O41   A    
C100  O4    A    
C90   O33   A    
C39   C82   S    
Cu1   O1    S    
H54   N3    S    
C4    H13   S    
C84   C99   S    
C80   O21   A    
C7    C16   S    
C96   O43   A    
C46   H44   S    
Cu8   Cu9   S    
C110  H2    S    
Cu12  O2    S    
C110  C119  A    
Cu8   O32   S    
C39   H31   S    
Cu3   Cu4   S    
C36   H28   S    
C47   C52   A    
C119  C123  S    
C42   H35   S    
C22   C36   S    
C29   C118  S    
C104  C117  S    
C60   C75   S    
C33   C38   S    
Cu11  O30   S    
C41   C104  S    
C62   H38   S    
H51   N2    S    
C1    C73   S    
Cu7   O21   S    
C11   C40   S    
C126  H40   S    
C78   O19   A    
C96   O42   A    
C49   O12   A    
C85   C100  S    
C23   C37   S    
C23   C90   S    
Cu10  O25   S    
C58   C72   S    
Cu6   O19   S    
C33   C115  S    
C99   O3    A    
C45   C50   A    
C132  C135  A    
C18   C94   S    
Cu10  O35   S    
Cu10  O29   S    
C95   O40   A    
C106  H7    S    
Cu6   O10   S    
C24   H43   S    
C26   C114  S    
C51   C55   A    
C14   C25   S    
C37   C41   S    
C59   H36   S    
C79   C104  S    
H52   N2    S    
C64   C81   T    
C21   C88   S    
C65   C83   T    
C28   H20   S    
C66   C84   T    
C12   C117  S    
Cu3   O7    S    
C42   C115  S    
C118  N4    S    
C100  O47   A    
Cu2   O6    S    
C11   C22   S    
Cu1   O15   S    
C56   C69   S    
C90   O29   A    
C37   H29   S    
C70   C75   T    
C3    H9    S    
C56   C61   A    
C31   C36   S    
C122  C129  T    
C71   O34   A    
C29   H21   S    
C35   C46   A    
C43   C47   A    
C111  H60   S    
H53   N3    S    
C13   C44   A    
C131  C134  A    
C52   C56   A    
C97   O48   A    
C27   H19   S    
C26   C30   S    
