data_mof_unit_9771.cif
_audit_creation_date              2012-12-11T16:27:23-0500
_audit_creation_method            fapswitch 2.2
_symmetry_space_group_name_H-M    P1
_symmetry_Int_Tables_number       1
_space_group_crystal_system       monoclinic
_cell_length_a                    21.622081
_cell_length_b                    6.915831
_cell_length_c                    14.685476
_cell_angle_alpha                 90.0
_cell_angle_beta                  105.424671
_cell_angle_gamma                 90.0
_cell_volume                      2116.89028559

loop_
_atom_site_label
_atom_site_type_symbol
_atom_type_description
_atom_site_fract_x
_atom_site_fract_y
_atom_site_fract_z
_atom_type_partial_charge
O1    O     O_R   0.835850 0.638310 0.002120 -0.537009
O2    O     O_R   0.164150 0.361690 0.997880 -0.537010
O3    O     O_R   0.664150 0.138310 0.997880 -0.537010
O4    O     O_R   0.335850 0.861690 0.002120 -0.537009
O5    O     O_R   0.717530 0.306070 0.861970 -0.538666
O6    O     O_R   0.282470 0.693930 0.138030 -0.538666
O7    O     O_R   0.782470 0.806070 0.138030 -0.538666
O8    O     O_R   0.217530 0.193930 0.861970 -0.538666
C1    C     C_R   0.705128 0.477013 0.824168 0.698009
C2    C     C_R   0.294872 0.522987 0.175832 0.698010
C3    C     C_R   0.794872 0.977013 0.175832 0.698010
C4    C     C_R   0.205128 0.022987 0.824168 0.698009
O9    O     O_R   0.838690 0.308440 0.993250 -0.539157
O10   O     O_R   0.161310 0.691560 0.006750 -0.539157
O11   O     O_R   0.661310 0.808440 0.006750 -0.539157
O12   O     O_R   0.338690 0.191560 0.993250 -0.539157
O13   O     O_R   0.786170 0.140510 0.130090 -0.541521
O14   O     O_R   0.213830 0.859490 0.869910 -0.541520
O15   O     O_R   0.713830 0.640510 0.869910 -0.541520
O16   O     O_R   0.286170 0.359490 0.130090 -0.541521
C5    C     C_R   0.865266 0.477398 0.997983 0.696191
C6    C     C_R   0.134734 0.522602 0.002017 0.696191
C7    C     C_R   0.634734 0.977398 0.002017 0.696191
C8    C     C_R   0.365266 0.022602 0.997983 0.696191
O17   O     O_3   0.732630 0.472520 0.044740 -0.367026
O18   O     O_3   0.267370 0.527480 0.955260 -0.367026
O19   O     O_3   0.767370 0.972520 0.955260 -0.367026
O20   O     O_3   0.232630 0.027480 0.044740 -0.367026
V1    V     V_3+5 0.753220 0.196740 0.991700 1.434547
V2    V     V_3+5 0.246780 0.803260 0.008300 1.434547
V3    V     V_3+5 0.746780 0.696740 0.008300 1.434547
V4    V     V_3+5 0.253220 0.303260 0.991700 1.434547
H1    H     H_    0.614405 0.176381 0.313636 0.190034
H2    H     H_    0.385595 0.823619 0.686364 0.190034
H3    H     H_    0.885595 0.676381 0.686364 0.190034
H4    H     H_    0.114405 0.323619 0.313636 0.190034
C9    C     C_R   0.533969 0.890516 0.833708 -0.155072
C10   C     C_R   0.466031 0.109484 0.166292 -0.155072
C11   C     C_R   0.966031 0.390516 0.166292 -0.155072
C12   C     C_R   0.033969 0.609484 0.833708 -0.155072
C13   C     C_R   0.486532 0.848828 0.751251 -0.132903
C14   C     C_R   0.513468 0.151172 0.248749 -0.132903
C15   C     C_R   0.013468 0.348828 0.248749 -0.132903
C16   C     C_R   0.986532 0.651172 0.751251 -0.132903
C17   C     C_R   0.422181 0.857266 0.750470 -0.102829
C18   C     C_R   0.577819 0.142734 0.249530 -0.102829
C19   C     C_R   0.077818 0.357266 0.249530 -0.102829
C20   C     C_R   0.922181 0.642734 0.750470 -0.102829
C21   C     C_R   0.404729 0.909727 0.831873 -0.140212
C22   C     C_R   0.595271 0.090273 0.168127 -0.140212
C23   C     C_R   0.095271 0.409727 0.168127 -0.140212
C24   C     C_R   0.904729 0.590273 0.831873 -0.140212
C25   C     C_R   0.451772 0.954664 0.916449 0.068523
C26   C     C_R   0.548228 0.045336 0.083551 0.068523
C27   C     C_R   0.048228 0.454664 0.083551 0.068523
C28   C     C_R   0.951772 0.545336 0.916449 0.068523
C29   C     C_R   0.517749 0.943447 0.917597 0.066905
C30   C     C_R   0.482251 0.056553 0.082403 0.066905
C31   C     C_R   0.982251 0.443447 0.082403 0.066905
C32   C     C_R   0.017749 0.556553 0.917597 0.066905
C33   C     C_R   0.434023 0.012146 0.998718 -0.181471
C34   C     C_R   0.565977 0.987853 0.001282 -0.181471
C35   C     C_R   0.065977 0.512146 0.001282 -0.181471
C36   C     C_R   0.934023 0.487853 0.998718 -0.181471
H5    H     H_    0.583348 0.881968 0.830644 0.113799
H6    H     H_    0.416652 0.118032 0.169356 0.113799
H7    H     H_    0.916652 0.381968 0.169356 0.113799
H8    H     H_    0.083348 0.618032 0.830644 0.113799
H9    H     H_    0.499829 0.810142 0.687598 0.139747
H10   H     H_    0.500171 0.189858 0.312402 0.139747
H11   H     H_    0.000171 0.310142 0.312402 0.139747
H12   H     H_    0.999829 0.689858 0.687598 0.139747
H13   H     H_    0.354074 0.915406 0.827688 0.094728
H14   H     H_    0.645926 0.084594 0.172312 0.094728
H15   H     H_    0.145926 0.415406 0.172312 0.094728
H16   H     H_    0.854074 0.584594 0.827688 0.094728
C37   C     C_R   0.177170 0.014770 0.721690 -0.062523
C38   C     C_R   0.822830 0.985230 0.278310 -0.062522
C39   C     C_R   0.322830 0.514770 0.278310 -0.062522
C40   C     C_R   0.677170 0.485230 0.721690 -0.062523
C41   C     C_R   0.190352 0.991254 0.562407 0.017902
C42   C     C_R   0.809648 0.008746 0.437593 0.017902
C43   C     C_R   0.309648 0.491254 0.437593 0.017902
C44   C     C_R   0.690352 0.508746 0.562407 0.017902
C45   C     C_R   0.216576 0.006543 0.660560 -0.221393
C46   C     C_R   0.783424 0.993457 0.339439 -0.221393
C47   C     C_R   0.283424 0.506543 0.339439 -0.221393
C48   C     C_R   0.716576 0.493457 0.660560 -0.221393
C49   C     C_R   0.110738 0.020050 0.685593 -0.221217
C50   C     C_R   0.889262 0.979950 0.314407 -0.221217
C51   C     C_R   0.389262 0.520050 0.314407 -0.221217
C52   C     C_R   0.610738 0.479950 0.685593 -0.221217
C53   C     C_R   0.081850 0.009136 0.587367 0.075741
C54   C     C_R   0.918150 0.990864 0.412633 0.075741
C55   C     C_R   0.418150 0.509136 0.412633 0.075741
C56   C     C_R   0.581850 0.490864 0.587367 0.075741
C57   C     C_R   0.122326 0.979186 0.526210 0.077655
C58   C     C_R   0.877674 0.020814 0.473790 0.077655
C59   C     C_R   0.377674 0.479186 0.473790 0.077655
C60   C     C_R   0.622326 0.520814 0.526210 0.077655
C61   C     C_R   0.013757 0.019989 0.548759 0.063794
C62   C     C_R   0.986243 0.980011 0.451241 0.063794
C63   C     C_R   0.486243 0.519988 0.451241 0.063794
C64   C     C_R   0.513757 0.480011 0.548759 0.063794
C65   C     C_R   0.027543 0.924782 0.395941 -0.216670
C66   C     C_R   0.972457 0.075218 0.604059 -0.216670
C67   C     C_R   0.472457 0.424782 0.604059 -0.216670
C68   C     C_R   0.527543 0.575218 0.395941 -0.216670
C69   C     C_R   0.093730 0.927418 0.432089 -0.144684
C70   C     C_R   0.906270 0.072582 0.567911 -0.144684
C71   C     C_R   0.406270 0.427418 0.567911 -0.144684
C72   C     C_R   0.593730 0.572582 0.432089 -0.144684
H17   H     H_    0.917214 0.974637 0.263574 0.104941
H18   H     H_    0.082786 0.025362 0.736425 0.104941
H19   H     H_    0.582786 0.474637 0.736425 0.104941
H20   H     H_    0.417214 0.525363 0.263574 0.104941
H21   H     H_    0.731914 0.986744 0.310061 0.135551
H22   H     H_    0.268086 0.013256 0.689939 0.135551
H23   H     H_    0.768086 0.486744 0.689939 0.135551
H24   H     H_    0.231914 0.513256 0.310061 0.135551
H25   H     H_    0.121836 0.878080 0.385915 0.172662
H26   H     H_    0.878164 0.121920 0.614085 0.172662
H27   H     H_    0.378164 0.378080 0.614085 0.172662
H28   H     H_    0.621836 0.621919 0.385915 0.172662
C73   C     C_2   0.235581 0.998227 0.501000 0.760261
O21   O     O_2   0.292158 0.957289 0.534026 -0.569669
O22   O     O_R   0.215107 0.062206 0.407455 -0.672007
H29   H     H_    0.250824 0.062674 0.374555 0.294651
C74   C     C_2   0.764418 0.001773 0.499000 0.760261
O23   O     O_2   0.707842 0.042711 0.465974 -0.569669
O24   O     O_R   0.784893 0.937794 0.592545 -0.672007
H30   H     H_    0.749176 0.937326 0.625445 0.294651
C75   C     C_2   0.264418 0.498227 0.499000 0.760261
O25   O     O_2   0.207842 0.457289 0.465974 -0.569669
O26   O     O_R   0.284893 0.562206 0.592545 -0.672007
H31   H     H_    0.249176 0.562674 0.625445 0.294651
C76   C     C_2   0.735582 0.501773 0.501000 0.760262
O27   O     O_2   0.792158 0.542710 0.534026 -0.569669
O28   O     O_R   0.715107 0.437794 0.407455 -0.672007
H32   H     H_    0.750824 0.437326 0.374555 0.294651
H33   H     H_    0.010014 0.874981 0.324112 0.138385
H34   H     H_    0.989986 0.125019 0.675888 0.138385
H35   H     H_    0.489986 0.374981 0.675888 0.138385
H36   H     H_    0.510014 0.625019 0.324112 0.138385

loop_
_geom_bond_atom_site_label_1
_geom_bond_atom_site_label_2
_ccdc_geom_bond_type
O17   V3    S    
C43   C47   A    
O1    C5    A    
C61   C62   A    
C12   C32   A    
C27   C31   A    
O19   V1    S    
O13   V1    S    
O3    C7    A    
O1    V3    S    
O15   V3    S    
C39   C47   A    
O26   H31   S    
C38   C50   A    
C2    C39   S    
O7    C3    A    
C76   O28   S    
C37   C49   A    
C31   C36   A    
C8    C33   S    
C62   C65   A    
C32   C35   A    
C58   C70   A    
O9    V1    S    
C23   H15   S    
C72   H28   S    
C22   H14   S    
C65   H33   S    
O4    C8    A    
C55   C59   A    
C54   C58   A    
C52   C56   A    
C51   H20   S    
H4    C19   S    
O2    V4    S    
C14   C18   A    
C50   H17   S    
O3    V1    S    
C5    C36   S    
C6    C35   S    
C10   C30   A    
C25   C33   A    
C1    O15   A    
C7    C34   S    
C10   H6    S    
C2    O16   A    
C27   C35   A    
O2    C6    A    
C28   C36   A    
C66   H34   S    
C63   C68   A    
O14   V2    S    
C12   C16   A    
C39   C51   A    
C38   C46   A    
C30   C33   A    
O11   C7    A    
C11   C31   A    
O12   C8    A    
C43   C59   A    
C9    C13   A    
H1    C18   S    
C42   C58   A    
C67   C71   A    
O10   V2    S    
H3    C20   S    
C55   C63   A    
C50   C54   A    
O5    V1    S    
O17   V1    S    
O7    V3    S    
C71   H27   S    
O8    V4    S    
O20   V4    S    
C53   C61   A    
C25   C29   A    
O18   V4    S    
C19   C23   A    
C26   C34   A    
C29   C34   A    
C42   C46   A    
O19   V3    S    
O4    V2    S    
C68   C72   A    
C9    H5    S    
C48   H23   S    
C1    C40   S    
C44   C60   A    
C40   C52   A    
C14   H10   S    
O5    C1    A    
C3    C38   S    
C57   C69   A    
C17   C21   A    
O8    C4    A    
C59   C71   A    
C4    C37   S    
C26   C30   A    
O9    C5    A    
H2    C17   S    
C22   C26   A    
C42   C74   S    
C73   O22   S    
O6    V2    S    
C44   C76   S    
C60   C72   A    
C56   C64   A    
C75   O25   D    
C21   H13   S    
C67   H35   S    
O24   H30   S    
C53   C57   A    
C68   H36   S    
C13   H9    S    
C74   O23   D    
O16   V4    S    
C61   C66   A    
C65   C69   A    
C49   H18   S    
C3    O13   A    
C15   H11   S    
C41   C73   S    
C11   H7    S    
C44   C48   A    
C24   H16   S    
O6    C2    A    
C11   C15   A    
O28   H32   S    
O11   V3    S    
O22   H29   S    
O12   V4    S    
C76   O27   D    
C18   C22   A    
O10   C6    A    
O20   V2    S    
C47   H24   S    
C40   C48   A    
C16   C20   A    
C70   H26   S    
C69   H25   S    
C73   O21   D    
C41   C57   A    
C21   C25   A    
C56   C60   A    
C16   H12   S    
C46   H21   S    
C23   C27   A    
C49   C53   A    
C45   H22   S    
C52   H19   S    
C9    C29   A    
C43   C75   S    
C37   C45   A    
C10   C14   A    
C28   C32   A    
C20   C24   A    
C54   C62   A    
C51   C55   A    
C66   C70   A    
C12   H8    S    
C4    O14   A    
C63   C64   A    
C75   O26   S    
C13   C17   A    
C15   C19   A    
C64   C67   A    
C41   C45   A    
C24   C28   A    
C74   O24   S    
O18   V2    S    
