data_mof_unit_19228.cif
_audit_creation_date              2012-12-10T20:51:27-0500
_audit_creation_method            fapswitch 2.2
_symmetry_space_group_name_H-M    P1
_symmetry_Int_Tables_number       1
_space_group_crystal_system       triclinic
_cell_length_a                    17.575875
_cell_length_b                    8.920363
_cell_length_c                    8.109315
_cell_angle_alpha                 90.000032
_cell_angle_beta                  89.859682
_cell_angle_gamma                 90.0
_cell_volume                      1271.40042149

loop_
_atom_site_label
_atom_site_type_symbol
_atom_type_description
_atom_site_fract_x
_atom_site_fract_y
_atom_site_fract_z
_atom_type_partial_charge
C1    C     C_R   0.500000 0.218025 0.500000 0.934997
C2    C     C_R   0.844570 0.389458 0.388106 0.435960
C3    C     C_R   0.769327 0.577868 0.613534 -0.223865
C4    C     C_R   0.230673 0.577878 0.386475 -0.223865
C5    C     C_R   0.234295 0.400645 0.613693 -0.237026
C6    C     C_R   0.765706 0.400652 0.386299 -0.237026
C7    C     C_R   0.728514 0.493278 0.499378 -0.177144
C8    C     C_R   0.271487 0.493279 0.500622 -0.177141
C9    C     C_R   0.885763 0.477102 0.501582 -0.181260
C10   C     C_R   0.114238 0.477104 0.498418 -0.181256
C11   C     C_1   0.966219 0.472463 0.500327 0.246703
C12   C     C_R   0.500000 0.781976 0.500000 0.936775
C13   C     C_1   0.033781 0.472464 0.499671 0.246710
C14   C     C_1   0.500000 0.065222 0.500000 -0.159627
C15   C     C_1   0.500000 0.934781 0.500000 -0.159308
C16   C     C_R   0.353417 0.499517 0.500209 0.921232
C17   C     C_R   0.646583 0.499517 0.499791 0.921231
C18   C     C_R   0.848301 0.572835 0.613835 0.428149
C19   C     C_R   0.151699 0.572847 0.386175 0.428156
C20   C     C_R   0.155430 0.389450 0.611885 0.435960
H1    H     H_    0.739370 0.649985 0.699315 0.212289
H2    H     H_    0.260631 0.650002 0.300700 0.212288
H3    H     H_    0.267123 0.335076 0.700595 0.202058
H4    H     H_    0.732877 0.335090 0.299392 0.202061
H5    H     H_    0.871450 0.844535 0.948859 0.413329
H6    H     H_    0.128551 0.844609 0.051213 0.413333
H7    H     H_    0.020007 0.101914 0.737416 0.415890
H8    H     H_    0.979969 0.101876 0.262575 0.415885
N1    N     N_1   0.500000 0.500000 0.073640 -0.017475
N2    N     N_1   0.500000 0.500000 0.926360 -0.017475
O1    O     O_R   0.500000 0.285350 0.636850 -0.613774
O2    O     O_2   0.946039 0.798955 0.655651 -0.245228
O3    O     O_3   0.838366 0.784393 0.875499 -0.533406
O4    O     O_2   0.049887 0.594489 0.143306 -0.193905
O5    O     O_2   0.053949 0.798952 0.344385 -0.245242
O6    O     O_3   0.161635 0.784455 0.124561 -0.533402
O7    O     O_2   0.167359 0.170731 0.840661 -0.284116
O8    O     O_2   0.066694 0.357923 0.877124 -0.195520
O9    O     O_3   0.048870 0.155481 0.650451 -0.484220
O10   O     O_2   0.832641 0.170783 0.159278 -0.284121
O11   O     O_2   0.933327 0.357942 0.122897 -0.195514
O12   O     O_R   0.500000 0.714650 0.363150 -0.612952
O13   O     O_3   0.951110 0.155457 0.349538 -0.484216
O14   O     O_R   0.500000 0.714650 0.636850 -0.612952
O15   O     O_R   0.500000 0.285350 0.363150 -0.613774
O16   O     O_R   0.389120 0.500000 0.636930 -0.612932
O17   O     O_R   0.610880 0.500000 0.363070 -0.612934
O18   O     O_R   0.610880 0.500000 0.636930 -0.613000
O19   O     O_R   0.389120 0.500000 0.363070 -0.612999
O20   O     O_2   0.950125 0.594457 0.856685 -0.193907
S1    S     S_3+6 0.898704 0.689535 0.752523 0.076164
S2    S     S_3+6 0.101296 0.689560 0.247501 0.076156
S3    S     S_3+6 0.109937 0.266547 0.752789 0.073812
S4    S     S_3+6 0.890064 0.266562 0.247195 0.073806
Zn1   Zn    Zn3+2 0.500000 0.500000 0.682780 1.023818
Zn2   Zn    Zn3+2 0.500000 0.500000 0.317220 1.023817

loop_
_geom_bond_atom_site_label_1
_geom_bond_atom_site_label_2
_ccdc_geom_bond_type
O16   Zn1   S    
O18   Zn1   S    
C4    C19   A    
C12   C15   S    
O2    S1    D    
C6    C7    A    
N1    Zn2   S    
O3    S1    S    
O19   Zn2   S    
C9    C11   S    
N2    Zn1   S    
H8    O13   S    
O10   S4    D    
O6    S2    S    
C17   O18   A    
C10   C19   A    
C4    C8    A    
O7    S3    D    
O20   S1    D    
C6    H4    S    
C8    C16   S    
C5    C20   A    
O9    S3    S    
C11   C13   T    
O14   Zn1   S    
C1    O15   A    
C2    C6    A    
O8    S3    D    
O1    Zn1   S    
H6    O6    S    
C18   S1    S    
C3    C7    A    
C16   O16   A    
O11   S4    D    
C3    H1    S    
C5    C8    A    
H5    O3    S    
N1    N2    T    
C9    C18   A    
C1    O1    A    
C4    H2    S    
C16   O19   A    
C3    C18   A    
C12   O14   A    
C2    S4    S    
H7    O9    S    
O5    S2    D    
C14   C15   T    
C20   S3    S    
C12   O12   A    
C1    C14   S    
O13   S4    S    
O12   Zn2   S    
C2    C9    A    
O4    S2    D    
C19   S2    S    
C17   O17   A    
O15   Zn2   S    
C10   C20   A    
O17   Zn2   S    
C7    C17   S    
C10   C13   S    
C5    H3    S    
