data_mof_unit_27050.cif
_audit_creation_date              2012-12-11T14:57:56-0500
_audit_creation_method            fapswitch 2.2
_symmetry_space_group_name_H-M    P1
_symmetry_Int_Tables_number       1
_space_group_crystal_system       triclinic
_cell_length_a                    6.936652
_cell_length_b                    16.786468
_cell_length_c                    17.013954
_cell_angle_alpha                 100.490632
_cell_angle_beta                  89.228158
_cell_angle_gamma                 91.466134
_cell_volume                      1947.30559428

loop_
_atom_site_label
_atom_site_type_symbol
_atom_type_description
_atom_site_fract_x
_atom_site_fract_y
_atom_site_fract_z
_atom_type_partial_charge
O1    O     O_R   0.506180 0.438940 0.579430 -0.539025
O2    O     O_R   0.170520 0.406230 0.413590 -0.537675
O3    O     O_R   0.005180 0.561060 0.420570 -0.542773
C1    C     C_R   0.339367 0.383356 0.385044 0.696205
O4    O     O_R   0.176140 0.429310 0.578370 -0.543291
O5    O     O_R   0.010830 0.584300 0.586530 -0.534197
C2    C     C_R   0.342065 0.413365 0.605170 0.694222
O6    O     O_R   0.500520 0.415700 0.413470 -0.533979
O7    O     O_3   0.340830 0.550820 0.502480 -0.367070
V1    V     V_3+5 0.064040 0.490570 0.499540 1.407849
O8    O     O_R   0.681400 0.593770 0.586410 -0.539628
C3    C     C_R   0.850916 0.616483 0.614769 0.691670
O9    O     O_R   0.675790 0.570690 0.421630 -0.538759
C4    C     C_R   0.847337 0.587482 0.395964 0.700245
V2    V     V_3+5 0.564650 0.509430 0.500460 1.408833
O10   O     O_3   0.837730 0.449180 0.497520 -0.365993
C5    C     C_R   0.895493 0.865114 0.168922 -0.060292
C6    C     C_R   0.869940 0.640428 0.335002 -0.128083
C7    C     C_R   0.053268 0.670972 0.220193 -0.208282
C8    C     C_R   0.012486 0.620849 0.275536 -0.220808
C9    C     C_R   0.763937 0.712212 0.337740 0.204725
C10   C     C_R   0.808208 0.763968 0.282019 0.124650
C11   C     C_R   0.954093 0.742927 0.223117 0.107201
C12   C     C_R   0.998161 0.793930 0.167567 -0.228484
C13   C     C_R   0.753621 0.886331 0.228184 -0.183641
C14   C     C_R   0.712161 0.837242 0.284502 -0.173548
H1    H     H_    0.673068 0.941220 0.230609 0.123616
H2    H     H_    0.164880 0.653828 0.175575 0.128286
H3    H     H_    0.602901 0.856871 0.329366 0.156154
H4    H     H_    0.094757 0.566296 0.272260 0.136911
H5    H     H_    0.602692 0.647420 0.970188 0.111954
C15   C     C_R   0.064140 0.897717 0.727817 -0.153925
C16   C     C_R   0.127177 0.907933 0.652092 -0.138588
C17   C     C_R   0.105604 0.845116 0.587111 -0.113863
C18   C     C_R   0.020218 0.771646 0.597262 -0.134708
C19   C     C_R   0.954155 0.759439 0.673408 0.074661
C20   C     C_R   0.975301 0.823972 0.740009 0.063745
C21   C     C_R   0.863998 0.685111 0.683382 -0.186209
C22   C     C_R   0.792456 0.675628 0.759713 0.069139
C23   C     C_R   0.811632 0.740443 0.826166 0.071236
C24   C     C_R   0.902629 0.814709 0.816341 -0.200129
C25   C     C_R   0.704565 0.601673 0.771790 -0.145914
C26   C     C_R   0.635935 0.592151 0.846931 -0.125671
C27   C     C_R   0.654862 0.655339 0.911778 -0.122495
C28   C     C_R   0.742372 0.728564 0.901963 -0.131854
H6    H     H_    0.082061 0.948954 0.776070 0.121849
H7    H     H_    0.191236 0.965257 0.643590 0.112919
H8    H     H_    0.153921 0.853550 0.528346 0.113278
H9    H     H_    0.004098 0.725196 0.544478 0.094426
H10   H     H_    0.688748 0.550189 0.723652 0.110536
H11   H     H_    0.568868 0.535191 0.854954 0.116862
H12   H     H_    0.756679 0.775212 0.954671 0.103634
H13   H     H_    0.580229 0.487453 0.150267 0.115239
C29   C     C_R   0.234469 0.217241 0.397243 -0.139781
C30   C     C_R   0.190746 0.137841 0.406053 -0.118534
C31   C     C_R   0.219730 0.074133 0.342715 -0.126603
C32   C     C_R   0.292900 0.089296 0.270075 -0.143923
C33   C     C_R   0.337144 0.169345 0.258912 0.072522
C34   C     C_R   0.307014 0.234724 0.323948 0.068137
C35   C     C_R   0.413409 0.184476 0.184932 -0.185891
C36   C     C_R   0.459653 0.265229 0.176293 0.068128
C37   C     C_R   0.429498 0.330609 0.241328 0.072742
C38   C     C_R   0.353192 0.315474 0.315292 -0.187550
C39   C     C_R   0.532279 0.282719 0.103015 -0.139989
C40   C     C_R   0.576077 0.362119 0.094229 -0.119199
C41   C     C_R   0.547045 0.425826 0.157565 -0.126724
C42   C     C_R   0.473763 0.410666 0.230184 -0.140890
H14   H     H_    0.211278 0.264479 0.448643 0.106305
H15   H     H_    0.135036 0.125663 0.462536 0.113896
H16   H     H_    0.186588 0.012506 0.350029 0.117626
H17   H     H_    0.316160 0.037419 0.223233 0.104854
H18   H     H_    0.555493 0.235489 0.051611 0.104049
H19   H     H_    0.631874 0.374298 0.037760 0.112969
H20   H     H_    0.450455 0.462555 0.277018 0.100199
C43   C     C_R   0.427800 0.138002 0.831475 -0.112435
C44   C     C_R   0.338043 0.360556 0.666874 -0.074458
C45   C     C_R   0.162558 0.309291 0.773836 -0.176754
C46   C     C_R   0.178559 0.362463 0.719344 -0.168482
C47   C     C_R   0.482372 0.303964 0.670334 -0.223900
C48   C     C_R   0.464535 0.248755 0.723773 0.115172
C49   C     C_R   0.303898 0.251578 0.776256 0.153710
C50   C     C_R   0.287233 0.196795 0.830117 -0.314862
C51   C     C_R   0.582201 0.132618 0.775181 0.297552
C52   C     C_R   0.601833 0.189103 0.723752 -0.255093
H21   H     H_    0.167220 0.201006 0.872037 0.142195
H22   H     H_    0.037839 0.312532 0.813241 0.118962
H23   H     H_    0.722035 0.184684 0.681901 0.123244
H24   H     H_    0.064851 0.405249 0.718022 0.125569
H25   H     H_    0.604333 0.300799 0.629446 0.123283
O11   O     O_R   0.265840 0.084300 0.086750 -0.536111
O12   O     O_R   0.589750 0.070740 0.921690 -0.521107
O13   O     O_R   0.755020 0.915730 0.913400 -0.534847
C53   C     C_R   0.423749 0.086229 0.894478 0.733041
O14   O     O_R   0.595830 0.093740 0.086480 -0.540427
O15   O     O_R   0.761150 0.938890 0.079360 -0.541534
C54   C     C_R   0.427063 0.116608 0.115139 0.690028
O16   O     O_R   0.259710 0.061140 0.920790 -0.544166
O17   O     O_3   0.425260 0.949200 0.997610 -0.369538
V3    V     V_3+5 0.702060 0.009430 0.000450 1.435623
O18   O     O_R   0.090530 0.929220 0.078150 -0.541984
C55   C     C_R   0.919092 0.914206 0.105214 0.693598
O19   O     O_R   0.084440 0.906220 0.913360 -0.538945
C56   C     C_R   0.915031 0.883508 0.884991 0.700538
V4    V     V_3+5 0.201450 0.990520 0.999290 1.418020
O20   O     O_3   0.928380 0.050800 0.002390 -0.364463
H26   H     H_    0.106831 0.776794 0.121608 0.117613
N1    N     N_2   0.713900 0.067913 0.767269 -0.516603
H27   H     H_    0.849456 0.080162 0.746027 0.247484
C57   C     C_3   0.634989 0.989149 0.731032 -0.516757
H28   H     H_    0.675306 0.943742 0.767115 0.209543
H29   H     H_    0.693185 0.971080 0.669372 0.192721
H30   H     H_    0.475096 0.988606 0.728274 0.176683
N2    N     N_2   0.621988 0.735303 0.398526 -0.540732
H31   H     H_    0.655193 0.723012 0.453912 0.256118
C58   C     C_3   0.425916 0.712301 0.374564 -0.495873
H32   H     H_    0.325100 0.735494 0.424228 0.185848
H33   H     H_    0.408612 0.645318 0.359628 0.204253
H34   H     H_    0.386835 0.738528 0.321721 0.194767

loop_
_geom_bond_atom_site_label_1
_geom_bond_atom_site_label_2
_ccdc_geom_bond_type
C30   C31   A    
C6    C9    A    
C4    C6    S    
O2    C1    A    
C7    C8    A    
C44   C47   A    
C48   C52   A    
C26   H11   S    
C49   C50   A    
C8    H4    S    
C45   C46   A    
C1    C38   S    
C37   C42   A    
C19   C20   A    
C44   C46   A    
C57   H29   S    
O5    C3    A    
C21   C22   A    
O19   V4    S    
O15   V3    S    
C29   H14   S    
C33   C35   A    
C58   H32   S    
O18   V4    S    
C40   H19   S    
C31   C32   A    
C17   C18   A    
C5    C55   S    
O13   C56   A    
O8    V2    S    
C18   C19   A    
C58   H33   S    
C18   H9    S    
N1    H27   S    
C52   H23   S    
O1    V2    S    
O7    V1    S    
C1    O6    A    
C41   C42   A    
O9    C4    A    
C3    C21   S    
N1    C57   S    
C36   C37   A    
V4    O20   S    
C22   C25   A    
C29   C34   A    
C23   C28   A    
V3    O20   S    
C5    C12   A    
H5    C27   S    
C9    N2    S    
C57   H30   S    
C22   C23   A    
O4    C2    A    
C28   H12   S    
C13   C14   A    
C24   C56   S    
C35   C36   A    
C36   C39   A    
C7    C11   A    
C26   C27   A    
C37   C38   A    
H13   C41   S    
O12   C53   A    
C51   C52   A    
C45   C49   A    
C11   C12   A    
C58   H34   S    
C16   C17   A    
C42   H20   S    
C15   C20   A    
C32   H17   S    
O14   C54   A    
C7    H2    S    
O11   V4    S    
C30   H15   S    
O3    C4    A    
C25   H10   S    
C35   C54   S    
C23   C24   A    
C45   H22   S    
O17   V3    S    
O6    V2    S    
C31   H16   S    
O9    V2    S    
C16   H7    S    
C17   H8    S    
C25   C26   A    
O2    V1    S    
C53   O16   A    
C27   C28   A    
C43   C53   S    
N2    H31   S    
C46   H24   S    
C29   C30   A    
O1    C2    A    
C15   H6    S    
C48   C49   A    
O5    V1    S    
O8    C3    A    
C43   C50   A    
O11   C54   A    
C2    C44   S    
C13   H1    S    
C50   H21   S    
C34   C38   A    
C5    C13   A    
C39   C40   A    
C19   C21   A    
C33   C34   A    
O4    V1    S    
O3    V1    S    
V1    O10   S    
C57   H28   S    
C15   C16   A    
C43   C51   A    
C32   C33   A    
O14   V3    S    
O17   V4    S    
V2    O10   S    
O18   C55   A    
C51   N1    S    
C6    C8    A    
C39   H18   S    
C20   C24   A    
O19   C56   A    
C47   H25   S    
O16   V4    S    
C47   C48   A    
C12   H26   S    
O13   V3    S    
C14   H3    S    
C40   C41   A    
C10   C14   A    
C10   C11   A    
O12   V3    S    
C9    C10   A    
O15   C55   A    
O7    V2    S    
N2    C58   S    
