data_mof_unit_64645.cif
_audit_creation_date              2012-12-11T14:23:59-0500
_audit_creation_method            fapswitch 2.2
_symmetry_space_group_name_H-M    P1
_symmetry_Int_Tables_number       1
_space_group_crystal_system       triclinic
_cell_length_a                    6.954277
_cell_length_b                    17.459391
_cell_length_c                    18.891479
_cell_angle_alpha                 105.243287
_cell_angle_beta                  89.529254
_cell_angle_gamma                 90.368553
_cell_volume                      2212.96006972

loop_
_atom_site_label
_atom_site_type_symbol
_atom_type_description
_atom_site_fract_x
_atom_site_fract_y
_atom_site_fract_z
_atom_type_partial_charge
O1    O     O_R   0.494360 0.416740 0.414860 -0.521590
O2    O     O_R   0.818980 0.432970 0.557290 -0.526004
O3    O     O_R   0.994290 0.583260 0.585140 -0.540581
C1    C     C_R   0.649908 0.415968 0.580628 0.727463
O4    O     O_R   0.823740 0.407570 0.413690 -0.557074
O5    O     O_R   0.999090 0.557670 0.440510 -0.527275
C2    C     C_R   0.655268 0.388313 0.384702 0.649191
O6    O     O_R   0.489560 0.442330 0.559490 -0.522923
O7    O     O_3   0.662450 0.549280 0.508970 -0.354873
V1    V     V_3+5 0.935350 0.490860 0.498340 1.448031
O8    O     O_R   0.329100 0.567030 0.442710 -0.530902
C3    C     C_R   0.161076 0.583949 0.419300 0.702381
O9    O     O_R   0.324330 0.592430 0.586310 -0.503429
C4    C     C_R   0.154169 0.616113 0.612328 0.788739
V2    V     V_3+5 0.435960 0.509140 0.501660 1.496663
O10   O     O_3   0.158990 0.450720 0.491030 -0.362805
C5    C     C_2   0.244425 0.804641 0.769133 0.119510
C6    C     C_2   0.125696 0.810779 0.827760 -0.015817
C7    C     C_2   0.281724 0.727727 0.713445 0.495596
C8    C     C_2   0.134322 0.688162 0.674204 -0.346558
H1    H     H_    0.989601 0.710890 0.687307 0.135892
C9    C     C_1   0.110483 0.863819 0.132549 -0.174010
C10   C     C_1   0.118132 0.821187 0.176062 0.023979
C11   C     C_1   0.127826 0.770909 0.227899 0.016198
C12   C     C_1   0.136121 0.728591 0.271670 0.011463
C13   C     C_1   0.145779 0.678373 0.323558 0.007803
C14   C     C_1   0.153364 0.635847 0.367161 -0.206746
C15   C     C_1   0.641127 0.364043 0.632678 -0.195976
C16   C     C_1   0.636755 0.321443 0.676245 0.019525
C17   C     C_1   0.633147 0.271174 0.728112 0.018585
C18   C     C_1   0.630442 0.228826 0.771906 0.019326
C19   C     C_1   0.626857 0.178567 0.823780 0.025087
C20   C     C_1   0.622527 0.135983 0.867358 -0.173701
C21   C     C_2   0.767212 0.220090 0.211047 0.457996
C22   C     C_2   0.613595 0.171576 0.187677 0.064932
C23   C     C_2   0.770407 0.274025 0.287319 -0.271959
C24   C     C_2   0.642473 0.333028 0.310322 0.323173
H2    H     H_    0.890707 0.269001 0.322125 0.132135
O11   O     O_R   0.774180 0.057760 0.940580 -0.527710
O12   O     O_R   0.439830 0.092440 0.086330 -0.522644
O13   O     O_R   0.264640 0.942310 0.059470 -0.525539
C25   C     C_R   0.608200 0.113330 0.114660 0.719640
O14   O     O_R   0.444740 0.067040 0.942730 -0.526150
O15   O     O_R   0.269590 0.916730 0.914840 -0.528350
C26   C     C_R   0.613802 0.084073 0.919413 0.734718
O16   O     O_R   0.769230 0.083340 0.085210 -0.518392
O17   O     O_3   0.601340 0.950770 0.991070 -0.363735
V3    V     V_3+5 0.328370 0.009130 0.001660 1.538512
O18   O     O_R   0.939550 0.907490 0.913620 -0.527840
C27   C     C_R   0.109598 0.884906 0.886926 0.809926
O19   O     O_R   0.934640 0.932890 0.057220 -0.528726
C28   C     C_R   0.102691 0.915882 0.080551 0.737103
V4    V     V_3+5 0.827780 0.990750 0.998250 1.535123
O20   O     O_3   0.104690 0.049230 0.008930 -0.357324
Br1   Br    Br    0.377102 0.895855 0.752974 -0.528059
Br2   Br    Br    0.010012 0.718738 0.848683 -0.646158
O21   O     O_3   0.468571 0.703261 0.693904 -0.539197
C29   C     C_3   0.570830 0.699292 0.756858 -0.132587
H3    H     H_    0.616237 0.759553 0.788737 0.191233
H4    H     H_    0.701710 0.663412 0.738766 0.177143
H5    H     H_    0.486976 0.669033 0.792302 0.144480
O22   O     O_3   0.927762 0.213162 0.164940 -0.547415
C30   C     C_3   0.030898 0.285256 0.176884 -0.164793
H6    H     H_    0.140337 0.279156 0.132718 0.167154
H7    H     H_    0.935087 0.335323 0.174488 0.097759
H8    H     H_    0.108915 0.298550 0.229824 0.199510
Br3   Br    Br    0.398628 0.165908 0.251691 -0.521044
O23   O     O_3   0.493669 0.340555 0.263952 -0.536763
C31   C     C_3   0.503868 0.415587 0.249149 -0.271914
H9    H     H_    0.651280 0.428971 0.232039 0.114289
H10   H     H_    0.454252 0.463279 0.297042 0.139731
H11   H     H_    0.405970 0.415226 0.202999 0.156576

loop_
_geom_bond_atom_site_label_1
_geom_bond_atom_site_label_2
_ccdc_geom_bond_type
O5    V1    S    
C31   H11   S    
O2    C1    A    
C10   C11   S    
C30   H7    S    
C11   C12   T    
C16   C17   S    
O1    V2    S    
C22   Br3   S    
C20   C26   S    
O7    V1    S    
C5    Br1   S    
O13   C28   A    
O17   V3    S    
C6    Br2   S    
C17   C18   T    
O17   V4    S    
C12   C13   S    
C19   C20   T    
C29   H5    S    
O12   C25   A    
C5    C6    D    
O21   C29   S    
C30   H8    S    
O4    C2    A    
O4    V1    S    
O3    V1    S    
O11   V4    S    
V4    O20   S    
C7    O21   S    
V3    O20   S    
O15   V3    S    
O14   C26   A    
O8    C3    A    
C13   C14   T    
O22   C30   S    
O3    C4    A    
C25   O16   A    
O18   V4    S    
O16   V4    S    
C23   H2    S    
C15   C16   T    
C1    C15   S    
O13   V3    S    
C21   C22   D    
O6    V2    S    
C21   C23   S    
O9    V2    S    
O5    C3    A    
C31   H9    S    
O9    C4    A    
V2    O10   S    
C3    C14   S    
C29   H4    S    
C30   H6    S    
O2    V1    S    
C24   O23   S    
C4    C8    S    
C21   O22   S    
O19   C28   A    
C8    H1    S    
C6    C27   S    
C9    C28   S    
O18   C27   A    
O14   V3    S    
O15   C27   A    
C1    O6    A    
C31   H10   S    
C22   C25   S    
O12   V3    S    
C9    C10   T    
C23   C24   D    
C2    C24   S    
V1    O10   S    
C7    C8    D    
C5    C7    S    
C29   H3    S    
O1    C2    A    
O8    V2    S    
O11   C26   A    
C18   C19   S    
O7    V2    S    
O23   C31   S    
O19   V4    S    
