data_mof_unit_33295.cif
_audit_creation_date              2012-12-10T17:32:15-0500
_audit_creation_method            fapswitch 2.2
_symmetry_space_group_name_H-M    P1
_symmetry_Int_Tables_number       1
_space_group_crystal_system       triclinic
_cell_length_a                    12.396258
_cell_length_b                    13.383822
_cell_length_c                    15.015643
_cell_angle_alpha                 76.043232
_cell_angle_beta                  100.875809
_cell_angle_gamma                 116.895478
_cell_volume                      2147.04260308

loop_
_atom_site_label
_atom_site_type_symbol
_atom_type_description
_atom_site_fract_x
_atom_site_fract_y
_atom_site_fract_z
_atom_type_partial_charge
C1    C     C_R   0.854655 0.285946 0.514168 0.778612
C2    C     C_R   0.101567 0.578231 0.090981 0.040011
C3    C     C_R   0.794986 0.345007 0.049325 -0.193448
C4    C     C_R   0.791798 0.344347 0.955907 0.254800
C5    C     C_R   0.893319 0.420573 0.906762 0.049763
C6    C     C_R   0.997909 0.496823 0.952913 0.043537
C7    C     C_R   0.101331 0.572424 0.905432 0.136846
C8    C     C_R   0.203070 0.649643 0.950541 -0.216337
C9    C     C_R   0.202553 0.653386 0.042141 -0.184419
C10   C     C_R   0.893766 0.423324 0.812848 -0.185974
C11   C     C_R   0.997465 0.497288 0.767156 -0.049108
C12   C     C_R   0.998506 0.498198 0.670777 0.802897
C13   C     C_R   0.101090 0.570463 0.813204 -0.215336
C14   C     C_R   0.271968 0.013162 0.522451 0.450875
C15   C     C_R   0.229264 0.832967 0.484669 -0.175881
C16   C     C_R   0.821918 0.088351 0.511175 -0.153821
C17   C     C_R   0.747127 0.973417 0.510922 -0.126384
C18   C     C_R   0.622042 0.931780 0.512770 -0.110348
C19   C     C_R   0.568961 0.005078 0.514002 0.120919
C20   C     C_R   0.648619 0.115494 0.532231 0.078119
C21   C     C_R   0.440547 0.970630 0.506566 -0.026146
C22   C     C_R   0.397306 0.041026 0.532048 -0.016148
C23   C     C_R   0.145395 0.712909 0.485852 0.865214
C24   C     C_R   0.479206 0.136379 0.569483 -0.188728
C25   C     C_R   0.602837 0.172031 0.570194 -0.174779
C26   C     C_R   0.353023 0.871410 0.473072 0.184682
C27   C     C_R   0.189053 0.906030 0.505257 -0.271519
C28   C     C_R   0.774077 0.161753 0.521073 -0.100251
C29   C     C_R   0.356620 0.345715 0.659166 -0.272070
C30   C     C_R   0.755901 0.642510 0.370524 0.335803
C31   C     C_R   0.655164 0.666924 0.339240 0.396106
C32   C     C_R   0.554269 0.613908 0.388819 -0.310219
C33   C     C_R   0.551604 0.535566 0.470143 -0.070657
C34   C     C_R   0.000702 0.500867 0.329087 0.859715
C35   C     C_R   0.655252 0.510789 0.498829 0.218889
C36   C     C_R   0.449587 0.480621 0.524048 0.008382
C37   C     C_R   0.455795 0.405696 0.607076 0.099185
C38   C     C_R   0.559678 0.387903 0.636477 -0.274545
C39   C     C_R   0.654849 0.436312 0.581700 -0.148673
C40   C     C_R   0.340991 0.496058 0.499567 -0.028122
C41   C     C_R   0.251530 0.361294 0.630608 0.443885
C42   C     C_R   0.099969 0.582814 0.183065 0.379870
C43   C     C_R   0.000978 0.501569 0.232125 -0.157259
C44   C     C_R   0.899685 0.422817 0.187812 -0.281879
C45   C     C_R   0.897382 0.421673 0.094711 0.054006
C46   C     C_R   0.999183 0.498394 0.046396 -0.004038
Cu1   Cu    Cu3+1 0.098270 0.475420 0.521130 1.000700
Cu2   Cu    Cu3+1 0.901730 0.524580 0.478870 0.970177
H1    H     H_    0.446909 0.181895 0.599830 0.187805
H2    H     H_    0.917651 0.119158 0.505417 0.174629
H3    H     H_    0.569510 0.841038 0.518785 0.182965
H4    H     H_    0.786125 0.916396 0.508358 0.163412
H5    H     H_    0.663777 0.238214 0.607225 0.144262
H6    H     H_    0.564932 0.330744 0.700273 0.192714
H7    H     H_    0.359986 0.285415 0.721299 0.191105
H8    H     H_    0.822716 0.362676 0.226075 0.161423
H9    H     H_    0.329160 0.553162 0.438682 0.185736
H10   H     H_    0.480568 0.637659 0.362578 0.215251
H11   H     H_    0.725593 0.410844 0.605517 0.187620
H12   H     H_    0.716684 0.285842 0.086390 0.180033
H13   H     H_    0.815361 0.367272 0.774798 0.164208
H14   H     H_    0.180365 0.627635 0.776357 0.140816
H15   H     H_    0.282596 0.708217 0.914618 0.156535
H16   H     H_    0.281754 0.715133 0.074608 0.194059
H17   H     H_    0.093183 0.880192 0.508159 0.202548
N1    N     N_R   0.246280 0.438190 0.553160 -0.222855
N2    N     N_R   0.754320 0.561190 0.447410 -0.249780
O1    O     O_R   0.972510 0.318130 0.526570 -0.556446
O2    O     O_R   0.806530 0.359650 0.490890 -0.599165
O3    O     O_R   0.082980 0.479210 0.647590 -0.536982
O4    O     O_R   0.917000 0.520730 0.611900 -0.610298
O5    O     O_R   0.193470 0.640350 0.509110 -0.551161
O6    O     O_R   0.027490 0.681870 0.473430 -0.551669
O7    O     O_R   0.083000 0.479270 0.388100 -0.572462
O8    O     O_R   0.917020 0.520790 0.352410 -0.554274
O9    O     O_3   0.191886 0.670593 0.223336 -0.584859
C47   C     C_3   0.156614 0.760259 0.213467 0.115716
H18   H     H_    0.154774 0.773209 0.283275 0.203859
H19   H     H_    0.064675 0.744439 0.176601 0.152591
C48   C     C_3   0.248531 0.870344 0.162415 -0.737367
H20   H     H_    0.237610 0.867040 0.087983 0.227388
H21   H     H_    0.233148 0.943385 0.169800 0.221913
H22   H     H_    0.342662 0.884168 0.190600 0.289059
O10   O     O_3   0.228263 0.088507 0.531442 -0.574118
C49   C     C_3   0.252239 0.176563 0.452869 0.056262
H23   H     H_    0.263269 0.152038 0.390177 0.142875
H24   H     H_    0.336519 0.251806 0.468734 0.157906
C50   C     C_3   0.147793 0.211187 0.428385 -0.740468
H25   H     H_    0.130734 0.233206 0.489257 0.268203
H26   H     H_    0.170392 0.286436 0.371943 0.206333
H27   H     H_    0.064436 0.139834 0.405185 0.239794
Br1   Br    Br    0.391040 0.803972 0.389952 -0.570106
Br2   Br    Br    0.116587 0.268022 0.702560 -0.470075
Br3   Br    Br    0.895690 0.734247 0.302723 -0.537350
O11   O     O_3   0.658402 0.749732 0.262793 -0.537950
C51   C     C_3   0.620861 0.701060 0.182036 0.120255
H28   H     H_    0.625077 0.617562 0.190405 0.123436
H29   H     H_    0.682815 0.760549 0.128833 0.193944
C52   C     C_3   0.492810 0.687821 0.146069 -0.792369
H30   H     H_    0.489004 0.771155 0.136217 0.270504
H31   H     H_    0.466961 0.657973 0.078992 0.207448
H32   H     H_    0.427161 0.624724 0.195606 0.251624
Br4   Br    Br    0.646489 0.236468 0.900058 -0.561383

loop_
_geom_bond_atom_site_label_1
_geom_bond_atom_site_label_2
_ccdc_geom_bond_type
C16   C28   A    
C7    C13   A    
C21   C26   A    
C51   C52   S    
C9    H16   S    
O11   C51   S    
C14   O10   S    
Cu2   O2    S    
C33   C36   A    
C7    C8    A    
C47   H18   S    
C2    C46   A    
C5    C6    A    
C36   C37   A    
C19   C21   A    
C25   H5    S    
C30   C31   A    
C47   C48   S    
C20   C25   A    
C26   Br1   S    
C4    Br4   S    
C1    O1    A    
C18   C19   A    
C41   Br2   S    
C13   H14   S    
C19   C20   A    
C16   C17   A    
C51   H29   S    
C1    C28   S    
C24   C25   A    
C32   H10   S    
C14   C27   A    
Cu1   N1    S    
C30   N2    A    
C34   O8    A    
C3    H12   S    
C15   C23   S    
C40   N1    A    
C21   C22   A    
Cu2   O8    S    
C23   O6    A    
C48   H22   S    
Cu2   O6    S    
C17   H4    S    
C18   H3    S    
C47   H19   S    
C49   H24   S    
C36   C40   A    
O9    C47   S    
C48   H21   S    
C8    C9    A    
C15   C26   A    
C29   H7    S    
C49   H23   S    
C3    C45   A    
C1    O2    A    
C35   C39   A    
C43   C44   A    
Cu1   O3    S    
C37   C38   A    
C27   H17   S    
C44   H8    S    
C15   C27   A    
Cu1   Cu2   S    
C38   H6    S    
C50   H27   S    
C35   N2    A    
C39   H11   S    
C51   H28   S    
C17   C18   A    
O10   C49   S    
C6    C7    A    
C34   O7    A    
C52   H31   S    
C12   O4    A    
C50   H26   S    
C22   C24   A    
C10   H13   S    
C42   C43   A    
Cu2   O4    S    
C3    C4    A    
Cu1   O1    S    
C44   C45   A    
C49   C50   S    
C24   H1    S    
C12   O3    A    
C40   H9    S    
C6    C46   A    
C29   C41   A    
C23   O5    A    
C31   C32   A    
C34   C43   S    
Cu1   O7    S    
C16   H2    S    
C48   H20   S    
C11   C12   S    
C41   N1    A    
C20   C28   A    
C42   O9    S    
C52   H30   S    
C32   C33   A    
C14   C22   A    
C5    C10   A    
C30   Br3   S    
C11   C13   A    
C38   C39   A    
C2    C42   A    
C31   O11   S    
C33   C35   A    
Cu2   N2    S    
Cu1   O5    S    
C10   C11   A    
C8    H15   S    
C45   C46   A    
C4    C5    A    
C52   H32   S    
C50   H25   S    
C29   C37   A    
C2    C9    A    
