data_mof_unit_39601.cif
_audit_creation_date              2012-12-10T16:48:46-0500
_audit_creation_method            fapswitch 2.2
_symmetry_space_group_name_H-M    P1
_symmetry_Int_Tables_number       1
_space_group_crystal_system       triclinic
_cell_length_a                    17.19188
_cell_length_b                    8.674934
_cell_length_c                    7.554217
_cell_angle_alpha                 102.334813
_cell_angle_beta                  90.878616
_cell_angle_gamma                 94.357646
_cell_volume                      1096.85894929

loop_
_atom_site_label
_atom_site_type_symbol
_atom_type_description
_atom_site_fract_x
_atom_site_fract_y
_atom_site_fract_z
_atom_type_partial_charge
C1    C     C_R   0.495713 0.200609 0.455460 0.808464
C2    C     C_R   0.504287 0.799391 0.544540 0.808465
C3    C     C_2   0.484821 0.033529 0.436996 0.251098
C4    C     C_2   0.515179 0.966471 0.563004 0.251097
C5    C     C_R   0.351890 0.503200 0.525278 0.854968
C6    C     C_R   0.648110 0.496801 0.474722 0.854967
C7    C     C_R   0.268292 0.511097 0.544093 -0.179121
C8    C     C_R   0.731708 0.488904 0.455907 -0.179121
C9    C     C_R   0.218908 0.369895 0.510140 -0.028458
C10   C     C_R   0.781091 0.630106 0.489858 -0.028458
C11   C     C_R   0.138283 0.379281 0.524133 0.601797
C12   C     C_R   0.861717 0.620723 0.475861 0.601798
C13   C     C_R   0.107472 0.527555 0.569579 -0.221977
C14   C     C_R   0.892528 0.472450 0.430414 -0.221977
C15   C     C_R   0.157018 0.666767 0.611184 0.623835
C16   C     C_R   0.842983 0.333236 0.388816 0.623836
C17   C     C_R   0.237832 0.660100 0.597909 0.003957
C18   C     C_R   0.762169 0.339901 0.402097 0.003958
C19   C     C_2   0.023028 0.539956 0.569491 0.012485
C20   C     C_2   0.976973 0.460050 0.430501 0.012486
Cu1   Cu    Cu3+1 0.508700 0.517250 0.683000 0.985343
Cu2   Cu    Cu3+1 0.491300 0.482750 0.317000 0.985345
H1    H     H_    0.000955 0.377670 0.319698 0.219547
H2    H     H_    0.999045 0.622337 0.680294 0.219547
N1    N     N_2   0.478180 0.456750 0.041980 -0.059433
N2    N     N_2   0.521820 0.543250 0.958020 -0.059432
O1    O     O_R   0.505650 0.286040 0.618880 -0.580389
O2    O     O_R   0.494350 0.713960 0.381120 -0.580388
O3    O     O_R   0.490960 0.256910 0.309800 -0.570504
O4    O     O_R   0.509040 0.743090 0.690200 -0.570505
O5    O     O_R   0.394600 0.516230 0.672450 -0.597125
O6    O     O_R   0.605400 0.483770 0.327550 -0.597123
O7    O     O_R   0.379910 0.487100 0.363380 -0.566991
O8    O     O_R   0.620090 0.512900 0.636620 -0.566992
C21   C     C_3   0.252227 0.210479 0.460110 -0.670261
H3    H     H_    0.206489 0.110433 0.440329 0.302123
H4    H     H_    0.284028 0.201370 0.331922 0.226102
H5    H     H_    0.293388 0.196903 0.569465 0.186114
C22   C     C_3   0.747772 0.789518 0.539892 -0.670280
H6    H     H_    0.793509 0.889565 0.559674 0.302120
H7    H     H_    0.706611 0.803096 0.430541 0.186116
H8    H     H_    0.715971 0.798625 0.668081 0.226107
C23   C     C_3   0.708905 0.188884 0.363323 -0.730286
H9    H     H_    0.676132 0.178418 0.486256 0.238783
H10   H     H_    0.666892 0.190414 0.250741 0.231903
H11   H     H_    0.741316 0.081644 0.323456 0.273216
C24   C     C_3   0.291097 0.811113 0.636701 -0.730302
H12   H     H_    0.323868 0.821595 0.513772 0.238779
H13   H     H_    0.258687 0.918349 0.676590 0.273220
H14   H     H_    0.333112 0.809568 0.749272 0.231908
F1    F     F_    0.125948 0.808912 0.657448 -0.598623
F2    F     F_    0.874053 0.191091 0.342552 -0.598620
F3    F     F_    0.910298 0.755441 0.503897 -0.593273
F4    F     F_    0.089702 0.244563 0.496095 -0.593273
F5    F     F_    0.437261 0.949883 0.298029 -0.693633
F6    F     F_    0.562738 0.050117 0.701971 -0.693634
C25   C     C_3   0.440276 0.307397 0.947367 -0.302407
H15   H     H_    0.399383 0.262585 0.040324 0.165886
H16   H     H_    0.403575 0.318342 0.831095 0.169792
H17   H     H_    0.483801 0.219297 0.912288 0.237077
C26   C     C_3   0.559724 0.692603 0.052633 -0.302407
H18   H     H_    0.600617 0.737415 0.959676 0.165887
H19   H     H_    0.516199 0.780703 0.087712 0.237076
H20   H     H_    0.596426 0.681657 0.168904 0.169792

loop_
_geom_bond_atom_site_label_1
_geom_bond_atom_site_label_2
_ccdc_geom_bond_type
C26   H20   S    
C6    O6    A    
C23   H9    S    
C15   C17   A    
Cu2   O3    S    
C15   F1    S    
C24   H14   S    
C23   H10   S    
Cu1   O4    S    
C2    C4    S    
C24   H12   S    
C20   H1    S    
C2    O4    A    
C6    O8    A    
C1    O3    A    
C19   H2    S    
Cu1   O1    S    
C24   H13   S    
C16   C18   A    
Cu2   O2    S    
C18   C23   S    
C4    F6    S    
Cu1   O5    S    
C25   H15   S    
C11   F4    S    
Cu2   O6    S    
C10   C12   A    
C7    C17   A    
C8    C10   A    
C21   H4    S    
Cu1   N2    S    
C12   C14   A    
C22   H8    S    
C7    C9    A    
C9    C11   A    
C13   C15   A    
C26   H18   S    
C23   H11   S    
C14   C16   A    
C25   H16   S    
C2    O2    A    
C13   C19   S    
C9    C21   S    
C3    C4    D    
N1    C25   S    
C12   F3    S    
C16   F2    S    
C11   C13   A    
C21   H5    S    
C22   H7    S    
C14   C20   S    
C1    O1    A    
C22   H6    S    
C5    C7    S    
Cu2   O7    S    
C25   H17   S    
C6    C8    S    
Cu1   O8    S    
C5    O5    A    
N1    N2    D    
Cu1   Cu2   S    
Cu2   N1    S    
C3    F5    S    
N2    C26   S    
C26   H19   S    
C8    C18   A    
C19   C20   D    
C17   C24   S    
C10   C22   S    
C1    C3    S    
C21   H3    S    
C5    O7    A    
