data_mof_unit_28059.cif
_audit_creation_date              2013-03-05T16:19:32-0500
_audit_creation_method            fapswitch 2.2
_symmetry_space_group_name_H-M    P1
_symmetry_Int_Tables_number       1
_space_group_crystal_system       triclinic
_cell_length_a                    8.293865
_cell_length_b                    19.025609
_cell_length_c                    26.913702
_cell_angle_alpha                 99.271863
_cell_angle_beta                  92.889821
_cell_angle_gamma                 87.727235
_cell_volume                      4183.91167787

loop_
_atom_site_label
_atom_site_type_symbol
_atom_site_description
_atom_site_fract_x
_atom_site_fract_y
_atom_site_fract_z
_atom_type_partial_charge
P1    P     P_3+3 0.926760 0.336170 0.451740 0.452641
O1    O     O_2   0.103290 0.325410 0.465600 -0.363374
O2    O     O_3   0.857760 0.414170 0.470020 -0.394399
O3    O     O_3   0.374170 0.371120 0.556000 -0.366934
O4    O     O_2   0.272669 0.248785 0.512085 -0.440528
O5    O     O_3   0.917812 0.317378 0.385879 -0.580838
O6    O     O_3   0.348584 0.255256 0.608857 -0.500699
H1    H     H_    0.426238 0.349133 0.651769 0.113606
C1    C     C_3   0.426381 0.265810 0.696741 -0.957984
H2    H     H_    0.303789 0.282440 0.709652 0.279050
H3    H     H_    0.441760 0.206921 0.692477 0.258819
P2    P     P_3+3 0.399470 0.558680 0.614150 0.487507
P3    P     P_3+3 0.949997 0.408591 0.646831 0.519831
O7    O     O_2   0.227790 0.537410 0.620340 -0.327176
O8    O     O_3   0.969630 0.407570 0.582610 -0.358226
O9    O     O_2   0.051175 0.470132 0.675737 -0.326756
O10   O     O_3   0.389941 0.651678 0.629387 -0.575576
O11   O     O_3   0.043485 0.329304 0.660156 -0.512863
C2    C     C_3   0.965154 0.271315 0.630212 0.434386
H4    H     H_    0.042260 0.248350 0.598777 0.143461
H5    H     H_    0.847396 0.285686 0.612200 -0.009542
C3    C     C_3   0.931007 0.214730 0.662337 -0.762977
H6    H     H_    0.877076 0.240624 0.697960 0.179691
C4    C     C_3   0.788072 0.708436 0.642365 0.816460
H7    H     H_    0.669297 0.690026 0.625851 0.008110
C5    C     C_3   0.796340 0.789815 0.644045 0.178251
H8    H     H_    0.713056 0.807442 0.614413 -0.021388
H9    H     H_    0.920284 0.802102 0.635045 0.090379
Ba1   Ba    Ba6+2 0.160260 0.465850 0.521400 1.580328
C6    C     C_3   0.967488 0.376217 0.366104 0.444499
H10   H     H_    0.089135 0.391680 0.381723 0.098059
H11   H     H_    0.880916 0.422056 0.374634 0.123018
C7    C     C_3   0.973421 0.355484 0.309189 -0.960184
H12   H     H_    0.063199 0.311005 0.299873 0.284010
H13   H     H_    0.008352 0.401191 0.291785 0.218055
H14   H     H_    0.852690 0.338340 0.293063 0.265770
C8    C     C_3   0.328697 0.680441 0.587328 0.454888
H15   H     H_    0.208397 0.659464 0.575812 0.110318
H16   H     H_    0.410054 0.667344 0.555434 0.142131
C9    C     C_3   0.314311 0.761031 0.601076 -1.084620
H17   H     H_    0.236261 0.776206 0.633672 0.276900
H18   H     H_    0.262879 0.785099 0.568781 0.243287
H19   H     H_    0.435598 0.782607 0.610482 0.241654
P4    P     P_3+3 0.883550 0.663840 0.548300 0.438725
O12   O     O_2   0.707020 0.674640 0.534420 -0.400527
O13   O     O_3   0.952550 0.585840 0.530020 -0.347021
O14   O     O_3   0.436140 0.628890 0.444040 -0.352278
O15   O     O_3   0.915321 0.672727 0.614303 -0.644422
P5    P     P_3+3 0.833723 0.591522 0.352348 0.480254
O16   O     O_3   0.350480 0.462320 0.439870 -0.388938
O17   O     O_3   0.840680 0.592440 0.417430 -0.366553
O18   O     O_2   0.679904 0.551813 0.331194 -0.308601
O19   O     O_3   0.785752 0.678234 0.341733 -0.525941
Ba2   Ba    Ba6+2 0.649930 0.534160 0.478640 1.575055
P6    P     P_3+3 0.399895 0.279917 0.552005 0.416730
C10   C     C_3   0.452154 0.290683 0.646932 0.475734
H20   H     H_    0.580714 0.278663 0.638066 0.001860
H21   H     H_    0.516247 0.290242 0.725753 0.208572
O20   O     O_3   0.459840 0.537690 0.560170 -0.410996
C11   C     C_3   0.469497 0.315420 0.398237 0.294061
H22   H     H_    0.584347 0.339706 0.414043 0.029950
H23   H     H_    0.381710 0.320521 0.428455 0.102839
C12   C     C_3   0.505077 0.236465 0.379420 0.166723
H24   H     H_    0.608793 0.232189 0.354427 0.125499
H25   H     H_    0.545377 0.208903 0.411730 -0.002994
P7    P     P_3+3 0.400584 0.440588 0.376716 0.461254
O21   O     O_2   0.582520 0.462630 0.379680 -0.349878
O22   O     O_3   0.405631 0.348090 0.357989 -0.553756
H26   H     H_    0.841623 0.177703 0.641747 0.173749
C13   C     C_3   0.899691 0.723690 0.368528 0.465502
H27   H     H_    0.889058 0.724931 0.409562 0.126599
H28   H     H_    0.023672 0.706233 0.357110 -0.016850
C14   C     C_3   0.865389 0.798782 0.357303 -1.021418
H29   H     H_    0.755815 0.821700 0.376543 0.289502
H30   H     H_    0.967106 0.833494 0.371519 0.224909
H31   H     H_    0.847759 0.798085 0.316043 0.247029
P8    P     P_3+3 0.405738 0.719891 0.444395 0.461866
C15   C     C_3   0.370996 0.740831 0.351791 0.302136
H32   H     H_    0.258225 0.769644 0.364292 0.004851
O23   O     O_2   0.514801 0.754078 0.489238 -0.402653
O24   O     O_3   0.489287 0.744403 0.391457 -0.496794
H33   H     H_    0.344382 0.684125 0.337332 0.074984
C16   C     C_3   0.434411 0.775290 0.308794 0.224278
H34   H     H_    0.548546 0.745706 0.297880 0.130237
C17   C     C_R   0.953800 0.799633 0.523591 -0.317162
H35   H     H_    0.875980 0.820120 0.553346 0.123448
C18   C     C_R   0.989794 0.725921 0.515526 0.283771
C19   C     C_R   0.134186 0.815458 0.459228 -0.345472
H36   H     H_    0.184415 0.846229 0.433766 0.161640
C20   C     C_R   0.196129 0.745962 0.459989 0.184179
C21   C     C_R   0.658732 0.180570 0.533958 -0.337032
H37   H     H_    0.578784 0.149231 0.550260 0.157782
C22   C     C_R   0.600078 0.249583 0.530845 0.219469
C23   C     C_R   0.882584 0.199627 0.484734 -0.306316
H38   H     H_    0.981938 0.180628 0.461288 0.137729
C24   C     C_R   0.827173 0.271439 0.484595 0.311828
C25   C     C_R   0.017607 0.846144 0.493616 0.129341
C26   C     C_R   0.113502 0.699780 0.484044 -0.433593
H39   H     H_    0.154691 0.644751 0.481796 0.153383
C27   C     C_R   0.808514 0.153828 0.514349 0.084596
C28   C     C_R   0.688581 0.295691 0.509231 -0.468628
H40   H     H_    0.642746 0.349587 0.508515 0.164065
C29   C     C_R   0.251503 0.963248 0.491105 -0.130150
C30   C     C_R   0.356317 0.014678 0.482506 -0.068161
C31   C     C_R   0.308725 0.085540 0.492384 -0.166147
C32   C     C_R   0.157167 0.104284 0.510739 -0.069860
C33   C     C_R   0.037382 0.054227 0.508161 0.059127
C34   C     C_R   0.085779 0.979986 0.499267 0.081527
C35   C     C_R   0.877411 0.077742 0.520685 -0.056182
C36   C     C_R   0.784650 0.024724 0.536711 0.093989
C37   C     C_R   0.814133 0.951454 0.517241 0.069008
C38   C     C_R   0.970465 0.926267 0.500930 -0.059533
C39   C     C_R   0.677605 0.039675 0.576529 -0.158677
C40   C     C_R   0.572631 0.988346 0.586043 -0.077546
C41   C     C_R   0.572107 0.922025 0.555489 -0.154765
C42   C     C_R   0.687883 0.905010 0.519289 -0.166771
H41   H     H_    0.306445 0.911859 0.492975 0.143152
H42   H     H_    0.478543 0.000008 0.471790 0.154780
H43   H     H_    0.391935 0.125669 0.487912 0.146813
H44   H     H_    0.132802 0.157488 0.529044 0.188431
H45   H     H_    0.680699 0.089184 0.602423 0.118368
H46   H     H_    0.489244 0.000654 0.616135 0.140647
H47   H     H_    0.484943 0.883300 0.560634 0.146593
H48   H     H_    0.686379 0.853758 0.495584 0.196102
C43   C     C_R   0.413440 0.520477 0.188024 0.553333
O25   O     O_2   0.520379 0.522014 0.221058 -0.568737
N1    N     N_R   0.252185 0.525705 0.200366 -0.154896
C44   C     C_R   0.134420 0.526311 0.161821 0.588827
C45   C     C_2   0.075516 0.565798 0.272865 -0.147041
C46   C     C_3   0.015680 0.545190 0.320909 0.052701
C47   C     C_1   0.276186 0.489849 0.335113 0.275566
C48   C     C_2   0.302568 0.482155 0.286162 -0.201964
C49   C     C_2   0.206855 0.526894 0.252609 0.146906
C50   C     C_R   0.337027 0.525000 0.099929 -0.059907
C51   C     C_R   0.455780 0.513899 0.137189 -0.091773
C52   C     C_R   0.613905 0.496824 0.122950 -0.048624
C53   C     C_R   0.176126 0.535624 0.113380 -0.007952
C54   C     C_2   0.156718 0.530892 0.355701 -0.441708
H49   H     H_    0.387080 0.440850 0.269809 0.165666
H50   H     H_    0.706260 0.485465 0.150573 0.211252
C55   C     C_2   0.639196 0.466052 0.633502 -0.372928
C56   C     C_R   0.576576 0.498581 0.983022 0.055431
C57   C     C_R   0.294208 0.531823 0.961281 0.047395
C58   C     C_R   0.453546 0.511271 0.946496 0.081013
C59   C     C_R   0.732520 0.477409 0.965992 -0.234979
C60   C     C_R   0.766025 0.469741 0.915252 -0.115900
C61   C     C_R   0.647062 0.483571 0.879152 -0.029983
C62   C     C_R   0.489203 0.501645 0.894359 -0.059853
C63   C     C_R   0.366193 0.508398 0.857316 -0.086135
C64   C     C_R   0.402497 0.497104 0.805922 0.535594
N2    N     N_R   0.560737 0.484813 0.791535 -0.166109
C65   C     C_R   0.682909 0.479069 0.828014 0.509579
C66   C     C_2   0.701586 0.425418 0.717391 -0.178254
C67   C     C_3   0.731389 0.414281 0.661765 0.046998
C68   C     C_1   0.529883 0.511522 0.655578 0.257176
C69   C     C_2   0.513770 0.524563 0.704851 -0.214822
C70   C     C_2   0.596915 0.477113 0.738285 0.124142
O26   O     O_2   0.823536 0.471185 0.816177 -0.603116
C71   C     C_R   0.538193 0.504457 0.034649 0.038895
C72   C     C_R   0.378105 0.524225 0.049079 0.077661
C73   C     C_R   0.258332 0.543188 0.013414 0.031316
C74   C     C_R   0.653717 0.490370 0.072718 -0.217493
H51   H     H_    0.756920 0.387091 0.739348 0.162468
H52   H     H_    0.885565 0.450845 0.904027 0.156475
H53   H     H_    0.832347 0.465597 0.990730 0.125602
H54   H     H_    0.776709 0.473905 0.065183 0.140309
O27   O     O_2   0.993189 0.518089 0.169457 -0.635805
C75   C     C_R   0.061969 0.559537 0.079431 -0.221504
H55   H     H_    0.942917 0.577200 0.092171 0.164242
C76   C     C_R   0.173023 0.534543 0.922824 -0.140316
C77   C     C_R   0.208117 0.523963 0.872213 -0.060071
O28   O     O_2   0.292454 0.497188 0.773963 -0.554009
C78   C     C_R   0.106314 0.571178 0.032064 -0.095746
H56   H     H_    0.047750 0.542631 0.930717 0.130871
H57   H     H_    0.109897 0.527820 0.844625 0.209553
H58   H     H_    0.446178 0.571828 0.721511 0.165050
H59   H     H_    0.177869 0.566764 0.390875 0.157417
H60   H     H_    0.661215 0.462345 0.593771 0.177059
O29   O     O_3   0.769260 0.828638 0.692621 -0.553772
C79   C     C_3   0.602788 0.842222 0.699191 -0.080290
H61   H     H_    0.536709 0.791792 0.695473 0.149341
H62   H     H_    0.550795 0.877007 0.672539 0.102416
H63   H     H_    0.586549 0.871138 0.737906 0.163026
O30   O     O_3   0.371077 0.205268 0.350588 -0.555296
C80   C     C_3   0.277820 0.169228 0.380252 -0.107565
H64   H     H_    0.238268 0.205075 0.414481 0.154258
H65   H     H_    0.345907 0.121788 0.390616 0.124147
H66   H     H_    0.167616 0.150287 0.357817 0.157161
O31   O     O_3   0.328290 0.764572 0.265161 -0.597855
C81   C     C_3   0.201201 0.816685 0.266381 -0.079435
H67   H     H_    0.245129 0.866535 0.255975 0.116265
H68   H     H_    0.145388 0.828280 0.303488 0.103757
H69   H     H_    0.105540 0.797097 0.237854 0.194856
C82   C     C_2   0.480561 0.852462 0.324890 0.416437
H70   H     H_    0.547145 0.878280 0.299590 0.036684
O32   O     O_2   0.443561 0.886162 0.365513 -0.596894
C83   C     C_2   0.080306 0.172458 0.674069 0.718011
H71   H     H_    0.130952 0.177973 0.712402 -0.001537
O33   O     O_2   0.145792 0.131773 0.640735 -0.588267
C84   C     C_2   0.996263 0.625567 0.250654 0.608576
H72   H     H_    0.869149 0.638411 0.255296 0.074255
O34   O     O_2   0.072757 0.660947 0.226666 -0.582655
C85   C     C_2   0.001815 0.623139 0.008753 0.525307
H73   H     H_    0.873290 0.627332 0.015128 0.019348
O35   O     O_2   0.059504 0.664498 0.984719 -0.547273
O36   O     O_3   0.800939 0.694610 0.692859 -0.630449
C86   C     C_3   0.851736 0.623673 0.695829 0.038384
H74   H     H_    0.803471 0.585227 0.663682 0.082577
H75   H     H_    0.809121 0.609104 0.731113 0.127910
H76   H     H_    0.985795 0.619344 0.697364 0.181606

loop_
_geom_bond_atom_site_label_1
_geom_bond_atom_site_label_2
_geom_bond_distance
_ccdc_geom_bond_type
C57   C58   1.421116 A    
P7    O22   1.750203 S    
C85   H73   1.085993 S    
C12   H25   1.116512 S    
C28   H40   1.082152 S    
P2    Ba1   3.412412 S    
C14   H30   1.106558 S    
C14   H29   1.107900 S    
C3    C83   1.497743 S    
C82   O32   1.221866 D    
C2    H4    1.108564 S    
O6    P6    1.747942 S    
C56   C71   1.426965 A    
C52   H50   1.080432 S    
H1    C10   1.112207 S    
C50   C53   1.398749 A    
C59   C60   1.390781 A    
C51   C52   1.396104 A    
C59   H53   1.075701 S    
C5    O29   1.417907 S    
O30   C80   1.409445 S    
C48   H49   1.085606 S    
C85   O35   1.221318 D    
C5    H8    1.112607 S    
O16   Ba2   2.945086 S    
P3    O11   1.748967 S    
C66   H51   1.084667 S    
C11   C12   1.528014 S    
N2    C70   1.462070 S    
C69   C70   1.500030 S    
C2    H5    1.112395 S    
C4    C5    1.545795 S    
O11   C2    1.416449 S    
C8    C9    1.519601 S    
C16   O31   1.424112 S    
C6    H10   1.105488 S    
O2    Ba2   2.791794 S    
C57   C73   1.429392 A    
C55   C67   1.502164 S    
C80   H65   1.111832 S    
C21   C22   1.395842 A    
C76   C77   1.388378 A    
C83   H71   1.084775 S    
C41   C42   1.394304 A    
C7    H14   1.110800 S    
C10   H20   1.111243 S    
C11   H23   1.108897 S    
P1    O1    1.506804 D    
C83   O33   1.221064 D    
C36   C37   1.424126 A    
C81   H69   1.107998 S    
C74   H54   1.074648 S    
P2    O20   1.546398 S    
C15   C16   1.542344 S    
C9    H19   1.103675 S    
C64   O28   1.222306 D    
C61   C62   1.404594 A    
P4    O13   1.580366 S    
C84   H72   1.081575 S    
P5    O17   1.746921 S    
P2    O10   1.750242 S    
C86   H76   1.110833 S    
C33   C34   1.438497 A    
C37   C42   1.405396 A    
C23   C27   1.444849 A    
C21   C27   1.417766 A    
P4    C18   1.856397 S    
C1    H2    1.108749 S    
C3    H26   1.107781 S    
O3    Ba1   2.717284 S    
C6    C7    1.521756 S    
C79   H63   1.109068 S    
C58   C62   1.429937 A    
Ba2   O20   2.756427 S    
C18   C26   1.389020 A    
C43   C51   1.414420 A    
C9    H18   1.105672 S    
P7    O21   1.576842 D    
C27   C35   1.566903 S    
C24   C28   1.382026 A    
C33   C35   1.422511 A    
C56   C59   1.415666 A    
C50   C72   1.424556 A    
C29   H41   1.069711 S    
O6    C10   1.406011 S    
O19   C13   1.398620 S    
C30   C31   1.377301 A    
C79   H62   1.112472 S    
O8    Ba1   2.726424 S    
C30   H42   1.081579 S    
Ba1   O16   2.757083 S    
C17   C18   1.406492 A    
C75   C78   1.397926 A    
C65   O26   1.221689 D    
P8    C20   1.839171 S    
C41   H47   1.081600 S    
C60   C61   1.397072 A    
C86   H74   1.108251 S    
C4    O15   1.415606 S    
Ba1   O20   2.945996 S    
C2    C3    1.528247 S    
C62   C63   1.406997 A    
C39   C40   1.395616 A    
Ba1   Ba2   4.569368 S    
C22   C28   1.380311 A    
C21   H37   1.064266 S    
C25   C38   1.542454 S    
O36   C86   1.411241 S    
C48   C49   1.513924 S    
C80   H66   1.109159 S    
C52   C74   1.392873 A    
Ba2   O21   2.828505 S    
C17   H35   1.068344 S    
C60   H52   1.081858 S    
C34   C38   1.434518 A    
C11   H22   1.110195 S    
P1    O2    1.580368 S    
C44   C53   1.405525 A    
C81   H67   1.110846 S    
C8    H15   1.100640 S    
P4    Ba2   3.446572 S    
C44   O27   1.219809 D    
C73   C78   1.431641 A    
C15   H33   1.113128 S    
C71   C72   1.421442 A    
P8    O24   1.751241 S    
N2    C65   1.388532 Am   
P5    O18   1.545018 D    
O13   Ba2   2.930217 S    
C13   C14   1.520344 S    
P1    Ba1   3.446012 S    
C7    H12   1.110810 S    
C71   C74   1.417307 A    
C23   H38   1.078500 S    
C1    C10   1.519227 S    
O10   C8    1.399424 S    
C4    H7    1.106201 S    
C23   C24   1.424624 A    
O16   P7    1.750377 S    
C36   C39   1.412535 A    
C11   O22   1.404730 S    
C29   C34   1.418479 A    
O14   Ba2   2.716678 S    
C45   C49   1.377524 D    
C9    H17   1.110341 S    
O5    C6    1.398872 S    
C19   C20   1.402259 A    
O12   Ba2   2.890867 S    
C1    H3    1.110604 S    
O3    P6    1.726497 S    
C43   O25   1.221532 D    
C14   H31   1.110702 S    
C56   C58   1.421854 A    
C16   H34   1.109818 S    
O14   P8    1.738262 S    
O7    Ba1   2.828407 S    
N1    C44   1.389647 Am   
C46   C54   1.505159 S    
C68   C69   1.321800 D    
C13   H27   1.108698 S    
C79   H61   1.111843 S    
C86   H75   1.109059 S    
P7    C47   1.827983 S    
C76   H56   1.071151 S    
P8    O23   1.543211 D    
C75   H55   1.084506 S    
C81   H68   1.108106 S    
C12   O30   1.416515 S    
C42   H48   1.075973 S    
C37   C38   1.429623 A    
C32   H44   1.068316 S    
C63   C77   1.396885 A    
O4    P6    1.532577 D    
C3    H6    1.111533 S    
C55   C68   1.322822 D    
P4    O12   1.507026 D    
N1    C49   1.470112 S    
C57   C76   1.411523 A    
P2    O7    1.519975 D    
C12   H24   1.110939 S    
C69   H58   1.086007 S    
C40   C41   1.390711 A    
C50   C51   1.404451 A    
C31   C32   1.386203 A    
P1    O5    1.749274 S    
C5    H9    1.110159 S    
Ba1   O13   2.791209 S    
C78   C85   1.482958 S    
O17   Ba2   2.727047 S    
C72   C73   1.423155 A    
C16   C82   1.520782 S    
P3    O8    1.741172 S    
C61   C65   1.411125 A    
C45   C46   1.521666 S    
C19   C25   1.415510 A    
C55   H60   1.084483 S    
C8    H16   1.109216 S    
C47   C54   1.324058 D    
C35   C36   1.425009 A    
C6    H11   1.109629 S    
C15   H32   1.104596 S    
C15   O24   1.408231 S    
O2    Ba1   2.929372 S    
C80   H64   1.109819 S    
C77   H57   1.082657 S    
O1    Ba1   2.890244 S    
P1    C24   1.867111 S    
P5    O19   1.746411 S    
C4    O36   1.423312 S    
C7    H13   1.106565 S    
C20   C26   1.391615 A    
C82   H70   1.084950 S    
C66   C70   1.356647 D    
O31   C81   1.416064 S    
P3    C67   1.872033 S    
C45   C84   1.484143 S    
C17   C25   1.422734 A    
O29   C79   1.409248 S    
C40   H46   1.082407 S    
P4    O15   1.764416 S    
C39   H45   1.078035 S    
C19   H36   1.078581 S    
C1    H21   1.110453 S    
C84   O34   1.219677 D    
C26   H39   1.081580 S    
C32   C33   1.394841 A    
P3    O9    1.548831 D    
C29   C30   1.388329 A    
C43   N1    1.390155 Am   
C64   N2    1.387363 Am   
C31   H43   1.073993 S    
C13   H28   1.110856 S    
P2    C68   1.828093 S    
C66   C67   1.509407 S    
C63   C64   1.411076 A    
C54   H59   1.085030 S    
P6    C22   1.824116 S    
P5    C46   1.885029 S    
C53   C75   1.396720 A    
C47   C48   1.330192 D    
