data_mof_unit_18459.cif
_audit_creation_date              2012-10-26T18:32:03-0400
_audit_creation_method            fapswitch 2.2
_symmetry_space_group_name_H-M    P1
_symmetry_Int_Tables_number       1
_space_group_crystal_system       triclinic
_cell_length_a                    12.353526
_cell_length_b                    13.267674
_cell_length_c                    14.273017
_cell_angle_alpha                 93.286376
_cell_angle_beta                  107.638293
_cell_angle_gamma                 117.021647
_cell_volume                      1932.93675071

loop_
_atom_site_label
_atom_site_type_symbol
_atom_type_description
_atom_site_fract_x
_atom_site_fract_y
_atom_site_fract_z
_atom_type_partial_charge
C1    C     C_R   0.650826 0.714043 0.508593 0.532076
C2    C     C_R   0.220069 0.510988 0.012702 0.051149
C3    C     C_R   0.164515 0.519602 0.084288 0.031991
C4    C     C_R   0.619737 0.518586 0.686835 0.545295
C5    C     C_R   0.327619 0.492519 0.039882 -0.135002
C6    C     C_R   0.380301 0.481722 0.137426 -0.141090
C7    C     C_R   0.215318 0.502627 0.180317 -0.132525
C8    C     C_R   0.139500 0.966696 0.362619 -0.129660
C9    C     C_R   0.248926 0.162357 0.463113 -0.001866
C10   C     C_R   0.730587 0.921038 0.574102 -0.131394
C11   C     C_R   0.820846 0.037935 0.592943 -0.138750
C12   C     C_R   0.881393 0.547491 0.924667 0.031313
C13   C     C_R   0.921704 0.072590 0.556690 -0.120334
C14   C     C_R   0.931486 0.990182 0.497011 0.032551
C15   C     C_R   0.829887 0.872754 0.467651 0.024179
C16   C     C_R   0.345228 0.285290 0.484955 0.550814
C17   C     C_R   0.038064 0.020656 0.464648 0.028854
C18   C     C_R   0.034833 0.937253 0.395263 0.052013
C19   C     C_R   0.926083 0.826278 0.357602 -0.138453
C20   C     C_R   0.824327 0.794772 0.392214 -0.122145
C21   C     C_R   0.148870 0.131453 0.500296 -0.135079
C22   C     C_R   0.245855 0.079212 0.395847 -0.135119
C23   C     C_R   0.835520 0.570254 0.998726 0.053164
C24   C     C_R   0.735789 0.837219 0.513827 -0.001652
C25   C     C_R   0.253840 0.685136 0.661600 -0.152379
C26   C     C_R   0.654791 0.342241 0.363737 0.045445
C27   C     C_R   0.732553 0.307922 0.333536 -0.159784
C28   C     C_R   0.382601 0.484689 0.313484 0.543280
C29   C     C_R   0.867885 0.367297 0.384589 -0.138415
C30   C     C_R   0.927868 0.462586 0.467154 -0.006818
C31   C     C_R   0.843812 0.494849 0.495301 0.180223
C32   C     C_R   0.067456 0.526834 0.522823 -0.014211
C33   C     C_R   0.119019 0.621141 0.605160 0.034759
C34   C     C_R   0.998252 0.540676 0.954487 0.030804
C35   C     C_R   0.036029 0.651450 0.630951 -0.182986
C36   C     C_R   0.902050 0.590085 0.577361 -0.105748
C37   C     C_R   0.159328 0.502264 0.501087 0.036980
C38   C     C_R   0.338292 0.656480 0.636518 0.036880
C39   C     C_R   0.691994 0.536027 0.794482 -0.003953
C40   C     C_R   0.324225 0.486967 0.208118 -0.003384
C41   C     C_R   0.721684 0.579222 0.970358 -0.135258
C42   C     C_R   0.650740 0.562978 0.868798 -0.138095
C43   C     C_R   0.805805 0.527762 0.822768 -0.140911
C44   C     C_R   0.058196 0.542003 0.056998 0.031853
C45   C     C_R   0.011455 0.567804 0.129047 -0.141457
C46   C     C_R   0.902968 0.582855 0.100202 -0.135973
C47   C     C_R   0.058102 0.534199 0.885665 -0.142563
C48   C     C_R   0.167831 0.520909 0.914863 -0.135467
Cu1   Cu    Cu3+1 0.416420 0.526630 0.522910 0.923764
Cu2   Cu    Cu3+1 0.583580 0.473370 0.477090 0.912098
H1    H     H_    0.870106 0.602155 0.157669 0.100780
H2    H     H_    0.740040 0.709410 0.356774 0.148644
H3    H     H_    0.442305 0.705777 0.679980 0.117416
H4    H     H_    0.170169 0.499242 0.234679 0.119188
H5    H     H_    0.075154 0.723737 0.693835 0.112370
H6    H     H_    0.128596 0.432165 0.439742 0.116795
H7    H     H_    0.549981 0.295451 0.323467 0.123499
H8    H     H_    0.923098 0.336832 0.357993 0.100181
H9    H     H_    0.687651 0.234838 0.270206 0.105737
H10   H     H_    0.847757 0.620649 0.603468 0.182857
H11   H     H_    0.465212 0.470266 0.157637 0.124503
H12   H     H_    0.371549 0.487308 0.985865 0.102650
H13   H     H_    0.210884 0.516668 0.859912 0.110546
H14   H     H_    0.686990 0.597893 0.026741 0.101241
H15   H     H_    0.563110 0.570247 0.848507 0.124127
H16   H     H_    0.831566 0.502208 0.763605 0.124203
H17   H     H_    0.058976 0.580499 0.209143 0.106226
H18   H     H_    0.024952 0.542812 0.809112 0.110605
H19   H     H_    0.293761 0.757132 0.724890 0.094674
H20   H     H_    0.322756 0.102281 0.366017 0.122933
H21   H     H_    0.919757 0.763293 0.301351 0.100382
H22   H     H_    0.137368 0.903560 0.309362 0.110562
H23   H     H_    0.159858 0.196464 0.556765 0.118271
H24   H     H_    0.658115 0.896077 0.608754 0.128765
H25   H     H_    0.988318 0.164791 0.574716 0.104744
H26   H     H_    0.815022 0.101979 0.638610 0.122216
N1    N     N_R   0.290690 0.566960 0.557640 -0.231487
N2    N     N_R   0.709100 0.433710 0.442970 -0.234592
O1    O     O_R   0.545970 0.684450 0.528810 -0.499953
O2    O     O_R   0.687130 0.639470 0.490120 -0.527044
O3    O     O_R   0.519670 0.535100 0.660030 -0.501970
O4    O     O_R   0.660830 0.490120 0.621340 -0.520375
O5    O     O_R   0.312870 0.360530 0.509880 -0.506811
O6    O     O_R   0.454030 0.315550 0.471190 -0.500581
O7    O     O_R   0.339170 0.509880 0.378660 -0.506562
O8    O     O_R   0.480330 0.464900 0.339970 -0.513756

loop_
_geom_bond_atom_site_label_1
_geom_bond_atom_site_label_2
_ccdc_geom_bond_type
C27   C29   A    
C11   C13   A    
C41   C42   A    
C19   H21   S    
C19   C20   A    
Cu2   O6    S    
C45   C46   A    
C12   C23   A    
C26   C27   A    
C26   N2    A    
C6    H11   S    
C9    C16   S    
C12   C43   A    
C3    C7    A    
C11   H26   S    
C5    C6    A    
C9    C22   A    
C28   C40   S    
C21   H23   S    
C16   O6    A    
C18   C19   A    
Cu1   O3    S    
C37   H6    S    
C4    O3    A    
C13   H25   S    
C45   H17   S    
C42   H15   S    
C8    C22   A    
C7    C40   A    
C23   C46   A    
C13   C14   A    
C14   C17   A    
Cu2   N2    S    
C39   C42   A    
C15   C20   A    
C3    C44   A    
C8    H22   S    
C35   H5    S    
Cu1   O7    S    
C7    H4    S    
C34   C44   A    
C48   H13   S    
C39   C43   A    
C2    C48   A    
C37   N1    A    
C46   H1    S    
C16   O5    A    
C17   C21   A    
Cu1   O1    S    
C35   C36   A    
C29   C30   A    
C25   C38   A    
C47   C48   A    
C4    C39   S    
C17   C18   A    
C32   C37   A    
C15   C24   A    
C28   O8    A    
C1    O1    A    
C6    C40   A    
C2    C5    A    
C25   H19   S    
C12   C34   A    
C47   H18   S    
C44   C45   A    
Cu2   O4    S    
C31   N2    A    
C14   C15   A    
C36   H10   S    
Cu2   O2    S    
C38   N1    A    
C23   C41   A    
C10   C24   A    
C32   C33   A    
Cu1   O5    S    
C2    C3    A    
C20   H2    S    
C27   H9    S    
C30   C32   A    
C10   H24   S    
C9    C21   A    
C30   C31   A    
C38   H3    S    
C43   H16   S    
C33   C35   A    
Cu1   N1    S    
C5    H12   S    
C26   H7    S    
C8    C18   A    
C10   C11   A    
Cu2   O8    S    
C4    O4    A    
C29   H8    S    
C1    C24   S    
Cu1   Cu2   S    
C28   O7    A    
C1    O2    A    
C31   C36   A    
C34   C47   A    
C41   H14   S    
C22   H20   S    
C25   C33   A    
