data_mof_unit_22014.cif
_audit_creation_date              2012-12-10T17:09:32-0500
_audit_creation_method            fapswitch 2.2
_symmetry_space_group_name_H-M    P1
_symmetry_Int_Tables_number       1
_space_group_crystal_system       triclinic
_cell_length_a                    10.513593
_cell_length_b                    10.763601
_cell_length_c                    10.070958
_cell_angle_alpha                 89.661404
_cell_angle_beta                  91.253097
_cell_angle_gamma                 89.943359
_cell_volume                      1139.37793649

loop_
_atom_site_label
_atom_site_type_symbol
_atom_type_description
_atom_site_fract_x
_atom_site_fract_y
_atom_site_fract_z
_atom_type_partial_charge
C1    C     C_R   0.508552 0.262996 0.499715 0.955016
C2    C     C_2   0.559322 0.584685 0.077568 0.581250
C3    C     C_R   0.257853 0.493827 0.498457 0.994169
C4    C     C_R   0.488904 0.737706 0.499248 0.888349
C5    C     C_R   0.742311 0.502858 0.501657 0.996627
C6    C     C_3   0.044692 0.422822 0.602381 -0.418085
C7    C     C_3   0.953973 0.381648 0.488463 0.425391
C8    C     C_3   0.877299 0.501675 0.505184 -0.310928
C9    C     C_3   0.968510 0.544562 0.617707 0.419197
C10   C     C_3   0.046027 0.612145 0.511949 0.337052
C11   C     C_3   0.979892 0.169319 0.496001 -0.353337
C12   C     C_3   0.956803 0.568187 0.399792 0.294255
C13   C     C_3   0.415148 0.312614 0.877917 -0.141062
C14   C     C_3   0.687821 0.763006 0.069560 -0.254155
C15   C     C_3   0.017444 0.652946 0.813208 0.090198
C16   C     C_3   0.109913 0.564542 0.886281 -0.347183
C17   C     C_3   0.208971 0.636409 0.967424 -0.986699
C18   C     C_3   0.020457 0.825280 0.514066 -0.321513
C19   C     C_3   0.981697 0.670638 0.200860 -0.230881
C20   C     C_3   0.978294 0.343153 0.189980 -0.292105
C21   C     C_3   0.373415 0.915879 0.176290 0.120431
C22   C     C_3   0.243855 0.926280 0.245128 -0.360647
C23   C     C_3   0.032282 0.447586 0.382603 0.380401
C24   C     C_3   0.142307 0.981223 0.151251 -1.030177
C25   C     C_3   0.432132 0.901414 0.723157 -0.324740
C26   C     C_3   0.658936 0.123535 0.230685 -0.285280
C27   C     C_3   0.122870 0.491453 0.495443 -0.309578
C28   C     C_2   0.482161 0.934372 0.380810 0.323768
C29   C     C_2   0.463824 0.871419 0.495740 0.174751
C30   C     C_2   0.512332 0.067675 0.382176 0.441730
C31   C     C_2   0.522242 0.130812 0.497258 -0.446862
C32   C     C_2   0.536571 0.593523 0.926381 -0.114683
H1    H     H_    0.534704 0.086247 0.592728 0.161714
H2    H     H_    0.364908 0.290702 0.970862 0.122816
H3    H     H_    0.610378 0.823524 0.028995 0.137504
H4    H     H_    0.748603 0.726179 0.989830 0.140981
H5    H     H_    0.748381 0.822615 0.134011 0.195374
H6    H     H_    0.968340 0.709382 0.888502 0.128573
H7    H     H_    0.070928 0.720519 0.753258 0.191393
H8    H     H_    0.056075 0.501399 0.951501 0.222681
H9    H     H_    0.162355 0.507283 0.815435 0.234321
H10   H     H_    0.281339 0.675639 0.900820 0.256890
H11   H     H_    0.256033 0.573368 0.040565 0.271242
H12   H     H_    0.549071 0.681823 0.876707 0.082649
H13   H     H_    0.165192 0.713956 0.021415 0.249297
H14   H     H_    0.933681 0.806219 0.572321 0.160835
H15   H     H_    0.993529 0.846991 0.409468 0.200913
H16   H     H_    0.066368 0.909124 0.556796 0.188832
H17   H     H_    0.959722 0.607410 0.117509 0.198287
H18   H     H_    0.084059 0.662725 0.230670 0.183054
H19   H     H_    0.965648 0.766844 0.164837 0.147517
H20   H     H_    0.891042 0.401853 0.184971 0.195397
H21   H     H_    0.955802 0.250264 0.231240 0.191528
H22   H     H_    0.009672 0.328136 0.086994 0.165575
H23   H     H_    0.429072 0.452505 0.102751 0.163192
H24   H     H_    0.361974 0.847727 0.094563 0.137202
H25   H     H_    0.397634 0.004276 0.126094 0.189547
H26   H     H_    0.214262 0.832845 0.279441 0.243800
H27   H     H_    0.250186 0.988170 0.332810 0.238538
H28   H     H_    0.168762 0.077361 0.122168 0.284107
H29   H     H_    0.049793 0.984874 0.202166 0.258539
H30   H     H_    0.131134 0.924241 0.060410 0.256041
H31   H     H_    0.537493 0.891458 0.732222 0.144645
H32   H     H_    0.382973 0.818093 0.761587 0.204647
H33   H     H_    0.405006 0.980138 0.787287 0.164069
H34   H     H_    0.084693 0.359880 0.680326 0.161675
H35   H     H_    0.695209 0.026545 0.226682 0.149200
H36   H     H_    0.716400 0.178497 0.303246 0.205220
H37   H     H_    0.671289 0.166171 0.131251 0.190840
H38   H     H_    0.004028 0.158494 0.603396 0.179039
H39   H     H_    0.067968 0.182827 0.438138 0.192472
H40   H     H_    0.934968 0.081786 0.461598 0.169140
H41   H     H_    0.448661 0.222966 0.837585 0.163797
H42   H     H_    0.344533 0.354176 0.806850 0.163104
N1    N     N_2   0.501360 0.501330 0.852150 0.078567
N2    N     N_2   0.501400 0.501360 0.147810 -0.203231
O1    O     O_R   0.499980 0.319060 0.613040 -0.628432
O2    O     O_3   0.521615 0.388290 0.907528 -0.541848
O3    O     O_3   0.638878 0.666090 0.147893 -0.516950
O4    O     O_3   0.921973 0.589148 0.739328 -0.621642
O5    O     O_3   0.109568 0.727439 0.519908 -0.609522
O6    O     O_3   0.897369 0.645788 0.303948 -0.575805
O7    O     O_3   0.078678 0.398925 0.263064 -0.600591
O8    O     O_3   0.476034 0.872958 0.259403 -0.612516
O9    O     O_3   0.389327 0.927555 0.592079 -0.631281
O10   O     O_3   0.528686 0.127010 0.261100 -0.584509
O11   O     O_R   0.500020 0.319100 0.386900 -0.559071
O12   O     O_R   0.313930 0.499950 0.613050 -0.652870
O13   O     O_R   0.313970 0.499990 0.386910 -0.605034
O14   O     O_R   0.499980 0.680900 0.613100 -0.650999
O15   O     O_R   0.500020 0.680940 0.386960 -0.540427
O16   O     O_R   0.686030 0.500010 0.613090 -0.574409
O17   O     O_R   0.686070 0.500050 0.386950 -0.568385
O18   O     O_3   0.891533 0.266317 0.475862 -0.621815
Zn1   Zn    Zn3+2 0.499970 0.499970 0.650990 0.989696
Zn2   Zn    Zn3+2 0.500030 0.500030 0.349010 1.050219

loop_
_geom_bond_atom_site_label_1
_geom_bond_atom_site_label_2
_ccdc_geom_bond_type
C10   C27   S    
C1    O11   A    
C24   H29   S    
C28   O8    S    
C1    O1    A    
C18   H15   S    
C32   N1    D    
C11   H38   S    
N1    Zn1   S    
C7    C8    S    
C12   C23   S    
C23   O7    S    
C26   H35   S    
C28   C29   D    
C17   H13   S    
C14   H4    S    
C30   C31   D    
C11   H39   S    
C15   C16   S    
C1    C31   S    
C18   O5    S    
C2    C32   S    
C25   H31   S    
C17   H10   S    
C2    O3    S    
O15   Zn2   S    
C15   O4    S    
C8    C9    S    
C31   H1    S    
C23   C27   S    
C30   O10   S    
C19   O6    S    
C9    C10   S    
C29   O9    S    
C4    C29   S    
C26   O10   S    
C4    O15   A    
O12   Zn1   S    
C21   C22   S    
C6    C9    S    
C18   H14   S    
C4    O14   A    
O14   Zn1   S    
C25   H33   S    
C20   H22   S    
C14   H3    S    
C11   H40   S    
C16   C17   S    
O1    Zn1   S    
O16   Zn1   S    
C9    O4    S    
C17   H11   S    
C15   H6    S    
C21   H25   S    
C5    C8    S    
C19   H17   S    
C6    C27   S    
C21   O8    S    
C8    C12   S    
O11   Zn2   S    
C25   O9    S    
C32   H12   S    
C12   O6    S    
C14   O3    S    
C15   H7    S    
C10   C12   S    
C16   H8    S    
H23   N2    S    
C11   O18   S    
C13   H41   S    
O17   Zn2   S    
C22   C24   S    
C22   H27   S    
C2    N2    D    
C7    O18   S    
C13   O2    S    
C24   H30   S    
C3    O12   A    
C20   H21   S    
C18   H16   S    
C22   H26   S    
C21   H24   S    
C5    O17   A    
C6    C7    S    
C10   O5    S    
C3    O13   A    
C26   H36   S    
O13   Zn2   S    
C28   C30   S    
C13   H2    S    
C20   H20   S    
N2    Zn2   S    
C14   H5    S    
C19   H18   S    
C7    C23   S    
C3    C27   S    
N1    O2    S    
C5    O16   A    
C19   H19   S    
C6    H34   S    
C13   H42   S    
C20   O7    S    
C26   H37   S    
C24   H28   S    
C16   H9    S    
C25   H32   S    
