data_mof_unit_30723.cif
_audit_creation_date              2012-12-11T15:18:40-0500
_audit_creation_method            fapswitch 2.2
_symmetry_space_group_name_H-M    P1
_symmetry_Int_Tables_number       1
_space_group_crystal_system       triclinic
_cell_length_a                    6.938916
_cell_length_b                    19.887793
_cell_length_c                    23.77315
_cell_angle_alpha                 93.479184
_cell_angle_beta                  91.517086
_cell_angle_gamma                 88.251981
_cell_volume                      3272.12064726

loop_
_atom_site_label
_atom_site_type_symbol
_atom_type_description
_atom_site_fract_x
_atom_site_fract_y
_atom_site_fract_z
_atom_type_partial_charge
O1    O     O_R   0.620100 0.812200 0.810870 -0.540780
O2    O     O_R   0.379900 0.187800 0.189130 -0.541506
O3    O     O_R   0.296960 0.671650 0.794750 -0.536395
O4    O     O_R   0.703040 0.328350 0.205250 -0.536713
O5    O     O_R   0.120160 0.687800 0.689130 -0.540443
O6    O     O_R   0.879840 0.312200 0.310870 -0.541163
C1    C     C_R   0.469797 0.646726 0.804525 0.696925
C2    C     C_R   0.530202 0.353274 0.195474 0.695529
O7    O     O_R   0.290810 0.810670 0.817290 -0.543107
O8    O     O_R   0.709190 0.189330 0.182710 -0.543545
O9    O     O_R   0.113980 0.827820 0.711840 -0.537580
O10   O     O_R   0.886020 0.172180 0.288160 -0.538289
C3    C     C_R   0.459453 0.831799 0.834315 0.710233
C4    C     C_R   0.540547 0.168201 0.165685 0.708596
O11   O     O_R   0.626290 0.672180 0.788160 -0.533422
O12   O     O_R   0.373710 0.327820 0.211840 -0.534089
O13   O     O_3   0.451520 0.755460 0.715370 -0.368335
O14   O     O_3   0.548480 0.244540 0.284630 -0.366381
V1    V     V_3+5 0.179200 0.748980 0.756420 1.434211
V2    V     V_3+5 0.820800 0.251020 0.243580 1.435874
O15   O     O_R   0.783880 0.828350 0.705250 -0.534960
O16   O     O_R   0.216120 0.171650 0.294750 -0.532803
C5    C     C_R   0.949254 0.852778 0.694818 0.699900
C6    C     C_R   0.050755 0.147230 0.305184 0.703124
O17   O     O_R   0.790030 0.689320 0.682700 -0.546124
O18   O     O_R   0.209970 0.310680 0.317300 -0.543969
C7    C     C_R   0.959119 0.667989 0.665771 0.709757
C8    C     C_R   0.040865 0.331954 0.334268 0.712241
V3    V     V_3+5 0.678400 0.751010 0.743570 1.434910
V4    V     V_3+5 0.321600 0.248990 0.256430 1.446252
O19   O     O_3   0.955950 0.744540 0.784620 -0.365028
O20   O     O_3   0.044050 0.255460 0.215380 -0.366456
C9    C     C_R   0.862596 0.422613 0.391579 -0.204826
C10   C     C_R   0.137168 0.577128 0.608599 -0.207041
C11   C     C_R   0.029669 0.381403 0.383592 -0.083158
C12   C     C_R   0.970200 0.618408 0.616535 -0.081047
C13   C     C_R   0.184695 0.387939 0.422777 -0.224415
C14   C     C_R   0.815042 0.611780 0.577404 -0.205063
C15   C     C_R   0.172987 0.434474 0.469594 0.087694
C16   C     C_R   0.826604 0.565148 0.530652 0.094731
C17   C     C_R   0.005739 0.476047 0.476829 0.058672
C18   C     C_R   0.993831 0.523561 0.523430 0.056799
C19   C     C_R   0.850382 0.470214 0.437531 0.088625
C20   C     C_R   0.149231 0.529424 0.562712 0.090502
C21   C     C_R   0.325536 0.440206 0.509390 -0.175786
C22   C     C_R   0.673988 0.559377 0.490883 -0.165174
C23   C     C_R   0.313895 0.487306 0.555476 -0.186506
C24   C     C_R   0.685648 0.512290 0.444791 -0.184687
H1    H     H_    0.742687 0.418361 0.361515 0.123175
H2    H     H_    0.257129 0.581426 0.638642 0.122620
H3    H     H_    0.313541 0.356258 0.417239 0.137201
H4    H     H_    0.686233 0.643489 0.582918 0.127244
H5    H     H_    0.454692 0.408557 0.504668 0.143669
H6    H     H_    0.544821 0.591020 0.495607 0.142764
H7    H     H_    0.434427 0.491049 0.585321 0.132804
H8    H     H_    0.565123 0.508550 0.414944 0.134469
C25   C     C_R   0.946318 0.914358 0.663098 -0.053855
C26   C     C_R   0.053781 0.085634 0.336870 -0.055008
C27   C     C_R   0.879120 0.034038 0.660347 -0.139557
C28   C     C_R   0.120952 0.965948 0.339517 -0.139187
C29   C     C_R   0.883834 0.975399 0.689568 -0.166829
C30   C     C_R   0.115917 0.024599 0.310317 -0.168684
C31   C     C_R   0.993525 0.911887 0.605791 -0.154616
C32   C     C_R   0.007245 0.088086 0.394228 -0.142821
C33   C     C_R   0.967386 0.969570 0.573301 0.108285
C34   C     C_R   0.033489 0.030356 0.426658 0.102671
C35   C     C_R   0.925209 0.031858 0.603061 0.109493
C36   C     C_R   0.075417 0.968099 0.396843 0.107954
C37   C     C_R   0.990581 0.968502 0.513187 -0.012488
C38   C     C_R   0.010539 0.031366 0.486772 -0.011058
C39   C     C_R   0.007401 0.092396 0.521756 -0.012598
C40   C     C_R   0.993967 0.907469 0.478239 -0.016068
C41   C     C_R   0.944111 0.092053 0.576993 -0.222561
C42   C     C_R   0.056830 0.907898 0.422904 -0.220753
H9    H     H_    0.930047 0.139289 0.602110 0.157632
H10   H     H_    0.070851 0.860693 0.397739 0.156662
H11   H     H_    0.948114 0.135108 0.412248 0.111273
H12   H     H_    0.052827 0.864858 0.587852 0.110355
H13   H     H_    0.154154 0.021982 0.266323 0.108381
H14   H     H_    0.845150 0.978040 0.733526 0.108187
H15   H     H_    0.841816 0.081489 0.682847 0.122575
H16   H     H_    0.158046 0.918508 0.316968 0.123003
C43   C     C_R   0.497729 0.584822 0.835583 -0.054796
C44   C     C_R   0.502265 0.415176 0.164413 -0.054683
C45   C     C_R   0.687932 0.481972 0.844388 -0.128530
C46   C     C_R   0.312011 0.518015 0.155599 -0.128112
C47   C     C_R   0.613097 0.532550 0.811648 -0.152148
C48   C     C_R   0.386872 0.467444 0.188343 -0.151654
C49   C     C_R   0.443261 0.582286 0.891895 -0.168671
C50   C     C_R   0.556738 0.417709 0.108101 -0.168741
C51   C     C_R   0.505538 0.527939 0.925191 0.090282
C52   C     C_R   0.494438 0.472050 0.074800 0.090350
C53   C     C_R   0.646322 0.481596 0.902156 0.098932
C54   C     C_R   0.353622 0.518388 0.097832 0.098750
C55   C     C_R   0.445075 0.521566 0.981976 0.003501
C56   C     C_R   0.554894 0.478421 0.018015 0.003515
C57   C     C_R   0.723355 0.444490 0.996261 -0.095649
C58   C     C_R   0.276591 0.555489 0.003724 -0.095597
C59   C     C_R   0.755656 0.440345 0.937986 -0.094648
C60   C     C_R   0.244249 0.559629 0.062000 -0.094696
H17   H     H_    0.631098 0.373714 0.089474 0.116469
H18   H     H_    0.368914 0.626281 0.910525 0.116517
H19   H     H_    0.342508 0.466350 0.231648 0.109075
H20   H     H_    0.657456 0.533645 0.768344 0.108459
H21   H     H_    0.787580 0.445418 0.824678 0.128021
H22   H     H_    0.212343 0.554565 0.175306 0.128538
C61   C     C_R   0.686087 0.074175 0.103727 -0.216154
C62   C     C_R   0.313913 0.925825 0.896273 -0.216243
C63   C     C_R   0.530121 0.119142 0.116085 -0.083196
C64   C     C_R   0.469879 0.880858 0.883914 -0.083569
C65   C     C_R   0.362397 0.116195 0.081419 -0.213342
C66   C     C_R   0.637604 0.883806 0.918580 -0.213146
C67   C     C_R   0.350364 0.069515 0.034737 0.088207
C68   C     C_R   0.649636 0.930485 0.965263 0.088145
C69   C     C_R   0.506165 0.023928 0.023197 0.054529
C70   C     C_R   0.493835 0.976072 0.976803 0.054557
C71   C     C_R   0.674152 0.026049 0.058018 0.090243
C72   C     C_R   0.325848 0.973951 0.941982 0.090300
C73   C     C_R   0.185171 0.067559 0.999350 -0.181040
C74   C     C_R   0.814829 0.932441 0.000650 -0.180951
C75   C     C_R   0.173176 0.020301 0.953359 -0.179834
C76   C     C_R   0.826824 0.979699 0.046641 -0.179722
H23   H     H_    0.815280 0.075708 0.130399 0.122123
H24   H     H_    0.184720 0.924291 0.869601 0.122263
H25   H     H_    0.241839 0.150805 0.090413 0.131749
H26   H     H_    0.758162 0.849196 0.909586 0.131955
H27   H     H_    0.064421 0.102329 0.007456 0.138833
H28   H     H_    0.935579 0.897671 0.992543 0.138880
H29   H     H_    0.043609 0.019716 0.926886 0.136121
H30   H     H_    0.956391 0.980284 0.073114 0.136146
C77   C     C_1   0.915601 0.398452 0.916179 0.309573
N1    N     N_1   0.043103 0.365182 0.898919 -0.341074
C78   C     C_1   0.084197 0.601488 0.083797 0.309788
N2    N     N_1   0.956612 0.634727 0.101047 -0.340396
C79   C     C_1   0.878903 0.421671 0.033286 0.303715
N3    N     N_1   0.003575 0.403623 0.062539 -0.350199
C80   C     C_1   0.121055 0.578304 0.966693 0.303634
N4    N     N_1   0.996395 0.596349 0.937433 -0.349985
C81   C     C_2   0.096379 0.155537 0.506476 0.740486
O21   O     O_2   0.248142 0.153039 0.481279 -0.553456
O22   O     O_R   0.010599 0.217980 0.522841 -0.662819
H31   H     H_    0.085328 0.257224 0.510272 0.298635
C82   C     C_2   0.904740 0.844463 0.493850 0.741638
O23   O     O_2   0.978239 0.789603 0.479496 -0.558618
O24   O     O_R   0.732532 0.847873 0.523328 -0.657343
H32   H     H_    0.685695 0.801717 0.531414 0.294963

loop_
_geom_bond_atom_site_label_1
_geom_bond_atom_site_label_2
_ccdc_geom_bond_type
C26   C30   A    
C40   C82   S    
C43   C47   A    
C31   C33   A    
C49   H18   S    
C4    C63   S    
O13   V3    S    
C17   C18   A    
C1    C43   S    
C55   C56   A    
C61   H23   S    
O4    C2    A    
V1    O19   S    
C66   C68   A    
O24   H32   S    
C55   C58   A    
C79   N3    T    
C15   C17   A    
C34   C38   A    
C16   C22   A    
O9    V1    S    
C18   C20   A    
C76   H30   S    
C11   C13   A    
O3    C1    A    
C63   C65   A    
C13   H3    S    
C46   C48   A    
C14   H4    S    
C34   C36   A    
C29   H14   S    
C36   C42   A    
C82   O23   D    
C82   O24   S    
C52   C56   A    
C28   C30   A    
C32   H11   S    
O7    C3    A    
C46   C54   A    
C27   C35   A    
C67   C73   A    
C28   H16   S    
O7    V1    S    
O6    C8    A    
C8    C11   S    
O8    V2    S    
C69   C71   A    
C65   H25   S    
O3    V1    S    
C38   C39   A    
C35   C41   A    
C49   C51   A    
C19   C24   A    
C53   C59   A    
C66   H26   S    
C20   C23   A    
C15   C21   A    
C45   C47   A    
C21   H5    S    
C2    O12   A    
O5    C7    A    
C26   C32   A    
C17   C19   A    
C22   H6    S    
C46   H22   S    
C44   C50   A    
C62   H24   S    
C45   H21   S    
C52   C54   A    
C57   C59   A    
C74   C76   A    
O11   V3    S    
C21   C23   A    
O17   V3    S    
C43   C49   A    
C22   C24   A    
C10   H2    S    
C27   C29   A    
C58   C80   S    
C9    C19   A    
C62   C72   A    
C30   H13   S    
C10   C20   A    
C40   C42   A    
O8    C4    A    
C39   C41   A    
C39   C81   S    
C1    O11   A    
C33   C35   A    
O15   V3    S    
C72   C75   A    
C32   C34   A    
C37   C40   A    
C71   C76   A    
C50   H17   S    
C3    C64   S    
V4    O20   S    
C51   C53   A    
C50   C52   A    
C45   C53   A    
C54   C60   A    
C56   C57   A    
O10   V2    S    
C5    C25   S    
O1    V3    S    
C65   C67   A    
C73   C75   A    
C42   H10   S    
C70   C72   A    
O14   V4    S    
C6    C26   S    
O18   V4    S    
C58   C60   A    
O15   C5    A    
C78   N2    T    
O16   C6    A    
O1    C3    A    
C41   H9    S    
O12   V4    S    
C77   N1    T    
C48   H19   S    
C60   C78   S    
C23   H7    S    
V2    O20   S    
C24   H8    S    
O16   V4    S    
C2    C44   S    
C27   H15   S    
C25   C31   A    
C75   H29   S    
C16   C18   A    
C68   C70   A    
C81   O21   D    
C74   H28   S    
C25   C29   A    
O5    V1    S    
C7    C12   S    
O17   C7    A    
O6    V2    S    
C80   N4    T    
O10   C6    A    
O18   C8    A    
C59   C77   S    
O2    V4    S    
C12   C14   A    
C13   C15   A    
O22   H31   S    
C14   C16   A    
C81   O22   S    
C9    C11   A    
C61   C63   A    
C44   C48   A    
C33   C37   A    
O9    C5    A    
O13   V1    S    
C10   C12   A    
C62   C64   A    
O14   V2    S    
C37   C38   A    
O2    C4    A    
C64   C66   A    
C51   C55   A    
C47   H20   S    
O4    V2    S    
C28   C36   A    
V3    O19   S    
C57   C79   S    
C9    H1    S    
C61   C71   A    
C68   C74   A    
C69   C70   A    
C67   C69   A    
C31   H12   S    
C73   H27   S    
