data_mof_unit_35292.cif
_audit_creation_date              2012-12-11T15:37:30-0500
_audit_creation_method            fapswitch 2.2
_symmetry_space_group_name_H-M    P1
_symmetry_Int_Tables_number       1
_space_group_crystal_system       triclinic
_cell_length_a                    17.458253
_cell_length_b                    24.669545
_cell_length_c                    14.742125
_cell_angle_alpha                 90.107393
_cell_angle_beta                  125.954333
_cell_angle_gamma                 90.149225
_cell_volume                      5139.5562828

loop_
_atom_site_label
_atom_site_type_symbol
_atom_type_description
_atom_site_fract_x
_atom_site_fract_y
_atom_site_fract_z
_atom_type_partial_charge
C1    C     C_R   0.842807 0.649189 0.907048 -0.185359
C2    C     C_3   0.576383 0.498858 0.641820 0.183521
C3    C     C_3   0.047233 0.013143 0.524280 -0.134930
C4    C     C_3   0.092480 0.343806 0.293802 -0.971587
C5    C     C_3   0.952663 0.683182 0.765246 -0.969699
C6    C     C_3   0.100619 0.358249 0.746679 -0.928073
C7    C     C_3   0.100652 0.670397 0.252994 -0.963468
C8    C     C_3   0.592492 0.843813 0.293797 -0.971586
C9    C     C_3   0.452660 0.183182 0.765246 -0.969700
C10   C     C_3   0.600619 0.858249 0.746679 -0.928074
C11   C     C_3   0.600651 0.170397 0.252994 -0.963466
C12   C     C_3   0.903767 0.000510 0.463854 0.184479
C13   C     C_3   0.076383 0.998858 0.641819 0.183521
C14   C     C_R   0.813088 0.227928 0.923263 -0.166373
C15   C     C_R   0.290040 0.719422 0.095129 -0.163736
C16   C     C_R   0.325520 0.319683 0.035295 -0.186317
C17   C     C_R   0.732224 0.719148 0.964324 -0.187826
C18   C     C_R   0.313088 0.727928 0.923266 -0.166372
C19   C     C_R   0.790052 0.219419 0.095136 -0.163739
C20   C     C_R   0.825520 0.819683 0.035296 -0.186317
C21   C     C_R   0.188521 0.372623 0.092873 -0.164549
C22   C     C_R   0.232224 0.219148 0.964325 -0.187825
C23   C     C_R   0.262405 0.684608 0.923503 -0.207129
C24   C     C_R   0.842898 0.260793 0.097253 -0.190804
C25   C     C_R   0.873059 0.774754 0.036161 -0.199369
C26   C     C_R   0.185469 0.263462 0.964358 -0.179635
C27   C     C_R   0.762404 0.184608 0.923500 -0.207126
C28   C     C_R   0.342884 0.760797 0.097246 -0.190821
C29   C     C_R   0.373059 0.274754 0.036161 -0.199369
C30   C     C_R   0.685469 0.763462 0.964358 -0.179631
C31   C     C_R   0.246294 0.682543 0.005953 0.166578
C32   C     C_R   0.188814 0.626698 0.093068 -0.168093
C33   C     C_R   0.850354 0.266703 0.008650 0.146624
C34   C     C_R   0.825406 0.725094 0.000394 0.144495
C35   C     C_R   0.231872 0.313459 0.998191 0.175034
C36   C     C_R   0.746296 0.182542 0.005954 0.166576
C37   C     C_R   0.350347 0.766706 0.008648 0.146623
C38   C     C_R   0.325406 0.225094 0.000394 0.144494
C39   C     C_R   0.731872 0.813459 0.998191 0.175033
C40   C     C_R   0.884127 0.450332 0.455236 -0.170526
C41   C     C_R   0.882401 0.548326 0.360156 -0.170514
C42   C     C_R   0.886281 0.450318 0.362853 -0.166768
C43   C     C_R   0.849305 0.348241 0.907437 -0.177421
C44   C     C_R   0.880209 0.548393 0.452662 -0.170482
C45   C     C_R   0.384127 0.950332 0.455236 -0.170525
C46   C     C_R   0.382401 0.048326 0.360156 -0.170514
C47   C     C_R   0.386281 0.950318 0.362853 -0.166771
C48   C     C_R   0.380209 0.048392 0.452662 -0.170482
C49   C     C_R   0.896792 0.499469 0.323457 0.143034
C50   C     C_R   0.891258 0.499519 0.507654 0.141814
C51   C     C_R   0.396792 0.999469 0.323457 0.143035
C52   C     C_R   0.391258 0.999519 0.507654 0.141815
C53   C     C_R   0.953346 0.347503 0.093606 0.177972
C54   C     C_R   0.342807 0.149189 0.907048 -0.185358
C55   C     C_R   0.089637 0.631246 0.905496 0.212071
C56   C     C_R   0.092919 0.373718 0.904994 0.185836
C57   C     C_R   0.939893 0.649394 0.093384 0.186207
C58   C     C_R   0.453342 0.847503 0.093605 0.177966
C59   C     C_R   0.589637 0.131247 0.905496 0.212070
C60   C     C_R   0.592919 0.873718 0.904994 0.185836
C61   C     C_R   0.439893 0.149394 0.093384 0.186207
C62   C     C_R   0.978386 0.545433 0.246829 -0.124411
C63   C     C_R   0.943270 0.454928 0.690427 -0.081988
C64   C     C_R   0.946742 0.545072 0.691818 -0.135499
C65   C     C_R   0.688521 0.872623 0.092873 -0.164542
C66   C     C_R   0.973585 0.454611 0.240488 -0.128317
C67   C     C_R   0.478386 0.045433 0.246829 -0.124410
C68   C     C_R   0.443270 0.954928 0.690427 -0.081988
C69   C     C_R   0.446742 0.045072 0.691819 -0.135499
C70   C     C_R   0.473585 0.954611 0.240489 -0.128305
C71   C     C_R   0.731974 0.454327 0.751603 -0.124795
C72   C     C_R   0.261501 0.545270 0.300155 -0.146721
C73   C     C_R   0.261124 0.455102 0.300467 -0.153797
C74   C     C_R   0.731592 0.544747 0.751838 -0.139554
C75   C     C_R   0.231974 0.954327 0.751603 -0.124794
C76   C     C_R   0.688814 0.126698 0.093068 -0.168092
C77   C     C_R   0.761501 0.045270 0.300155 -0.146720
C78   C     C_R   0.761124 0.955102 0.300467 -0.153809
C79   C     C_R   0.231592 0.044747 0.751838 -0.139556
C80   C     C_R   0.870928 0.677892 0.000972 -0.041412
C81   C     C_R   0.181141 0.358034 0.997882 -0.026516
C82   C     C_R   0.180309 0.644775 0.999066 -0.062268
C83   C     C_R   0.885315 0.317790 0.001598 -0.060466
C84   C     C_R   0.370928 0.177892 0.000972 -0.041413
C85   C     C_R   0.681140 0.858034 0.997882 -0.026518
C86   C     C_R   0.680309 0.144776 0.999067 -0.062267
C87   C     C_R   0.349303 0.848242 0.907436 -0.177421
C88   C     C_R   0.385310 0.817791 0.001597 -0.060458
C89   C     C_R   0.943352 0.499959 0.266907 0.026537
C90   C     C_R   0.926947 0.499884 0.625858 0.011750
C91   C     C_R   0.443352 0.999959 0.266907 0.026533
C92   C     C_R   0.426947 0.999884 0.625858 0.011751
C93   C     C_R   0.676737 0.499221 0.727104 0.027913
C94   C     C_R   0.311884 0.500353 0.358484 0.044237
C95   C     C_R   0.176737 0.999221 0.727103 0.027914
C96   C     C_R   0.811884 0.000353 0.358484 0.044246
C97   C     C_3   0.510448 0.449464 0.596569 -0.165931
C98   C     C_3   0.403767 0.500510 0.463855 0.184481
C99   C     C_3   0.469724 0.549835 0.509332 -0.165045
C100  C     C_3   0.480698 0.463918 0.478330 -0.155952
C101  C     C_3   0.499898 0.535614 0.628136 -0.158261
C102  C     C_3   0.010450 0.949463 0.596562 -0.165931
C103  C     C_3   0.969722 0.049836 0.509336 -0.165046
C104  C     C_3   0.980700 0.963921 0.478325 -0.155948
C105  C     C_3   0.999897 0.035611 0.628139 -0.158259
C106  C     C_3   0.431386 0.486115 0.580446 -0.142637
C107  C     C_3   0.547233 0.513139 0.524280 -0.134929
C108  C     C_3   0.931387 0.986111 0.580444 -0.142637
H1    H     H_    0.797033 0.662887 0.821225 0.116763
H2    H     H_    0.916700 0.414714 0.658289 0.104416
H3    H     H_    0.926334 0.585819 0.661437 0.131279
H4    H     H_    0.953805 0.413331 0.240215 0.112527
H5    H     H_    0.468388 0.086780 0.259908 0.121981
H6    H     H_    0.416700 0.914714 0.658289 0.104416
H7    H     H_    0.426335 0.085819 0.661437 0.131279
H8    H     H_    0.453805 0.913331 0.240216 0.112522
H9    H     H_    0.709488 0.412443 0.734450 0.097491
H10   H     H_    0.276674 0.586654 0.330168 0.090856
H11   H     H_    0.276304 0.413727 0.329998 0.101794
H12   H     H_    0.244364 0.362339 0.178576 0.119585
H13   H     H_    0.707787 0.586231 0.733338 0.101262
H14   H     H_    0.209488 0.912443 0.734449 0.097490
H15   H     H_    0.776674 0.086655 0.330168 0.090854
H16   H     H_    0.776306 0.913727 0.329997 0.101793
H17   H     H_    0.207787 0.086231 0.733338 0.101262
H18   H     H_    0.380574 0.475183 0.599576 0.115701
H19   H     H_    0.596461 0.524128 0.502660 0.116211
H20   H     H_    0.880575 0.975175 0.599572 0.115702
H21   H     H_    0.096460 0.024136 0.502661 0.116211
H22   H     H_    0.529137 0.408533 0.634845 0.111243
H23   H     H_    0.248014 0.632143 0.179534 0.114538
H24   H     H_    0.451972 0.590926 0.471797 0.108462
H25   H     H_    0.471015 0.434823 0.414739 0.112107
H26   H     H_    0.510738 0.564604 0.692441 0.111380
H27   H     H_    0.029141 0.908531 0.634834 0.111242
H28   H     H_    0.951967 0.090929 0.471806 0.108461
H29   H     H_    0.971018 0.934829 0.414731 0.112108
H30   H     H_    0.010736 0.064598 0.692447 0.111381
H31   H     H_    0.820320 0.232257 0.855523 0.110220
H32   H     H_    0.278392 0.718943 0.159604 0.110865
H33   H     H_    0.360710 0.358757 0.062692 0.124363
H34   H     H_    0.803891 0.334545 0.821324 0.104232
H35   H     H_    0.696592 0.680123 0.937889 0.123056
H36   H     H_    0.320324 0.732256 0.855529 0.110221
H37   H     H_    0.778409 0.218939 0.159614 0.110863
H38   H     H_    0.860710 0.858757 0.062693 0.124363
H39   H     H_    0.196592 0.180123 0.937890 0.123056
H40   H     H_    0.232211 0.654554 0.857217 0.113357
H41   H     H_    0.870788 0.290868 0.163367 0.118955
H42   H     H_    0.945785 0.778375 0.064174 0.129550
H43   H     H_    0.113443 0.258927 0.938514 0.113371
H44   H     H_    0.732204 0.154556 0.857210 0.113356
H45   H     H_    0.297033 0.162887 0.821225 0.116763
H46   H     H_    0.370767 0.790874 0.163355 0.118954
H47   H     H_    0.445785 0.278375 0.064174 0.129550
H48   H     H_    0.613443 0.758927 0.938513 0.113372
H49   H     H_    0.887128 0.411624 0.491311 0.106637
H50   H     H_    0.883050 0.586964 0.326177 0.108213
H51   H     H_    0.890650 0.411592 0.331868 0.103177
H52   H     H_    0.879389 0.587121 0.486399 0.109769
H53   H     H_    0.387128 0.911624 0.491311 0.106637
H54   H     H_    0.383050 0.086964 0.326177 0.108213
H55   H     H_    0.390650 0.911592 0.331869 0.103177
H56   H     H_    0.744363 0.862338 0.178576 0.119585
H57   H     H_    0.379388 0.087121 0.486398 0.109769
H58   H     H_    0.036642 0.279795 0.180443 0.171196
H59   H     H_    0.117168 0.385249 0.295364 0.269568
H60   H     H_    0.156803 0.318899 0.349044 0.247344
H61   H     H_    0.050383 0.342373 0.328030 0.243262
H62   H     H_    0.079724 0.680557 0.784281 0.169403
H63   H     H_    0.918237 0.701196 0.680809 0.246424
H64   H     H_    0.967824 0.715931 0.825683 0.262193
H65   H     H_    0.902677 0.653441 0.760575 0.255013
H66   H     H_    0.008202 0.319943 0.774260 0.147714
H67   H     H_    0.748013 0.132144 0.179534 0.114537
H68   H     H_    0.051155 0.354992 0.654023 0.242510
H69   H     H_    0.152109 0.324578 0.777589 0.260331
H70   H     H_    0.138235 0.397812 0.768105 0.261723
H71   H     H_    0.978396 0.706624 0.217296 0.168066
H72   H     H_    0.140586 0.689516 0.337347 0.244399
H73   H     H_    0.114860 0.693560 0.199699 0.252961
H74   H     H_    0.125981 0.628274 0.263518 0.264296
H75   H     H_    0.536624 0.779794 0.180460 0.171199
H76   H     H_    0.617178 0.885253 0.295337 0.269572
H77   H     H_    0.656816 0.818906 0.349033 0.247341
H78   H     H_    0.303889 0.834546 0.821323 0.104232
H79   H     H_    0.550413 0.842390 0.328048 0.243267
H80   H     H_    0.579722 0.180559 0.784282 0.169402
H81   H     H_    0.418234 0.201196 0.680809 0.246424
H82   H     H_    0.467820 0.215930 0.825682 0.262193
H83   H     H_    0.402675 0.153440 0.760575 0.255014
H84   H     H_    0.508202 0.819943 0.774260 0.147715
H85   H     H_    0.551155 0.854992 0.654023 0.242510
H86   H     H_    0.652109 0.824579 0.777590 0.260331
H87   H     H_    0.638234 0.897813 0.768105 0.261723
H88   H     H_    0.478396 0.206623 0.217296 0.168066
H89   H     H_    0.968388 0.586780 0.259908 0.121981
H90   H     H_    0.640586 0.189516 0.337347 0.244398
H91   H     H_    0.614860 0.193561 0.199699 0.252961
H92   H     H_    0.625981 0.128274 0.263518 0.264296
N1    N     N_R   0.892620 0.603790 0.941800 -0.048247
N2    N     N_R   0.047790 0.602400 0.942090 -0.049035
N3    N     N_R   0.047790 0.397600 0.942090 -0.074759
N4    N     N_R   0.952210 0.602400 0.057910 -0.049954
N5    N     N_R   0.452210 0.897600 0.057910 -0.050361
N6    N     N_R   0.547790 0.102400 0.942090 -0.049035
N7    N     N_R   0.547790 0.897600 0.942090 -0.074758
N8    N     N_R   0.452210 0.102400 0.057910 -0.049954
N9    N     N_R   0.026300 0.529110 0.206760 -0.040717
N10   N     N_R   0.973700 0.470890 0.793240 -0.044541
N11   N     N_R   0.973700 0.529110 0.793240 -0.043398
N12   N     N_R   0.107380 0.396210 0.058200 -0.044751
N13   N     N_R   0.026300 0.470890 0.206760 -0.042202
N14   N     N_R   0.526300 0.029110 0.206760 -0.040717
N15   N     N_R   0.473700 0.970890 0.793240 -0.044541
N16   N     N_R   0.473700 0.029110 0.793240 -0.043398
N17   N     N_R   0.526300 0.970890 0.206760 -0.042203
N18   N     N_R   0.818530 0.472270 0.792960 -0.041494
N19   N     N_R   0.181470 0.527730 0.207040 -0.036719
N20   N     N_R   0.181470 0.472270 0.207040 -0.033094
N21   N     N_R   0.818530 0.527730 0.792960 -0.039771
N22   N     N_R   0.318530 0.972270 0.792960 -0.041494
N23   N     N_R   0.107380 0.603790 0.058200 -0.046701
N24   N     N_R   0.681470 0.027730 0.207040 -0.036719
N25   N     N_R   0.681470 0.972270 0.207040 -0.033098
N26   N     N_R   0.318530 0.027730 0.792960 -0.039771
N27   N     N_2   0.038701 0.321605 0.181832 -0.110432
N28   N     N_2   0.039556 0.656803 0.798816 -0.125030
N29   N     N_2   0.047349 0.354942 0.793312 -0.123116
N30   N     N_2   0.000764 0.670805 0.204093 -0.127155
N31   N     N_2   0.538693 0.821603 0.181835 -0.110436
N32   N     N_2   0.539555 0.156804 0.798817 -0.125030
N33   N     N_2   0.547349 0.854942 0.793312 -0.123116
N34   N     N_R   0.892620 0.396210 0.941800 -0.049939
N35   N     N_2   0.500764 0.170805 0.204093 -0.127155
N36   N     N_R   0.392620 0.103790 0.941800 -0.048247
N37   N     N_R   0.607380 0.896210 0.058200 -0.044751
N38   N     N_R   0.607380 0.103790 0.058200 -0.046701
N39   N     N_R   0.392620 0.896210 0.941800 -0.049939
N40   N     N_R   0.952210 0.397600 0.057910 -0.050362
Ni1   Ni    Ni4+2 0.934150 0.565840 0.869060 0.205242
Ni2   Ni    Ni4+2 0.065850 0.434160 0.130940 0.216470
Ni3   Ni    Ni4+2 0.065850 0.565840 0.130940 0.210805
Ni4   Ni    Ni4+2 0.934150 0.434160 0.869060 0.197262
Ni5   Ni    Ni4+2 0.434150 0.065840 0.869060 0.205242
Ni6   Ni    Ni4+2 0.565850 0.934160 0.130940 0.216467
Ni7   Ni    Ni4+2 0.565850 0.065840 0.130940 0.210805
Ni8   Ni    Ni4+2 0.434150 0.934160 0.869060 0.197263

loop_
_geom_bond_atom_site_label_1
_geom_bond_atom_site_label_2
_ccdc_geom_bond_type
C3    C104  S    
C28   H46   S    
C87   C88   A    
C27   H44   S    
C73   H11   S    
H62   N28   S    
C75   H14   S    
C43   C83   A    
N11   Ni1   S    
C37   C88   S    
C70   C91   A    
C57   C80   A    
C64   C90   A    
N15   N16   A    
C1    N1    A    
N7    Ni8   S    
N9    Ni3   S    
C54   H45   S    
C54   C84   A    
C35   C81   S    
C75   C95   A    
H84   N33   S    
C56   N3    A    
N21   Ni1   S    
C101  H26   S    
C74   N21   A    
C19   H37   S    
C71   N18   A    
C99   H24   S    
N18   N21   A    
C9    N32   S    
N13   Ni2   S    
C18   C37   A    
C97   H22   S    
C12   C104  S    
C21   H12   S    
C19   C36   A    
C10   H86   S    
C16   C35   A    
C8    N31   S    
C20   C25   A    
C94   C98   S    
C3    C103  S    
C22   C38   A    
C62   C89   A    
C2    C107  S    
C101  C106  S    
N1    Ni1   S    
C104  H29   S    
C65   H56   S    
C76   N38   A    
C4    N27   S    
N5    N39   A    
C68   N15   A    
C45   H53   S    
C11   H92   S    
N12   Ni2   S    
C58   N31   S    
N24   Ni7   S    
C1    H1    S    
C105  H30   S    
C102  H27   S    
N22   Ni8   S    
C50   C90   S    
C69   H7    S    
C48   H57   S    
C42   H51   S    
C75   N22   A    
C78   C96   A    
H58   N27   S    
C100  C107  S    
C29   C38   A    
C56   N29   S    
C64   N11   A    
C102  C108  S    
N14   Ni7   S    
C34   C80   S    
C54   N36   A    
C14   C27   A    
C66   C89   A    
C69   C92   A    
C78   H16   S    
N8    N36   A    
C79   N26   A    
C21   N12   A    
C3    C13   S    
C25   C34   A    
C29   H47   S    
C67   C91   A    
C47   H55   S    
C8    H76   S    
C78   N25   A    
C40   C42   A    
C79   H17   S    
N15   Ni8   S    
N24   N25   A    
C51   C91   S    
C17   C30   A    
C74   C93   A    
C65   N37   A    
C69   N16   A    
C73   C94   A    
C14   C33   A    
C9    H81   S    
C59   N32   S    
N36   Ni5   S    
C53   N40   A    
C41   C49   A    
C32   N23   A    
C45   C52   A    
C87   H78   S    
C31   C82   S    
C45   C47   A    
C8    H79   S    
C11   N35   S    
N37   Ni6   S    
C105  C108  S    
C46   C48   A    
C68   H6    S    
C70   N17   A    
C87   N39   A    
C4    H61   S    
C7    H73   S    
C18   C23   A    
C40   H49   S    
C56   C81   A    
N6    Ni5   S    
N17   Ni6   S    
C2    C97   S    
C12   C103  S    
N6    N38   A    
N5    Ni6   S    
C2    C101  S    
C10   H85   S    
N23   Ni3   S    
N19   N20   A    
C12   C108  S    
C20   C39   A    
C71   H9    S    
C64   H3    S    
C47   C51   A    
N3    Ni4   S    
C42   C49   A    
C58   N5    A    
C70   H8    S    
N16   Ni5   S    
N2    Ni1   S    
N20   Ni2   S    
C46   C51   A    
C43   N34   A    
N22   N26   A    
N9    N13   A    
C4    H60   S    
C73   N20   A    
C25   H42   S    
C55   C82   A    
C23   C31   A    
C55   N28   S    
N38   Ni7   S    
C103  H28   S    
C79   C95   A    
C77   H15   S    
C77   N24   A    
N1    N4    A    
N40   Ni2   S    
C5    H63   S    
C103  C105  S    
N34   N40   A    
C108  H20   S    
H71   N30   S    
C102  C104  S    
C33   C83   S    
C97   C106  S    
C59   N6    A    
C13   C105  S    
C99   C101  S    
C44   H52   S    
C21   C81   A    
N10   N11   A    
C98   C100  S    
C6    H69   S    
C46   H54   S    
C61   N35   S    
C41   C44   A    
C20   H38   S    
N3    N12   A    
C52   C92   S    
C17   C34   A    
C39   C85   S    
C63   N10   A    
C9    H82   S    
C76   C86   A    
N4    Ni3   S    
C32   C82   A    
C100  H25   S    
N26   Ni5   S    
C15   H32   S    
C44   C50   A    
N25   Ni6   S    
C76   H67   S    
C72   N19   A    
C57   N4    A    
C26   H43   S    
C10   N33   S    
C97   C100  S    
C7    H74   S    
C38   C84   S    
C3    H21   S    
C5    H65   S    
N2    N23   A    
C2    C93   S    
C12   C96   S    
C60   N33   S    
C62   H89   S    
C49   C89   S    
C22   H39   S    
C67   N14   A    
C61   C84   A    
C58   C88   A    
C60   C85   A    
C4    H59   S    
C60   N7    A    
C15   C31   A    
C71   C93   A    
H88   N35   S    
C8    H77   S    
N8    Ni7   S    
C99   C107  S    
C23   H40   S    
C106  H18   S    
C77   C96   A    
C24   C33   A    
C98   C106  S    
C5    N28   S    
C53   C83   A    
C17   H35   S    
C27   C36   A    
C36   C86   S    
C66   N13   A    
C18   H36   S    
C19   C24   A    
C67   H5    S    
C59   C86   A    
C72   C94   A    
C65   C85   A    
H80   N32   S    
C10   H87   S    
C53   N27   S    
C57   N30   S    
C55   N2    A    
C16   C29   A    
C15   C28   A    
C6    H68   S    
C28   C37   A    
C63   H2    S    
C40   C50   A    
C63   C90   A    
C30   H48   S    
C68   C92   A    
C62   N9    A    
N19   Ni3   S    
C7    H72   S    
C16   H33   S    
N14   N17   A    
H66   N29   S    
C11   H91   S    
C11   H90   S    
C24   H41   S    
N7    N37   A    
C61   N8    A    
C107  H19   S    
C41   H50   S    
C13   C95   S    
C26   C35   A    
C48   C52   A    
C74   H13   S    
C14   H31   S    
N10   Ni4   S    
C98   C99   S    
C22   C26   A    
C6    N29   S    
C72   H10   S    
N18   Ni4   S    
C1    C80   A    
C5    H64   S    
N39   Ni8   S    
C43   H34   S    
C66   H4    S    
C13   C102  S    
C9    H83   S    
H75   N31   S    
C32   H23   S    
C6    H70   S    
C30   C39   A    
N34   Ni4   S    
C7    N30   S    
