data_mof_unit_56525.cif
_audit_creation_date              2012-12-11T14:49:52-0500
_audit_creation_method            fapswitch 2.2
_symmetry_space_group_name_H-M    P1
_symmetry_Int_Tables_number       1
_space_group_crystal_system       triclinic
_cell_length_a                    16.969161
_cell_length_b                    16.722029
_cell_length_c                    19.493179
_cell_angle_alpha                 117.880451
_cell_angle_beta                  62.019867
_cell_angle_gamma                 101.073896
_cell_volume                      4315.1545971

loop_
_atom_site_label
_atom_site_type_symbol
_atom_type_description
_atom_site_fract_x
_atom_site_fract_y
_atom_site_fract_z
_atom_type_partial_charge
C1    C     C_R   0.024544 0.761848 0.025321 0.549792
C2    C     C_R   0.237605 0.577081 0.830773 0.526038
C3    C     C_R   0.193619 0.445061 0.046189 -0.111262
C4    C     C_R   0.748439 0.475978 0.171530 -0.124077
C5    C     C_R   0.047993 0.327552 0.751247 -0.222102
C6    C     C_R   0.276426 0.464950 0.994301 0.036460
C7    C     C_R   0.038911 0.240033 0.743586 -0.089855
C8    C     C_R   0.228815 0.565038 0.758873 -0.095038
C9    C     C_R   0.984329 0.233135 0.047007 -0.032903
C10   C     C_R   0.079685 0.074056 0.665145 -0.278133
C11   C     C_R   0.087940 0.159023 0.664612 0.136456
C12   C     C_R   0.739986 0.535800 0.253667 0.079094
C13   C     C_R   0.136615 0.165095 0.585817 -0.237502
C14   C     C_R   0.159257 0.087399 0.508324 0.129938
C15   C     C_R   0.134509 0.002708 0.509970 0.036732
C16   C     C_R   0.818371 0.507331 0.910171 -0.119653
C17   C     C_R   0.098900 0.995397 0.588216 0.123196
C18   C     C_R   0.196097 0.094248 0.430253 -0.199970
C19   C     C_R   0.198483 0.019405 0.355909 -0.195216
C20   C     C_R   0.163617 0.937693 0.359583 0.139103
C21   C     C_R   0.136026 0.927626 0.435422 0.028560
C22   C     C_R   0.100494 0.845708 0.439600 0.138942
C23   C     C_R   0.745228 0.455604 0.932068 0.059954
C24   C     C_R   0.073957 0.836349 0.515262 -0.201676
C25   C     C_R   0.073673 0.910907 0.589278 -0.207107
C26   C     C_R   0.147017 0.869721 0.292083 -0.252641
C27   C     C_R   0.100840 0.793076 0.300426 0.115748
C28   C     C_R   0.012490 0.659157 0.240488 -0.151839
C29   C     C_R   0.083870 0.778254 0.371384 -0.253233
C30   C     C_R   0.276480 0.561989 0.616311 -0.239540
C31   C     C_R   0.282815 0.601115 0.694679 0.119964
C32   C     C_R   0.345835 0.667992 0.707035 -0.238198
C33   C     C_R   0.416615 0.677416 0.635607 -0.046628
C34   C     C_R   0.062927 0.734452 0.239748 0.037180
C35   C     C_R   0.416386 0.626987 0.553909 -0.020696
C36   C     C_R   0.342482 0.575022 0.545952 0.173636
C37   C     C_R   0.491583 0.728664 0.642020 0.530956
C38   C     C_R   0.569894 0.717405 0.566372 -0.370679
C39   C     C_R   0.572098 0.661104 0.485132 0.084244
C40   C     C_R   0.750735 0.429476 0.987227 -0.163371
C41   C     C_R   0.493314 0.620718 0.479069 0.029237
C42   C     C_R   0.493899 0.566264 0.397695 0.157764
C43   C     C_R   0.416012 0.524663 0.391558 -0.202229
C44   C     C_R   0.340772 0.528171 0.465458 -0.214997
C45   C     C_R   0.262149 0.529200 0.974801 -0.158144
C46   C     C_R   0.652940 0.638528 0.410226 -0.208690
C47   C     C_R   0.654919 0.576496 0.329885 0.106069
C48   C     C_R   0.574112 0.546826 0.323778 -0.253021
C49   C     C_R   0.679391 0.426383 0.897458 0.129578
C50   C     C_R   0.362599 0.423556 0.962167 0.137732
C51   C     C_R   0.454488 0.338493 0.971454 -0.225462
C52   C     C_R   0.081853 0.736249 0.163426 -0.022632
C53   C     C_R   0.370434 0.364614 0.991702 -0.165694
C54   C     C_R   0.438948 0.446224 0.903476 -0.282962
C55   C     C_R   0.522686 0.424126 0.886198 0.191859
C56   C     C_R   0.974647 0.246666 0.824673 0.550673
C57   C     C_R   0.530274 0.373807 0.924183 0.190046
C58   C     C_R   0.610598 0.371398 0.925488 -0.277916
C59   C     C_R   0.675800 0.465174 0.848770 -0.163422
C60   C     C_R   0.597661 0.462482 0.841737 -0.224065
C61   C     C_R   0.783763 0.175154 0.169076 -0.083481
C62   C     C_R   0.927352 0.863185 0.022579 0.145863
C63   C     C_R   0.858131 0.946523 0.989597 -0.152895
C64   C     C_R   0.825914 0.547244 0.249181 -0.143860
C65   C     C_R   0.900137 0.868184 0.966853 -0.178107
C66   C     C_R   0.913792 0.939523 0.101118 -0.208839
C67   C     C_R   0.153190 0.516015 0.762002 -0.243962
C68   C     C_R   0.874768 0.020942 0.123605 -0.091471
C69   C     C_R   0.843965 0.022423 0.067886 0.170493
C70   C     C_R   0.797913 0.099175 0.091683 -0.359713
C71   C     C_R   0.816822 0.176772 0.223259 0.497417
C72   C     C_R   0.862630 0.100348 0.201340 0.346224
C73   C     C_R   0.945935 0.690899 0.949460 -0.210664
C74   C     C_R   0.965932 0.776522 0.999568 -0.113550
C75   C     C_3   0.124558 0.875412 0.033863 0.093185
C76   C     C_3   0.213742 0.821882 0.973025 -0.268762
C77   C     C_3   0.286994 0.878461 0.935672 -1.010814
C78   C     C_R   0.025516 0.313496 0.076339 -0.146996
C79   C     C_3   0.873885 0.135023 0.806083 0.135706
C80   C     C_3   0.783697 0.186797 0.860523 -0.322837
C81   C     C_3   0.715822 0.134727 0.826103 -0.992702
C82   C     C_3   0.388850 0.547224 0.776549 0.150790
C83   C     C_3   0.373559 0.444458 0.747924 -0.387433
C84   C     C_3   0.461492 0.389599 0.684724 -0.933967
C85   C     C_3   0.486557 0.872669 0.743344 0.167094
C86   C     C_3   0.518443 0.929562 0.813364 -0.242335
C87   C     C_3   0.498548 0.030302 0.849909 -1.033380
C88   C     C_3   0.868543 0.316285 0.278797 0.204712
C89   C     C_R   0.945237 0.245965 0.004176 -0.021464
C90   C     C_3   0.856715 0.401591 0.361573 -0.209897
C91   C     C_3   0.931639 0.466763 0.343843 -1.092564
H1    H     H_    0.118458 0.504548 0.723966 0.130337
H2    H     H_    0.221354 0.027315 0.297407 0.130967
H3    H     H_    0.162902 0.881455 0.237020 0.121657
H4    H     H_    0.051474 0.717900 0.377263 0.121493
H5    H     H_    0.048065 0.773213 0.518828 0.129575
H6    H     H_    0.047336 0.904098 0.648749 0.130280
H7    H     H_    0.225603 0.514013 0.606592 0.115530
H8    H     H_    0.346259 0.703897 0.769501 0.198565
H9    H     H_    0.629891 0.749945 0.571564 0.157854
H10   H     H_    0.714282 0.665069 0.415526 0.121039
H11   H     H_    0.842364 0.528192 0.859140 0.082861
H12   H     H_    0.052139 0.331640 0.122146 0.097014
H13   H     H_    0.573042 0.501830 0.262585 0.117012
H14   H     H_    0.415433 0.483768 0.329250 0.129436
H15   H     H_    0.283464 0.489642 0.459027 0.127910
H16   H     H_    0.613815 0.337061 0.959283 0.119411
H17   H     H_    0.729459 0.504666 0.822973 0.114838
H18   H     H_    0.459711 0.298169 0.999514 0.128420
H19   H     H_    0.592937 0.499410 0.810492 0.124904
H20   H     H_    0.312502 0.342732 0.034217 0.114820
H21   H     H_    0.434537 0.489011 0.877808 0.123841
H22   H     H_    0.772501 0.100517 0.050576 0.160364
H23   H     H_    0.895660 0.202573 0.986208 0.149475
H24   H     H_    0.996926 0.628543 0.283200 0.102495
H25   H     H_    0.836130 0.947538 0.946016 0.115375
H26   H     H_    0.910486 0.810941 0.905607 0.115795
H27   H     H_    0.930599 0.933416 0.145477 0.173200
H28   H     H_    0.712466 0.379052 0.008254 0.088864
H29   H     H_    0.133019 0.774731 0.134016 0.118358
H30   H     H_    0.844525 0.590326 0.300807 0.107168
H31   H     H_    0.903242 0.675176 0.917884 0.131200
H32   H     H_    0.311308 0.567899 0.944988 0.168893
H33   H     H_    0.134484 0.940007 0.083378 0.145798
H34   H     H_    0.179321 0.400642 0.076241 0.089385
H35   H     H_    0.101990 0.894125 0.997855 0.106685
H36   H     H_    0.233772 0.799560 0.008254 0.210720
H37   H     H_    0.206142 0.761175 0.919170 0.190301
H38   H     H_    0.269844 0.899128 0.897661 0.262588
H39   H     H_    0.350030 0.837077 0.892691 0.291656
H40   H     H_    0.296932 0.939658 0.987947 0.265435
H41   H     H_    0.863011 0.065500 0.801845 0.138990
H42   H     H_    0.902085 0.127167 0.738756 0.109056
H43   H     H_    0.757779 0.198399 0.928583 0.200722
H44   H     H_    0.792780 0.253231 0.858424 0.198245
H45   H     H_    0.091394 0.350258 0.702628 0.136573
H46   H     H_    0.739861 0.123921 0.758574 0.273885
H47   H     H_    0.651373 0.173921 0.866422 0.269773
H48   H     H_    0.704440 0.068123 0.828308 0.267265
H49   H     H_    0.441721 0.565357 0.799129 0.133802
H50   H     H_    0.417262 0.560814 0.719318 0.135904
H51   H     H_    0.340973 0.428793 0.804267 0.217850
H52   H     H_    0.329448 0.421849 0.714910 0.208593
H53   H     H_    0.493564 0.401564 0.626008 0.267411
H54   H     H_    0.448513 0.316364 0.665390 0.274062
H55   H     H_    0.507824 0.408589 0.715002 0.259637
H56   H     H_    0.050468 0.068342 0.725191 0.174177
H57   H     H_    0.415599 0.891207 0.767990 0.117339
H58   H     H_    0.528131 0.889465 0.687618 0.094490
H59   H     H_    0.485219 0.908914 0.866765 0.210305
H60   H     H_    0.591592 0.917790 0.785510 0.191783
H61   H     H_    0.534180 0.053623 0.798335 0.278528
H62   H     H_    0.521200 0.069414 0.901335 0.271226
H63   H     H_    0.425630 0.043633 0.878452 0.273081
H64   H     H_    0.860787 0.336218 0.235054 0.095616
H65   H     H_    0.937063 0.286503 0.247514 0.104855
H66   H     H_    0.791471 0.435900 0.389638 0.196056
H67   H     H_    0.149389 0.229815 0.583503 0.119068
H68   H     H_    0.856891 0.382894 0.409239 0.215326
H69   H     H_    0.996582 0.436259 0.322415 0.274076
H70   H     H_    0.918318 0.530702 0.403631 0.274765
H71   H     H_    0.936140 0.482531 0.292823 0.269028
H72   H     H_    0.951017 0.070019 0.222793 0.307077
H73   H     H_    0.216912 0.158796 0.428029 0.130688
H74   H     H_    0.696890 0.452286 0.149862 0.096087
N1    N     N_R   0.036080 0.671900 0.995420 -0.098944
N2    N     N_R   0.867430 0.509300 0.948100 -0.030760
N3    N     N_R   0.003360 0.617250 0.167070 -0.043786
N4    N     N_R   0.825450 0.461270 0.995400 -0.038348
N5    N     N_R   0.045340 0.665280 0.119770 -0.043613
N6    N     N_R   0.883740 0.497640 0.167070 -0.044122
N7    N     N_R   0.987050 0.628910 0.948110 -0.063129
N8    N     N_R   0.174550 0.538730 0.004600 -0.041197
N9    N     N_R   0.954660 0.334720 0.880230 -0.092607
N10   N     N_R   0.116260 0.502360 0.832930 -0.058315
N11   N     N_R   0.012950 0.371090 0.051890 -0.041819
N12   N     N_R   0.963920 0.328100 0.004580 -0.051049
N13   N     N_R   0.165290 0.545350 0.880240 -0.090224
N14   N     N_R   0.132570 0.490700 0.051900 -0.039779
N15   N     N_R   0.996640 0.382750 0.832930 -0.062187
N16   N     N_R   0.834710 0.454650 0.119760 -0.044344
Ni1   Ni    Ni4+2 0.104370 0.604370 0.000010 0.230084
Ni2   Ni    Ni4+2 0.895630 0.395630 0.999990 0.212041
Ni3   Ni    Ni4+2 0.991920 0.505780 0.891500 0.191317
Ni4   Ni    Ni4+2 0.008080 0.494220 0.108500 0.199902
O1    O     O_3   0.060756 0.827159 0.077774 -0.692504
O2    O     O_3   0.932454 0.176439 0.845320 -0.708948
O3    O     O_3   0.312729 0.605188 0.845191 -0.703874
O4    O     O_3   0.493432 0.779902 0.721138 -0.670212
O5    O     O_3   0.803714 0.253739 0.298949 -0.621260
O6    O     O_3   0.894953 0.107021 0.256855 -0.719373

loop_
_geom_bond_atom_site_label_1
_geom_bond_atom_site_label_2
_ccdc_geom_bond_type
C61   C70   A    
C26   H3    S    
C5    H45   S    
C37   O4    S    
C63   C65   A    
N1    N7    A    
C6    C45   A    
C27   C29   A    
C41   C42   A    
C14   C18   A    
C66   C68   A    
C35   C36   A    
N1    Ni1   S    
C85   H57   S    
C75   C76   S    
C3    C6    A    
C57   C58   A    
N11   Ni4   S    
C39   C41   A    
C1    O1    S    
C45   H32   S    
C81   H46   S    
C26   C27   A    
C50   C54   A    
C80   H44   S    
C79   O2    S    
C1    C74   A    
C88   H65   S    
C21   C22   A    
C22   C29   A    
C18   C19   A    
C86   H59   S    
C77   H40   S    
C38   C39   A    
C12   C64   A    
C23   C49   S    
C84   H53   S    
C16   N2    A    
C85   O4    S    
C23   C40   A    
C48   H13   S    
C80   H43   S    
C4    H74   S    
C82   H50   S    
C58   H16   S    
C43   H14   S    
C90   H68   S    
C90   H66   S    
C3    N14   A    
N4    Ni2   S    
C82   H49   S    
C54   C55   A    
C18   H73   S    
C63   C69   A    
C67   N10   A    
C68   C69   A    
C62   C74   S    
C87   H62   S    
C91   H71   S    
C51   C57   A    
C89   N12   A    
C4    N16   A    
C4    C12   A    
C72   O6    S    
C19   H2    S    
C10   H56   S    
C77   H39   S    
C53   H20   S    
N3    N5    A    
C28   C34   A    
C59   C60   A    
C70   H22   S    
C55   C60   A    
N5    Ni1   S    
C78   N11   A    
C7    C56   A    
C12   C47   S    
N8    N14   A    
C40   N4    A    
C64   H30   S    
N10   N13   A    
C2    O3    S    
N16   Ni2   S    
C27   C34   S    
C81   H47   S    
C79   H42   S    
C46   H10   S    
C50   C53   A    
C62   C66   A    
C75   H33   S    
C47   C48   A    
C24   C25   A    
N2    N4    A    
C9    C89   A    
C5    C7    A    
N6    Ni4   S    
C86   C87   S    
C42   C48   A    
C84   H54   S    
C33   C37   A    
C49   C58   A    
C56   N9    A    
C51   C53   A    
C7    C11   S    
C43   C44   A    
C88   H64   S    
C5    N15   A    
C37   C38   A    
C28   H24   S    
C45   N8    A    
N7    Ni3   S    
C83   C84   S    
C56   O2    S    
C68   C72   A    
C87   H63   S    
C54   H21   S    
C77   H38   S    
C76   C77   S    
C73   N7    A    
C91   H69   S    
N13   Ni1   S    
C39   C46   A    
C63   H25   S    
C52   H29   S    
C38   H9    S    
N11   N12   A    
C88   C90   S    
N8    Ni1   S    
C82   C83   S    
C16   C23   A    
C44   H15   S    
C87   H61   S    
C55   C57   A    
C76   H37   S    
C22   C24   A    
C36   C44   A    
C75   O1    S    
C42   C43   A    
C52   N5    A    
C10   C17   A    
C73   C74   A    
N9    N15   A    
C13   H67   S    
C29   H4    S    
C49   C59   A    
C25   H6    S    
C15   C17   A    
C89   H23   S    
N3    Ni4   S    
C6    C50   S    
C62   C65   A    
C78   H12   S    
C88   O5    S    
C8    C31   S    
N6    N16   A    
C31   C32   A    
C2    C8    A    
C80   C81   S    
C85   C86   S    
N9    Ni2   S    
C83   H51   S    
C3    H34   S    
N14   Ni4   S    
C84   H55   S    
C30   H7    S    
C34   C52   A    
C59   H17   S    
C81   H48   S    
C32   H8    S    
C30   C36   A    
C75   H35   S    
C17   C25   A    
C32   C33   A    
C19   C20   A    
C24   H5    S    
C71   C72   A    
N12   Ni2   S    
C86   H60   S    
C16   H11   S    
C83   H52   S    
C11   C13   A    
C61   C71   A    
C90   C91   S    
C30   C31   A    
C20   C26   A    
C1    N1    A    
C64   N6    A    
C79   H41   S    
C67   H1    S    
C33   C35   A    
C9    C78   A    
C71   O5    S    
C69   C70   A    
C35   C41   A    
C85   H58   S    
C46   C47   A    
C60   H19   S    
C10   C11   A    
C28   N3    A    
C79   C80   S    
C15   C21   A    
C40   H28   S    
C20   C21   A    
C8    C67   A    
C51   H18   S    
C73   H31   S    
C66   H27   S    
C82   O3    S    
C76   H36   S    
C65   H26   S    
C14   C15   A    
C91   H70   S    
H72   O6    S    
C2    N13   A    
C13   C14   A    
N2    Ni3   S    
N15   Ni3   S    
N10   Ni3   S    
