data_mof_unit_45710.cif
_audit_creation_date              2012-12-10T18:57:11-0500
_audit_creation_method            fapswitch 2.2
_symmetry_space_group_name_H-M    P1
_symmetry_Int_Tables_number       1
_space_group_crystal_system       triclinic
_cell_length_a                    10.725872
_cell_length_b                    9.896186
_cell_length_c                    10.699683
_cell_angle_alpha                 89.566098
_cell_angle_beta                  91.628996
_cell_angle_gamma                 89.904269
_cell_volume                      1135.22668358

loop_
_atom_site_label
_atom_site_type_symbol
_atom_type_description
_atom_site_fract_x
_atom_site_fract_y
_atom_site_fract_z
_atom_type_partial_charge
C1    C     C_R   0.260077 0.499886 0.500479 0.884543
C2    C     C_R   0.739955 0.499824 0.499357 0.877998
C3    C     C_R   0.582543 0.072082 0.573858 -0.112368
C4    C     C_R   0.416415 0.073932 0.427644 -0.106283
C5    C     C_R   0.582628 0.929110 0.574921 0.184209
C6    C     C_R   0.415021 0.931249 0.428054 0.184238
C7    C     C_R   0.503677 0.500297 0.259935 0.891596
C8    C     C_R   0.505307 0.499567 0.739924 0.890578
C9    C     C_R   0.523107 0.622286 0.062627 0.128823
C10   C     C_R   0.525419 0.621883 0.935007 0.174866
C11   C     C_R   0.523802 0.500631 0.128758 -0.113427
C12   C     C_R   0.526820 0.499731 0.871639 -0.106116
C13   C     C_R   0.549349 0.379441 0.066839 -0.207985
C14   C     C_R   0.550674 0.378940 0.937403 -0.212994
C15   C     C_3   0.434961 0.736290 0.921694 -0.464703
C16   C     C_3   0.430419 0.735025 0.062562 -0.452604
C17   C     C_R   0.063761 0.377195 0.486310 -0.179253
C18   C     C_R   0.935940 0.377173 0.485816 -0.182944
C19   C     C_R   0.872528 0.499546 0.498589 -0.026036
C20   C     C_R   0.127549 0.499435 0.500847 -0.026437
C21   C     C_R   0.936479 0.621687 0.511584 -0.154122
C22   C     C_R   0.064057 0.621355 0.514825 -0.160132
H1    H     H_    0.345249 0.706638 0.874971 0.207129
H2    H     H_    0.469265 0.828172 0.105978 0.228724
H3    H     H_    0.112102 0.282003 0.475118 0.167786
H4    H     H_    0.887285 0.281940 0.474850 0.168046
H5    H     H_    0.888650 0.717307 0.519863 0.189022
H6    H     H_    0.112379 0.716304 0.528256 0.185726
H7    H     H_    0.647909 0.126733 0.633383 0.157750
H8    H     H_    0.349115 0.130031 0.370547 0.160381
N1    N     N_R   0.500000 0.857200 0.500000 -0.109215
N2    N     N_R   0.500000 0.142810 0.500000 -0.106813
O1    O     O_R   0.316770 0.614620 0.499990 -0.598801
O2    O     O_R   0.683230 0.614620 0.500010 -0.601832
O3    O     O_R   0.316800 0.385290 0.500000 -0.628543
O4    O     O_R   0.683200 0.385290 0.500000 -0.632500
O5    O     O_R   0.500000 0.614690 0.316780 -0.593017
O6    O     O_R   0.500000 0.614690 0.683220 -0.594471
O7    O     O_R   0.500020 0.385360 0.316780 -0.625915
O8    O     O_R   0.499980 0.385360 0.683220 -0.624211
Zn1   Zn    Zn3+2 0.500000 0.653120 0.500000 0.999497
Zn2   Zn    Zn3+2 0.500000 0.346880 0.500000 0.955520
H9    H     H_    0.559654 0.284383 0.116972 0.179738
H10   H     H_    0.561307 0.283641 0.889649 0.177680
H11   H     H_    0.478339 0.829244 0.883720 0.230464
H12   H     H_    0.338346 0.701261 0.095825 0.231775
I1    I     I_    0.710666 0.837550 0.703484 -0.409361
I2    I     I_    0.268662 0.846162 0.319488 -0.426009

loop_
_geom_bond_atom_site_label_1
_geom_bond_atom_site_label_2
_ccdc_geom_bond_type
C5    I1    S    
C9    C10   A    
O4    Zn2   S    
C18   H4    S    
C8    C12   S    
C17   H3    S    
C2    O2    A    
O8    Zn2   S    
C17   C18   A    
C21   H5    S    
O1    Zn1   S    
C16   H2    S    
C22   H6    S    
C21   C22   A    
C7    C11   S    
C11   C13   A    
C9    C11   A    
C4    N2    A    
O2    Zn1   S    
C6    I2    S    
C10   C12   A    
C15   H1    S    
C19   C21   A    
C9    C16   S    
C12   C14   A    
C6    N1    A    
O7    Zn2   S    
C10   C15   S    
C8    O6    A    
O5    Zn1   S    
C3    N2    A    
C5    N1    A    
C4    C6    A    
C15   H11   S    
C1    O1    A    
C15   C16   S    
C13   H9    S    
C17   C20   A    
C8    O8    A    
C1    O3    A    
O6    Zn1   S    
C14   H10   S    
C18   C19   A    
C2    O4    A    
C3    H7    S    
O3    Zn2   S    
N2    Zn2   S    
C16   H12   S    
C1    C20   S    
C7    O7    A    
N1    Zn1   S    
C3    C5    A    
C2    C19   S    
C13   C14   A    
C4    H8    S    
C20   C22   A    
C7    O5    A    
