data_mof_unit_45929.cif
_audit_creation_date              2012-12-11T14:11:02-0500
_audit_creation_method            fapswitch 2.2
_symmetry_space_group_name_H-M    P1
_symmetry_Int_Tables_number       1
_space_group_crystal_system       triclinic
_cell_length_a                    19.86732
_cell_length_b                    17.196309
_cell_length_c                    15.601001
_cell_angle_alpha                 90.29149
_cell_angle_beta                  52.895202
_cell_angle_gamma                 89.806961
_cell_volume                      4250.65743909

loop_
_atom_site_label
_atom_site_type_symbol
_atom_type_description
_atom_site_fract_x
_atom_site_fract_y
_atom_site_fract_z
_atom_type_partial_charge
C1    C     C_R   0.336931 0.171636 0.049949 0.566226
C2    C     C_3   0.722735 0.700989 0.461961 0.207383
C3    C     C_3   0.325291 0.367407 0.211488 -0.674626
C4    C     C_3   0.922171 0.220477 0.169460 -0.357212
C5    C     C_3   0.998178 0.192285 0.163571 -0.343940
C6    C     C_3   0.012696 0.105011 0.141649 -0.877686
C7    C     C_3   0.078119 0.779042 0.828931 -0.357322
C8    C     C_3   0.002053 0.805044 0.833536 -0.340346
C9    C     C_3   0.982168 0.891128 0.862538 -0.877432
C10   C     C_3   0.075654 0.221049 0.836699 -0.318595
C11   C     C_3   0.004544 0.187735 0.835467 -0.372700
C12   C     C_3   0.978617 0.107234 0.885786 -0.859299
C13   C     C_3   0.728216 0.257224 0.440520 0.176409
C14   C     C_3   0.924083 0.778836 0.162930 -0.318672
C15   C     C_3   0.993064 0.813860 0.167233 -0.374549
C16   C     C_3   0.020680 0.893093 0.113257 -0.859843
C17   C     C_3   0.306097 0.339311 0.599656 -0.435057
C18   C     C_3   0.401916 0.338206 0.536495 -0.255846
C19   C     C_3   0.429458 0.391579 0.588496 -0.908543
C20   C     C_3   0.694083 0.642842 0.415342 -0.428097
C21   C     C_3   0.597910 0.640748 0.482065 -0.261860
C22   C     C_3   0.569525 0.579695 0.438928 -0.910856
C23   C     C_3   0.695868 0.267476 0.373713 -0.426960
C24   C     C_3   0.276356 0.741626 0.559951 0.170048
C25   C     C_3   0.610583 0.228293 0.424808 -0.278434
C26   C     C_3   0.586097 0.230933 0.348877 -0.804559
C27   C     C_3   0.305538 0.733353 0.630565 -0.413488
C28   C     C_3   0.394429 0.765223 0.576378 -0.275802
C29   C     C_3   0.417287 0.764425 0.654048 -0.821150
C30   C     C_3   0.805968 0.857298 0.584684 -0.427833
C31   C     C_3   0.902071 0.858565 0.519226 -0.260498
C32   C     C_3   0.930270 0.919769 0.562432 -0.912946
C33   C     C_3   0.183764 0.162342 0.409772 -0.432035
C34   C     C_3   0.180766 0.074373 0.427444 -0.258678
C35   C     C_3   0.777456 0.799113 0.537923 0.207225
C36   C     C_3   0.156002 0.030841 0.364919 -0.895404
C37   C     C_3   0.195786 0.765797 0.368285 -0.410503
C38   C     C_3   0.106212 0.735555 0.423154 -0.278431
C39   C     C_3   0.083405 0.736387 0.345429 -0.823049
C40   C     C_3   0.813772 0.225824 0.625750 -0.420246
C41   C     C_3   0.905059 0.252534 0.567908 -0.252276
C42   C     C_3   0.932727 0.243954 0.639993 -0.849858
C43   C     C_3   0.220049 0.207087 0.458581 0.202895
C44   C     C_3   0.224636 0.757788 0.439285 0.169234
C45   C     C_3   0.783536 0.237371 0.556679 0.173437
C46   C     C_2   0.256735 0.711046 0.998101 -0.042705
C47   C     C_2   0.740088 0.290816 0.007298 -0.016594
C48   C     C_2   0.744474 0.712455 0.999455 -0.019651
C49   C     C_R   0.660468 0.824764 0.954127 0.574944
C50   C     C_2   0.249847 0.283776 0.010971 -0.042119
C51   C     C_2   0.753124 0.213963 0.003685 -0.046098
C52   C     C_2   0.244532 0.787929 0.999981 -0.039582
C53   C     C_2   0.238380 0.207136 0.009542 -0.022187
C54   C     C_2   0.757434 0.789065 0.997407 -0.019816
C55   C     C_R   0.395120 0.802779 0.213506 0.227013
C56   C     C_R   0.608742 0.196065 0.784764 0.230690
C57   C     C_R   0.600908 0.801069 0.788428 0.238905
C58   C     C_R   0.399570 0.200012 0.211031 0.373508
C59   C     C_R   0.896335 0.302596 0.213147 0.222678
C60   C     C_R   0.655921 0.178955 0.961408 0.582069
C61   C     C_R   0.105605 0.696977 0.785940 0.226683
C62   C     C_R   0.100756 0.301114 0.788697 0.217097
C63   C     C_R   0.899155 0.698925 0.211481 0.236573
C64   C     C_R   0.339609 0.902983 0.933627 0.686745
C65   C     C_R   0.659583 0.097813 0.067654 0.691110
C66   C     C_R   0.661989 0.904509 0.063757 0.703227
C67   C     C_R   0.336920 0.093976 0.938022 0.699021
C68   C     C_R   0.837798 0.404488 0.936623 0.689892
C69   C     C_R   0.161321 0.596139 0.064835 0.682668
C70   C     C_R   0.158648 0.401925 0.069438 0.702622
C71   C     C_R   0.342682 0.822564 0.040767 0.593073
C72   C     C_R   0.839022 0.596430 0.934533 0.706262
C73   C     C_R   0.398654 0.104223 0.308626 -0.177579
C74   C     C_R   0.600820 0.895104 0.691417 -0.165905
C75   C     C_R   0.612039 0.098491 0.686510 -0.152550
C76   C     C_R   0.392568 0.899414 0.311654 -0.149072
C77   C     C_R   0.899159 0.604864 0.308587 -0.166305
C78   C     C_R   0.101535 0.395396 0.691134 -0.157338
C79   C     C_R   0.108083 0.600186 0.688009 -0.149053
C80   C     C_R   0.893900 0.399148 0.311131 -0.148070
C81   C     C_R   0.293392 0.153620 0.010386 -0.300908
C82   C     C_R   0.840265 0.676122 0.044474 0.574244
C83   C     C_R   0.703461 0.842578 0.994623 -0.317753
C84   C     C_R   0.698106 0.161529 0.002775 -0.306098
C85   C     C_R   0.300057 0.840253 0.000100 -0.313392
C86   C     C_R   0.797939 0.658781 0.002948 -0.318566
C87   C     C_R   0.198577 0.338142 0.003738 -0.303792
C88   C     C_R   0.200915 0.658856 0.998287 -0.311279
C89   C     C_R   0.797158 0.342809 0.005041 -0.317001
C90   C     C_R   0.370382 0.824306 0.313820 -0.044568
C91   C     C_R   0.637029 0.172550 0.683545 -0.050310
C92   C     C_R   0.619405 0.818311 0.689976 -0.053126
C93   C     C_R   0.158092 0.321915 0.959217 0.568801
C94   C     C_R   0.379128 0.180506 0.310496 -0.094452
C95   C     C_R   0.872687 0.323833 0.313023 -0.045545
C96   C     C_R   0.130788 0.675107 0.685515 -0.046788
C97   C     C_R   0.119807 0.318603 0.690183 -0.047173
C98   C     C_R   0.880692 0.681700 0.309938 -0.051999
C99   C     C_3   0.293400 0.201840 0.520806 -0.207353
C100  C     C_3   0.699445 0.788101 0.482977 -0.191365
C101  C     C_3   0.740147 0.177759 0.474399 -0.208729
C102  C     C_3   0.265198 0.820121 0.523094 -0.211958
C103  C     C_3   0.800749 0.711995 0.516897 -0.190757
C104  C     C_R   0.157681 0.677010 0.958531 0.592037
C105  C     C_3   0.204901 0.295084 0.482395 -0.248780
C106  C     C_3   0.235762 0.679291 0.476189 -0.212352
C107  C     C_3   0.771949 0.316976 0.522518 -0.212226
C108  C     C_3   0.707278 0.691678 0.570591 -0.231964
C109  C     C_3   0.298915 0.306220 0.434539 -0.217388
C110  C     C_3   0.321651 0.705529 0.447299 -0.209613
C111  C     C_3   0.685151 0.291930 0.553327 -0.217489
C112  C     C_3   0.199154 0.190798 0.569176 -0.225325
C113  C     C_3   0.792927 0.808418 0.429271 -0.232441
C114  C     C_3   0.826953 0.202883 0.443375 -0.213283
C115  C     C_R   0.841136 0.324306 0.043654 0.586669
C116  C     C_3   0.179304 0.793879 0.551984 -0.210084
C117  C     C_3   0.684977 0.778788 0.590736 0.106069
C118  C     C_3   0.313227 0.218594 0.410835 0.139578
C119  C     C_3   0.309716 0.783408 0.410939 0.126144
C120  C     C_3   0.697712 0.213051 0.586726 0.128426
C121  C     C_3   0.184858 0.278425 0.591874 0.128632
C122  C     C_3   0.815210 0.721302 0.409136 0.105695
C123  C     C_3   0.814268 0.281870 0.409921 0.125704
C124  C     C_3   0.191292 0.715987 0.588319 0.126887
C125  C     C_3   0.422855 0.720928 0.169497 -0.359311
C126  C     C_3   0.277713 0.289607 0.545068 0.201769
C127  C     C_3   0.499204 0.694593 0.164054 -0.344302
C128  C     C_3   0.523083 0.610193 0.126207 -0.867290
C129  C     C_3   0.577890 0.277920 0.826043 -0.344967
C130  C     C_3   0.503436 0.299928 0.824433 -0.339926
C131  C     C_3   0.486804 0.387485 0.837558 -0.917410
C132  C     C_3   0.576645 0.720964 0.836552 -0.321917
C133  C     C_3   0.507757 0.685503 0.832361 -0.369576
C134  C     C_3   0.481443 0.605603 0.884616 -0.868999
C135  C     C_3   0.447639 0.275521 0.159866 -0.459858
C136  C     C_3   0.412218 0.334276 0.122263 -0.231880
F1    F     F_    0.307714 0.218671 0.134772 -0.745701
F2    F     F_    0.668702 0.073279 0.142417 -0.635374
F3    F     F_    0.670767 0.928324 0.139316 -0.621170
F4    F     F_    0.328465 0.071344 0.861777 -0.621239
F5    F     F_    0.827483 0.428579 0.862765 -0.627722
F6    F     F_    0.172025 0.570752 0.137858 -0.640328
F7    F     F_    0.164601 0.425563 0.147521 -0.640644
F8    F     F_    0.831393 0.573247 0.857743 -0.620948
F9    F     F_    0.681437 0.767234 0.882814 -0.736238
F10   F     F_    0.671362 0.240051 0.898376 -0.755786
F11   F     F_    0.325088 0.763079 0.106691 -0.759275
F12   F     F_    0.819689 0.734080 0.115104 -0.735947
F13   F     F_    0.178565 0.263528 0.889153 -0.740676
F14   F     F_    0.174995 0.736648 0.892959 -0.759752
F15   F     F_    0.823746 0.264719 0.109220 -0.761140
F16   F     F_    0.330602 0.926877 0.858536 -0.635093
H1    H     H_    0.394890 0.072113 0.370766 0.127896
H2    H     H_    0.341463 0.353881 0.383067 0.127205
H3    H     H_    0.574809 0.698541 0.478577 0.212405
H4    H     H_    0.721237 0.659853 0.331709 0.228495
H5    H     H_    0.718599 0.584165 0.413417 0.191270
H6    H     H_    0.578230 0.292120 0.333740 0.238621
H7    H     H_    0.635501 0.202311 0.270989 0.313606
H8    H     H_    0.525951 0.199554 0.384838 0.233289
H9    H     H_    0.614166 0.166399 0.441931 0.216286
H10   H     H_    0.561353 0.257858 0.501878 0.200578
H11   H     H_    0.691237 0.330491 0.362368 0.193667
H12   H     H_    0.741740 0.239819 0.294761 0.263731
H13   H     H_    0.378714 0.668227 0.408158 0.125332
H14   H     H_    0.370178 0.798305 0.728024 0.314492
H15   H     H_    0.419317 0.703768 0.676609 0.242415
H16   H     H_    0.480063 0.791280 0.615580 0.230703
H17   H     H_    0.440926 0.729469 0.504154 0.197731
H18   H     H_    0.397657 0.826086 0.550542 0.216282
H19   H     H_    0.261580 0.767016 0.705268 0.259754
H20   H     H_    0.303400 0.671101 0.650803 0.195840
H21   H     H_    0.910626 0.978750 0.556224 0.260213
H22   H     H_    0.902450 0.907942 0.647752 0.267596
H23   H     H_    0.000085 0.918098 0.514626 0.250821
H24   H     H_    0.628115 0.329484 0.594990 0.135068
H25   H     H_    0.924290 0.800713 0.524166 0.212531
H26   H     H_    0.931232 0.871224 0.433673 0.196908
H27   H     H_    0.782231 0.916106 0.585446 0.190962
H28   H     H_    0.777939 0.840801 0.668757 0.229605
H29   H     H_    0.203330 0.040782 0.277282 0.266178
H30   H     H_    0.153468 0.967550 0.380090 0.238893
H31   H     H_    0.092871 0.050603 0.390975 0.263205
H32   H     H_    0.243079 0.052329 0.401175 0.210730
H33   H     H_    0.133727 0.061665 0.514353 0.193274
H34   H     H_    0.118643 0.183875 0.447412 0.191411
H35   H     H_    0.159636 0.142308 0.622434 0.127577
H36   H     H_    0.222344 0.174937 0.322813 0.255761
H37   H     H_    0.082565 0.796982 0.321713 0.244304
H38   H     H_    0.129842 0.701575 0.272114 0.312496
H39   H     H_    0.020113 0.710556 0.384379 0.230098
H40   H     H_    0.101659 0.674888 0.450368 0.215915
H41   H     H_    0.060500 0.772342 0.494550 0.197968
H42   H     H_    0.199417 0.827761 0.346224 0.195448
H43   H     H_    0.239064 0.730959 0.294506 0.258462
H44   H     H_    0.890601 0.278419 0.715289 0.299452
H45   H     H_    0.931161 0.181886 0.660504 0.246945
H46   H     H_    0.827408 0.857980 0.374721 0.134104
H47   H     H_    0.998158 0.265548 0.597455 0.235503
H48   H     H_    0.947955 0.217247 0.493607 0.191341
H49   H     H_    0.910633 0.314576 0.544919 0.215394
H50   H     H_    0.772128 0.260284 0.700792 0.257982
H51   H     H_    0.808518 0.163297 0.646484 0.192618
H52   H     H_    0.883974 0.165284 0.401438 0.129104
H53   H     H_    0.122059 0.831029 0.591677 0.127478
H54   H     H_    0.331457 0.164500 0.534954 0.138516
H55   H     H_    0.656264 0.818486 0.471139 0.137433
H56   H     H_    0.726735 0.120640 0.454439 0.125283
H57   H     H_    0.604021 0.926734 0.629362 0.128114
H58   H     H_    0.277885 0.877694 0.542903 0.126097
H59   H     H_    0.843922 0.681578 0.528722 0.137628
H60   H     H_    0.166695 0.332521 0.468573 0.139458
H61   H     H_    0.222986 0.621746 0.456423 0.125409
H62   H     H_    0.785866 0.373738 0.542673 0.130412
H63   H     H_    0.306075 0.685695 0.999403 0.203988
H64   H     H_    0.689141 0.315968 0.009031 0.193115
H65   H     H_    0.697273 0.688249 0.993313 0.199352
H66   H     H_    0.295104 0.307375 0.021384 0.180892
H67   H     H_    0.803654 0.188572 0.002444 0.202231
H68   H     H_    0.616932 0.065410 0.623882 0.117588
H69   H     H_    0.195073 0.813332 0.998983 0.205150
H70   H     H_    0.193637 0.183130 0.998793 0.202023
H71   H     H_    0.804508 0.813287 0.003777 0.198832
H72   H     H_    0.469318 0.571274 0.181816 0.254517
H73   H     H_    0.541151 0.603523 0.043881 0.274608
H74   H     H_    0.577617 0.592568 0.124692 0.253285
H75   H     H_    0.553496 0.731860 0.107784 0.209915
H76   H     H_    0.486649 0.700834 0.243153 0.206591
H77   H     H_    0.369901 0.680288 0.220874 0.203226
H78   H     H_    0.441042 0.717589 0.087519 0.234106
H79   H     H_    0.388950 0.932130 0.373649 0.116601
H80   H     H_    0.474735 0.408888 0.912934 0.266750
H81   H     H_    0.541908 0.418584 0.768369 0.262358
H82   H     H_    0.430629 0.400740 0.840630 0.259226
H83   H     H_    0.514656 0.280773 0.748796 0.213593
H84   H     H_    0.445963 0.269796 0.890196 0.192779
H85   H     H_    0.555890 0.283542 0.909905 0.221078
H86   H     H_    0.631039 0.318716 0.775640 0.212358
H87   H     H_    0.536836 0.565651 0.844023 0.261755
H88   H     H_    0.453399 0.610365 0.971191 0.275921
H89   H     H_    0.433537 0.580713 0.877398 0.256628
H90   H     H_    0.895693 0.573090 0.370750 0.128478
H91   H     H_    0.451867 0.724546 0.874300 0.214698
H92   H     H_    0.530376 0.679414 0.747966 0.201974
H93   H     H_    0.633378 0.682701 0.793432 0.227123
H94   H     H_    0.552489 0.724806 0.921337 0.217894
H95   H     H_    0.280774 0.320782 0.263131 0.284506
H96   H     H_    0.330371 0.409858 0.261012 0.199850
H97   H     H_    0.299393 0.398738 0.175022 0.273653
H98   H     H_    0.456699 0.383861 0.084926 0.170525
H99   H     H_    0.412045 0.308792 0.057463 0.233348
H100  H     H_    0.457124 0.306248 0.214637 0.165201
H101  H     H_    0.105049 0.427164 0.628950 0.126001
H102  H     H_    0.511980 0.260349 0.088798 0.166196
H103  H     H_    0.957175 0.072678 0.208321 0.254527
H104  H     H_    0.023531 0.090207 0.064797 0.276761
H105  H     H_    0.069055 0.086839 0.135769 0.256584
H106  H     H_    0.054727 0.222825 0.098122 0.215058
H107  H     H_    0.990672 0.206011 0.238358 0.207235
H108  H     H_    0.868205 0.180929 0.221430 0.209809
H109  H     H_    0.940026 0.217158 0.087600 0.231722
H110  H     H_    0.967840 0.902970 0.942105 0.277911
H111  H     H_    0.036672 0.926835 0.800431 0.254260
H112  H     H_    0.111734 0.567383 0.626046 0.118177
H113  H     H_    0.926426 0.907986 0.866302 0.254270
H114  H     H_    0.012938 0.794275 0.756005 0.207255
H115  H     H_    0.946568 0.770841 0.894557 0.210955
H116  H     H_    0.059673 0.783147 0.911003 0.232232
H117  H     H_    0.131385 0.819297 0.777080 0.205611
H118  H     H_    0.033957 0.067225 0.842831 0.257627
H119  H     H_    0.952207 0.110556 0.971893 0.276607
H120  H     H_    0.929593 0.083482 0.879940 0.255340
H121  H     H_    0.949068 0.227128 0.880386 0.215542
H122  H     H_    0.024430 0.183443 0.752156 0.209029
H123  H     H_    0.891026 0.431799 0.372646 0.119915
H124  H     H_    0.131721 0.181913 0.791635 0.223662
H125  H     H_    0.052893 0.224114 0.920966 0.222894
H126  H     H_    0.049813 0.887330 0.026427 0.277811
H127  H     H_    0.965574 0.933236 0.151878 0.260054
H128  H     H_    0.067971 0.918240 0.121464 0.255708
H129  H     H_    0.969959 0.820839 0.251738 0.202226
H130  H     H_    0.048433 0.774194 0.126579 0.215209
H131  H     H_    0.948524 0.774798 0.078018 0.218523
H132  H     H_    0.867633 0.817456 0.205644 0.226465
H133  H     H_    0.408389 0.452280 0.592439 0.260237
H134  H     H_    0.672854 0.642057 0.625041 0.134838
H135  H     H_    0.402402 0.371584 0.670995 0.271617
H136  H     H_    0.499339 0.390785 0.539991 0.245944
H137  H     H_    0.422731 0.277956 0.534936 0.214137
H138  H     H_    0.432455 0.357434 0.452698 0.196264
H139  H     H_    0.283717 0.400016 0.606878 0.191290
H140  H     H_    0.276602 0.316627 0.681615 0.241862
H141  H     H_    0.595770 0.592588 0.354397 0.267186
H142  H     H_    0.590802 0.520862 0.442758 0.261009
H143  H     H_    0.499562 0.580225 0.488400 0.247295
H144  H     H_    0.569696 0.627400 0.567153 0.197138
N1    N     N_R   0.408680 0.130810 0.995780 -0.154005
N2    N     N_R   0.578590 0.132790 0.846380 -0.067360
N3    N     N_R   0.578590 0.867210 0.846380 -0.068892
N4    N     N_R   0.421410 0.132790 0.153620 -0.067513
N5    N     N_R   0.921410 0.367210 0.153620 -0.065016
N6    N     N_R   0.078590 0.632790 0.846380 -0.066237
N7    N     N_R   0.078590 0.367210 0.846380 -0.067250
N8    N     N_R   0.921410 0.632790 0.153620 -0.068997
N9    N     N_R   0.403840 0.921910 0.935760 -0.152128
N10   N     N_R   0.596160 0.078090 0.064240 -0.152221
N11   N     N_R   0.596160 0.921910 0.064240 -0.152237
N12   N     N_R   0.591320 0.869190 0.004220 -0.157696
N13   N     N_R   0.403840 0.078090 0.935760 -0.151947
N14   N     N_R   0.903840 0.421910 0.935760 -0.152219
N15   N     N_R   0.096160 0.578090 0.064240 -0.149661
N16   N     N_R   0.096160 0.421910 0.064240 -0.150652
N17   N     N_R   0.903840 0.578090 0.935760 -0.153498
N18   N     N_R   0.426250 0.076100 0.213650 -0.056365
N19   N     N_R   0.573750 0.923900 0.786350 -0.054942
N20   N     N_R   0.573750 0.076100 0.786350 -0.052755
N21   N     N_R   0.426250 0.923900 0.213650 -0.052418
N22   N     N_R   0.926250 0.576100 0.213650 -0.055042
N23   N     N_R   0.591320 0.130810 0.004220 -0.159820
N24   N     N_R   0.073750 0.423900 0.786350 -0.055307
N25   N     N_R   0.073750 0.576100 0.786350 -0.054544
N26   N     N_R   0.926250 0.423900 0.213650 -0.054585
N27   N     N_R   0.408680 0.869190 0.995780 -0.154484
N28   N     N_R   0.908680 0.630810 0.995780 -0.157612
N29   N     N_R   0.091320 0.369190 0.004220 -0.155764
N30   N     N_R   0.091320 0.630810 0.004220 -0.153992
N31   N     N_R   0.908680 0.369190 0.995780 -0.153339
N32   N     N_R   0.421410 0.867210 0.153620 -0.065143
Ni1   Ni    Ni4+2 0.500000 0.131570 0.000000 0.184385
Ni2   Ni    Ni4+2 0.500000 0.868430 0.000000 0.187770
Ni3   Ni    Ni4+2 0.000000 0.631570 0.000000 0.187173
Ni4   Ni    Ni4+2 0.000000 0.368430 0.000000 0.187449
Ni5   Ni    Ni4+2 0.488900 1.000000 0.862310 0.243915
Ni6   Ni    Ni4+2 0.511100 1.000000 0.137690 0.243741
Ni7   Ni    Ni4+2 0.988900 0.500000 0.862310 0.243751
Ni8   Ni    Ni4+2 0.011100 0.500000 0.137690 0.243749

loop_
_geom_bond_atom_site_label_1
_geom_bond_atom_site_label_2
_ccdc_geom_bond_type
C131  H80   S    
N17   Ni7   S    
C82   N28   A    
C24   C27   S    
C135  H100  S    
C128  H72   S    
C64   F16   S    
N5    Ni4   S    
C62   N7    A    
C63   C98   A    
C5    C6    S    
C132  H93   S    
C19   H133  S    
C130  H83   S    
C134  H87   S    
C74   C92   A    
C11   H121  S    
C16   H126  S    
C113  C122  S    
N4    N18   A    
C26   H8    S    
C23   H11   S    
C56   C129  S    
C4    H108  S    
C21   C22   S    
C79   H112  S    
N8    Ni3   S    
C136  H98   S    
C21   H144  S    
C60   F10   S    
C41   H48   S    
C22   H143  S    
N10   Ni6   S    
C54   C83   S    
C109  C118  S    
C48   H65   S    
C50   C53   D    
C24   C110  S    
C96   C124  S    
C17   H139  S    
C44   C119  S    
C69   F6    S    
C9    H113  S    
C29   H14   S    
N13   Ni5   S    
C134  H89   S    
C37   C38   S    
C39   H39   S    
C47   H64   S    
C109  H2    S    
C69   C88   A    
C60   N23   A    
N21   N32   A    
C28   H18   S    
C40   H50   S    
C127  H76   S    
C3    H96   S    
C103  H59   S    
C64   C85   A    
N26   Ni8   S    
C1    N1    A    
C72   F8    S    
C28   C29   S    
N9    N27   A    
C129  H85   S    
C102  H58   S    
C4    C5    S    
C58   N4    A    
C14   H131  S    
C32   H21   S    
C71   N27   A    
C38   H41   S    
C37   C44   S    
C130  C131  S    
C79   C96   A    
C16   H128  S    
C49   C83   A    
C54   H71   S    
C77   N22   A    
C2    C108  S    
C6    H103  S    
C26   H6    S    
N4    Ni1   S    
C72   N17   A    
N15   N30   A    
C108  H134  S    
N18   Ni6   S    
C43   C118  S    
C20   C21   S    
C44   C116  S    
C128  H74   S    
C46   H63   S    
C115  F15   S    
C125  C127  S    
C30   H28   S    
C36   H29   S    
C22   H141  S    
C102  C119  S    
C71   F11   S    
C89   C115  A    
C57   C92   A    
C79   N25   A    
C12   H119  S    
C49   N12   A    
N19   Ni5   S    
C61   C96   A    
C7    C8    S    
C131  H81   S    
C18   H138  S    
C70   F7    S    
C105  H60   S    
C6    H105  S    
C37   H43   S    
C29   H16   S    
N7    Ni4   S    
C55   C90   A    
C125  H77   S    
C38   C39   S    
C39   H37   S    
C104  F14   S    
C13   C23   S    
C3    C136  S    
C97   C121  S    
C45   C114  S    
C25   H9    S    
C35   C113  S    
C33   H34   S    
C75   C91   A    
N3    Ni2   S    
C63   N8    A    
C8    H115  S    
C70   C87   A    
C88   C104  A    
C99   C126  S    
C32   H23   S    
N20   Ni5   S    
C31   H26   S    
C111  H24   S    
C68   F5    S    
N6    N25   A    
N2    N20   A    
N7    N24   A    
C65   C84   A    
C76   N21   A    
C51   H67   S    
C25   C26   S    
C62   C97   A    
C31   C32   S    
N21   Ni6   S    
C9    H110  S    
C78   C97   A    
C17   C18   S    
C21   H3    S    
C36   H31   S    
C80   C95   A    
C50   C87   S    
C114  C123  S    
C67   C81   A    
C10   C11   S    
N24   Ni7   S    
C48   C86   S    
C106  C124  S    
C1    F1    S    
C129  C130  S    
C95   C123  S    
C98   C122  S    
C105  C109  S    
C78   H101  S    
C107  C111  S    
C108  C117  S    
C3    H97   S    
C10   H124  S    
C57   N3    A    
C110  C119  S    
C82   F12   S    
C100  C117  S    
C58   C135  S    
C55   N32   A    
C73   N18   A    
C112  C121  S    
C13   C111  S    
N15   Ni8   S    
C94   C118  S    
C132  H94   S    
C19   H136  S    
C87   C93   A    
C130  H84   S    
C33   H36   S    
C34   C36   S    
C10   H125  S    
C35   C117  S    
C65   N10   A    
C109  C126  S    
N5    N26   A    
C14   C15   S    
C15   H130  S    
C27   H20   S    
C45   C107  S    
C59   N5    A    
N25   Ni7   S    
C41   C42   S    
C57   C132  S    
C93   F13   S    
C107  C123  S    
C112  H35   S    
C135  C136  S    
N28   Ni3   S    
N22   Ni8   S    
C42   H47   S    
C12   H118  S    
N14   Ni7   S    
C35   C103  S    
C133  H92   S    
C30   C31   S    
C13   C123  S    
C110  H13   S    
C17   C126  S    
C1    C81   A    
C5    H107  S    
C53   C81   S    
C18   C19   S    
C7    C61   S    
C66   C83   A    
C56   C91   A    
C55   C125  S    
C113  H46   S    
C52   H69   S    
C127  H75   S    
C101  C114  S    
C101  C120  S    
C68   N14   A    
C10   C62   S    
C3    H95   S    
C73   C94   A    
C69   N15   A    
C70   N16   A    
N6    Ni3   S    
C100  H55   S    
C2    C122  S    
C40   C45   S    
C2    C20   S    
N11   N12   A    
C8    H114  S    
C74   N19   A    
C47   C51   D    
C14   H132  S    
C53   H70   S    
C82   C86   A    
C32   H22   S    
C80   H123  S    
C61   N6    A    
C34   H33   S    
C11   H122  S    
C101  H56   S    
C66   N11   A    
N8    N22   A    
C68   C89   A    
C6    H104  S    
C26   H7    S    
N27   Ni2   S    
C42   H44   S    
C64   N9    A    
N1    N13   A    
C65   F2    S    
C20   H5    S    
C133  C134  S    
C36   H30   S    
N17   N28   A    
C41   H49   S    
C127  C128  S    
C22   H142  S    
N2    Ni1   S    
C116  C124  S    
C42   H45   S    
C12   H120  S    
C72   C86   A    
C17   H140  S    
C44   C106  S    
C67   N13   A    
N16   Ni8   S    
C37   H42   S    
C29   H15   S    
N11   Ni6   S    
C75   H68   S    
C14   C63   S    
N9    Ni5   S    
C24   C102  S    
N1    Ni1   S    
C28   H17   S    
N16   N29   A    
C103  C122  S    
C51   C84   S    
C76   C90   A    
C129  H86   S    
C80   N26   A    
C48   C54   D    
C30   C35   S    
C31   H25   S    
C52   C85   S    
C16   H127  S    
N12   Ni2   S    
N31   Ni4   S    
C15   C16   S    
C46   C52   D    
C24   C124  S    
C78   N24   A    
N29   Ni4   S    
C43   C105  S    
C71   C85   A    
C115  N31   A    
N14   N31   A    
C8    C9    S    
C30   H27   S    
C136  H99   S    
C34   H32   S    
C103  C108  S    
C75   N20   A    
N3    N19   A    
C2    C100  S    
C135  H102  S    
N10   N23   A    
C47   C89   S    
C59   C95   A    
C4    H109  S    
C46   C88   S    
C131  H82   S    
C18   H137  S    
C66   F3    S    
C99   H54   S    
C49   F9    S    
C77   H90   S    
C33   C43   S    
C7    H117  S    
N32   Ni2   S    
C125  H78   S    
C23   H12   S    
C39   H38   S    
C132  C133  S    
N23   Ni1   S    
C56   N2    A    
C50   H66   S    
C74   H57   S    
C111  C120  S    
C92   C117  S    
C40   H51   S    
C25   H10   S    
C19   H135  S    
C76   H79   S    
C33   C34   S    
C105  C121  S    
C77   C98   A    
C67   F4    S    
C40   C41   S    
C38   H40   S    
C15   H129  S    
C43   C112  S    
C13   C101  S    
C27   H19   S    
C27   C28   S    
C45   C120  S    
C106  C110  S    
C106  H61   S    
C20   H4    S    
C134  H88   S    
C100  C113  S    
C116  H53   S    
C128  H73   S    
C93   N29   A    
C11   C12   S    
C90   C119  S    
C58   C94   A    
C121  C126  S    
C114  H52   S    
C133  H91   S    
C99   C118  S    
C60   C84   A    
C107  H62   S    
C99   C112  S    
C9    H111  S    
C4    C59   S    
C5    H106  S    
C23   C25   S    
C7    H116  S    
C102  C116  S    
C73   H1    S    
N30   Ni3   S    
C91   C120  S    
C104  N30   A    
