data_mof_unit_34899.cif
_audit_creation_date              2013-03-05T16:06:47-0500
_audit_creation_method            fapswitch 2.2
_symmetry_space_group_name_H-M    P1
_symmetry_Int_Tables_number       1
_space_group_crystal_system       triclinic
_cell_length_a                    10.791047
_cell_length_b                    9.501039
_cell_length_c                    19.519329
_cell_angle_alpha                 90.403724
_cell_angle_beta                  90.413139
_cell_angle_gamma                 90.010703
_cell_volume                      2001.14005519

loop_
_atom_site_label
_atom_site_type_symbol
_atom_site_description
_atom_site_fract_x
_atom_site_fract_y
_atom_site_fract_z
_atom_type_partial_charge
O1    O     O_R   0.319640 0.618740 0.500000 -0.590237
O2    O     O_R   0.680360 0.381260 0.500000 -0.590399
O3    O     O_R   0.680360 0.618740 0.500000 -0.569148
O4    O     O_R   0.319640 0.381260 0.500000 -0.569392
C1    C     C_R   0.871353 0.500041 0.499984 -0.107498
C2    C     C_R   0.128644 0.499960 0.500018 -0.107578
C3    C     C_R   0.262578 0.499987 0.499991 0.799564
C4    C     C_R   0.737421 0.500013 0.500010 0.799782
O5    O     O_R   0.500020 0.618830 0.400190 -0.548329
O6    O     O_R   0.499980 0.381170 0.599810 -0.548217
O7    O     O_R   0.499980 0.618830 0.599810 -0.544761
O8    O     O_R   0.500020 0.381170 0.400190 -0.544757
C5    C     C_R   0.505317 0.499203 0.367503 0.846163
C6    C     C_R   0.494765 0.500794 0.632504 0.845783
Cu1   Cu    Cu3+1 0.500000 0.640660 0.500000 1.043750
Cu2   Cu    Cu3+1 0.500000 0.359340 0.500000 1.043685
H1    H     H_    0.359639 0.129655 0.423805 0.158736
H2    H     H_    0.640359 0.870345 0.576197 0.158731
H3    H     H_    0.640054 0.131840 0.576392 0.140346
H4    H     H_    0.359943 0.868159 0.423610 0.140134
C7    C     C_R   0.063982 0.446512 0.442624 -0.073770
C8    C     C_R   0.936013 0.553497 0.557377 -0.073748
C9    C     C_R   0.934458 0.446540 0.442595 -0.068954
C10   C     C_R   0.065537 0.553450 0.557410 -0.069005
C11   C     C_R   0.457618 0.377736 0.744689 0.302216
C12   C     C_R   0.543229 0.622154 0.255379 0.302213
C13   C     C_R   0.487427 0.372292 0.253396 0.328419
C14   C     C_R   0.512525 0.627853 0.746586 0.328378
C15   C     C_R   0.465298 0.376624 0.816163 -0.203807
C16   C     C_R   0.535512 0.623400 0.183901 -0.203853
C17   C     C_R   0.480857 0.377086 0.182086 -0.193966
C18   C     C_R   0.519140 0.623175 0.817899 -0.193996
H5    H     H_    0.444687 0.280383 0.843286 0.181287
H6    H     H_    0.556492 0.719562 0.156804 0.181424
H7    H     H_    0.461744 0.281043 0.153624 0.180894
H8    H     H_    0.538007 0.719314 0.846335 0.180905
C19   C     C_R   0.496352 0.498422 0.852898 -0.030641
C20   C     C_R   0.504011 0.501797 0.147123 -0.030616
C21   C     C_R   0.422054 0.073864 0.457664 0.077622
C22   C     C_R   0.577944 0.926136 0.542337 0.077864
C23   C     C_R   0.577834 0.075091 0.542403 0.056310
C24   C     C_R   0.422165 0.924909 0.457598 0.055790
C25   C     C_R   0.486375 0.502824 0.708471 -0.270837
C26   C     C_R   0.513908 0.497177 0.291547 -0.270722
C27   C     C_R   0.595706 0.565180 0.963996 -0.158877
C28   C     C_R   0.404608 0.435176 0.036010 -0.158936
C29   C     C_R   0.596877 0.567453 0.035296 -0.156099
C30   C     C_R   0.403456 0.432872 0.964711 -0.156124
H9    H     H_    0.670959 0.614696 0.936744 0.152424
H10   H     H_    0.329337 0.385674 0.063252 0.152364
H11   H     H_    0.673494 0.617856 0.061915 0.150269
H12   H     H_    0.326867 0.382432 0.938082 0.150337
N1    N     N_R   0.500000 0.852070 0.500000 -0.182171
N2    N     N_R   0.500000 0.147930 0.500000 -0.182222
C31   C     C_R   0.501298 0.502499 0.071794 0.138668
C32   C     C_R   0.499035 0.497820 0.928219 0.138558
C33   C     C_1   0.130621 0.395806 0.383005 0.240485
N3    N     N_1   0.183651 0.355689 0.335415 -0.227574
C34   C     C_1   0.869370 0.604236 0.616989 0.240481
N4    N     N_1   0.816334 0.644381 0.664572 -0.227741
C35   C     C_1   0.866251 0.395643 0.382969 0.296864
N5    N     N_1   0.812017 0.355286 0.335390 -0.204341
C36   C     C_1   0.133742 0.604305 0.617044 0.296407
N6    N     N_1   0.187971 0.644625 0.664632 -0.204434
N7    N     N_R   0.414124 0.252863 0.710393 0.141036
O9    O     O_R   0.455920 0.130269 0.728834 -0.288717
O10   O     O_R   0.316819 0.259068 0.670724 -0.332716
N8    N     N_R   0.587511 0.746638 0.289722 0.141171
O11   O     O_R   0.684246 0.739377 0.329758 -0.333262
O12   O     O_R   0.547420 0.869664 0.270887 -0.288771
N9    N     N_R   0.471596 0.238086 0.285301 0.139271
O13   O     O_R   0.566622 0.178022 0.314257 -0.285359
O14   O     O_R   0.375368 0.161551 0.269626 -0.335721
N10   N     N_R   0.528073 0.762055 0.714639 0.139427
O15   O     O_R   0.432896 0.821919 0.685736 -0.285326
O16   O     O_R   0.624267 0.838749 0.730192 -0.335137

loop_
_geom_bond_atom_site_label_1
_geom_bond_atom_site_label_2
_geom_bond_distance
_ccdc_geom_bond_type
C20   C31   1.470516 S    
C14   N10   1.433677 S    
C11   C25   1.422463 A    
C12   C26   1.422449 A    
N10   O16   1.301027 A    
C18   H8    1.083989 S    
C24   N1    1.366634 A    
O7    C6    1.295640 A    
C21   N2    1.366430 A    
Cu1   Cu2   2.672832 S    
C15   H5    1.083652 S    
C16   C20   1.396561 A    
H1    C21   1.081700 S    
H2    C22   1.081699 S    
O5    C5    1.300962 A    
C19   C32   1.470345 S    
O7    Cu1   1.960686 S    
C13   C26   1.424232 A    
C1    C8    1.407259 A    
O8    Cu2   1.960688 S    
C27   C32   1.403002 A    
N8    O11   1.301603 A    
N7    O10   1.301729 A    
C28   C31   1.403070 A    
O1    Cu1   1.957346 S    
O2    Cu2   1.957346 S    
C34   N4    1.156910 T    
O4    C3    1.285254 A    
C21   C24   1.415215 A    
C27   C29   1.391721 A    
C11   C15   1.397107 A    
C28   C30   1.391696 A    
N10   O15   1.301164 A    
C16   H6    1.083600 S    
C13   C17   1.394277 A    
C14   C18   1.394307 A    
C11   N7    1.435304 S    
O3    C4    1.285247 A    
O6    C6    1.300959 A    
C8    C34   1.451829 S    
N9    O14   1.301025 A    
C29   H11   1.083057 S    
C2    C7    1.407260 A    
O4    Cu2   1.957423 S    
C7    C33   1.451808 S    
C1    C9    1.407152 A    
C27   H9    1.083209 S    
C2    C10   1.407160 A    
C18   C19   1.394915 A    
C22   C23   1.415216 A    
N7    O9    1.301321 A    
C10   C36   1.452476 S    
C7    C9    1.397689 A    
C17   H7    1.083969 S    
Cu1   N1    2.008615 S    
C13   N9    1.433711 S    
C29   C31   1.403108 A    
C9    C35   1.452490 S    
C30   C32   1.403024 A    
O1    C3    1.285260 A    
O2    C4    1.285255 A    
C1    C4    1.445269 S    
H4    C24   1.081700 S    
C12   C16   1.397229 A    
C2    C3    1.445292 S    
C28   H10   1.083200 S    
C14   C25   1.424300 A    
C17   C20   1.394952 A    
C12   N8    1.435458 S    
O5    Cu1   1.957781 S    
N9    O13   1.301160 A    
O6    Cu2   1.957779 S    
C33   N3    1.156904 T    
C8    C10   1.397693 A    
C35   N5    1.157197 T    
Cu2   N2    2.008616 S    
C23   N2    1.366633 A    
C36   N6    1.157194 T    
C30   H12   1.083074 S    
O8    C5    1.295590 A    
N8    O12   1.300975 A    
C22   N1    1.366428 A    
C15   C19   1.396515 A    
O3    Cu1   1.957423 S    
C5    C26   1.486152 S    
H3    C23   1.081702 S    
C6    C25   1.486236 S    
