data_mof_unit_28674.cif
_audit_creation_date              2012-12-11T16:26:25-0500
_audit_creation_method            fapswitch 2.2
_symmetry_space_group_name_H-M    P1
_symmetry_Int_Tables_number       1
_space_group_crystal_system       triclinic
_cell_length_a                    14.001537
_cell_length_b                    14.001588
_cell_length_c                    31.942627
_cell_angle_alpha                 90.000171
_cell_angle_beta                  90.000317
_cell_angle_gamma                 119.956333
_cell_volume                      5425.56783347

loop_
_atom_site_label
_atom_site_type_symbol
_atom_type_description
_atom_site_fract_x
_atom_site_fract_y
_atom_site_fract_z
_atom_type_partial_charge
C1    C     C_R   0.567405 0.444171 0.810327 0.525065
C2    C     C_R   0.444171 0.567405 0.189673 0.525088
C3    C     C_3   0.882927 0.311029 0.317029 -0.294884
C4    C     C_3   0.427818 0.116633 0.181944 -0.294656
C5    C     C_3   0.762989 0.621591 0.356682 -0.315404
C6    C     C_3   0.310947 0.882981 0.682947 -0.294885
C7    C     C_3   0.116843 0.428332 0.817986 -0.294762
C8    C     C_3   0.621738 0.763023 0.643299 -0.315417
C9    C     C_3   0.311157 0.882815 0.816997 -0.294886
C10   C     C_3   0.116557 0.427635 0.681907 -0.294650
C11   C     C_3   0.621459 0.762953 0.856668 -0.315392
C12   C     C_R   0.432387 0.876442 0.310478 0.541220
C13   C     C_R   0.123307 0.555877 0.189592 0.539707
C14   C     C_1   0.002028 0.514624 0.019004 -0.029590
C15   C     C_1   0.510144 0.993206 0.481606 -0.029131
C16   C     C_1   0.488909 0.494364 0.018643 -0.031581
C17   C     C_1   0.001957 0.514731 0.480990 -0.029587
C18   C     C_1   0.510092 0.993153 0.018389 -0.029136
C19   C     C_1   0.488893 0.494333 0.481355 -0.031580
C20   C     C_1   0.514729 0.002026 0.519004 -0.029585
C21   C     C_R   0.876443 0.432386 0.689521 0.541221
C22   C     C_1   0.993179 0.510024 0.981608 -0.029140
C23   C     C_1   0.494346 0.488880 0.518642 -0.031576
C24   C     C_1   0.514684 0.001984 0.980992 -0.029589
C25   C     C_1   0.993141 0.510144 0.518387 -0.029129
C26   C     C_1   0.494366 0.488908 0.981357 -0.031586
C27   C     C_R   0.929876 0.470504 0.851695 0.036406
C28   C     C_R   0.540026 0.068479 0.648639 0.035053
C29   C     C_R   0.530195 0.458782 0.851753 0.018385
C30   C     C_R   0.929917 0.470522 0.648307 0.036335
C31   C     C_R   0.540047 0.068501 0.851362 0.035061
C32   C     C_R   0.555878 0.123307 0.810408 0.539688
C33   C     C_R   0.530187 0.458786 0.648247 0.018389
C34   C     C_R   0.470529 0.929914 0.351691 0.036358
C35   C     C_R   0.068516 0.540044 0.148636 0.035076
C36   C     C_R   0.458785 0.530189 0.351752 0.018392
C37   C     C_R   0.470516 0.929910 0.148308 0.036341
C38   C     C_R   0.068479 0.540036 0.351360 0.035059
C39   C     C_R   0.458782 0.530193 0.148247 0.018398
C40   C     C_R   0.903043 0.538385 0.875568 -0.164592
C41   C     C_R   0.634333 0.093767 0.624785 -0.168887
C42   C     C_R   0.476716 0.364966 0.877492 -0.157782
C43   C     C_R   0.567404 0.444171 0.689673 0.525115
C44   C     C_R   0.903353 0.538677 0.624477 -0.164595
C45   C     C_R   0.634363 0.093921 0.875236 -0.168877
C46   C     C_R   0.476634 0.364959 0.622518 -0.157794
C47   C     C_R   0.538585 0.903248 0.375538 -0.164585
C48   C     C_R   0.093987 0.634351 0.124752 -0.168886
C49   C     C_R   0.364964 0.476672 0.377486 -0.157787
C50   C     C_R   0.538601 0.903279 0.124464 -0.164590
C51   C     C_R   0.093804 0.634344 0.375219 -0.168887
C52   C     C_R   0.364966 0.476708 0.122509 -0.157779
C53   C     C_R   0.928000 0.554703 0.917987 -0.131288
C54   C     C_R   0.876439 0.432385 0.810477 0.541230
C55   C     C_R   0.625171 0.067422 0.582485 -0.134899
C56   C     C_R   0.461904 0.375287 0.919791 -0.132391
C57   C     C_R   0.928300 0.555037 0.582057 -0.131267
C58   C     C_R   0.625183 0.067559 0.917534 -0.134897
C59   C     C_R   0.461817 0.375271 0.580218 -0.132383
C60   C     C_R   0.554945 0.928217 0.417955 -0.131273
C61   C     C_R   0.067643 0.625154 0.082452 -0.134901
C62   C     C_R   0.375280 0.461849 0.419785 -0.132389
C63   C     C_R   0.554944 0.928227 0.082045 -0.131272
C64   C     C_R   0.067433 0.625180 0.417516 -0.134904
C65   C     C_R   0.555874 0.123302 0.689592 0.539698
C66   C     C_R   0.375287 0.461896 0.080210 -0.132382
C67   C     C_R   0.980621 0.504118 0.937134 0.011075
C68   C     C_R   0.521844 0.014981 0.563460 0.009748
C69   C     C_R   0.499921 0.479262 0.937051 0.004016
C70   C     C_R   0.980641 0.504218 0.562865 0.011104
C71   C     C_R   0.521832 0.014970 0.936538 0.009728
C72   C     C_R   0.499902 0.479248 0.562949 0.004041
C73   C     C_R   0.504223 0.980681 0.437130 0.011101
C74   C     C_R   0.015023 0.521795 0.063457 0.009725
C75   C     C_R   0.479255 0.499892 0.437049 0.004030
C76   C     C_R   0.444172 0.567405 0.310327 0.525095
C77   C     C_R   0.504175 0.980635 0.062866 0.011092
C78   C     C_R   0.014928 0.521850 0.436534 0.009736
C79   C     C_R   0.479263 0.499918 0.062950 0.004027
C80   C     C_R   0.015361 0.443204 0.913389 -0.105638
C81   C     C_R   0.426556 0.981478 0.587263 -0.107669
C82   C     C_R   0.546471 0.573135 0.911637 -0.082313
C83   C     C_R   0.015137 0.443035 0.586569 -0.105615
C84   C     C_R   0.426547 0.981353 0.912716 -0.107688
C85   C     C_R   0.546521 0.573135 0.588355 -0.082303
C86   C     C_R   0.443138 0.015270 0.413410 -0.105625
C87   C     C_R   0.432385 0.876443 0.189522 0.541203
C88   C     C_R   0.981357 0.426522 0.087289 -0.107689
C89   C     C_R   0.573134 0.546477 0.411639 -0.082306
C90   C     C_R   0.443062 0.015194 0.086582 -0.105637
C91   C     C_R   0.981395 0.426565 0.412726 -0.107675
C92   C     C_R   0.573136 0.546472 0.088363 -0.082302
C93   C     C_R   0.992041 0.427175 0.870382 0.134689
C94   C     C_R   0.434362 0.006106 0.630155 0.133224
C95   C     C_R   0.560630 0.564384 0.868277 0.141289
C96   C     C_R   0.991838 0.426967 0.629576 0.134717
C97   C     C_R   0.434375 0.006002 0.869825 0.133217
C98   C     C_R   0.123304 0.555876 0.310408 0.539690
C99   C     C_R   0.560689 0.564396 0.631715 0.141303
C100  C     C_R   0.427073 0.991947 0.370403 0.134713
C101  C     C_R   0.005989 0.434367 0.130182 0.133218
C102  C     C_R   0.564390 0.560650 0.368280 0.141295
C103  C     C_R   0.427014 0.991894 0.129590 0.134698
C104  C     C_R   0.006051 0.434373 0.369836 0.133213
C105  C     C_R   0.564385 0.560634 0.131723 0.141300
C106  C     C_3   0.882753 0.311211 0.183006 -0.294940
C107  C     C_3   0.427946 0.116685 0.318032 -0.294651
C108  C     C_3   0.762962 0.621488 0.143331 -0.315399
Cr1   Cr    Cr6+3 0.504240 0.249200 0.750000 1.023174
Cr2   Cr    Cr6+3 0.744960 0.495760 0.750000 1.012842
Cr3   Cr    Cr6+3 0.750800 0.255040 0.750000 1.019644
Cr4   Cr    Cr6+3 0.249200 0.504240 0.250000 1.023178
Cr5   Cr    Cr6+3 0.495760 0.744960 0.250000 1.012842
Cr6   Cr    Cr6+3 0.255040 0.750800 0.250000 1.019644
H1    H     H_    0.855973 0.573134 0.862212 0.150932
H2    H     H_    0.573504 0.856369 0.137844 0.150897
H3    H     H_    0.140841 0.716263 0.361990 0.149005
H4    H     H_    0.283540 0.452485 0.134457 0.151032
H5    H     H_    0.093085 0.699173 0.064131 0.119146
H6    H     H_    0.603084 0.902029 0.436191 0.120467
H7    H     H_    0.302344 0.424907 0.060604 0.121221
H8    H     H_    0.092773 0.699209 0.435817 0.119119
H9    H     H_    0.603109 0.902069 0.063812 0.120475
H10   H     H_    0.302332 0.424836 0.439387 0.121204
H11   H     H_    0.699201 0.092734 0.564187 0.119105
H12   H     H_    0.716253 0.140759 0.638019 0.149002
H13   H     H_    0.901691 0.602703 0.936242 0.120506
H14   H     H_    0.424775 0.302317 0.560619 0.121197
H15   H     H_    0.699212 0.092967 0.935847 0.119143
H16   H     H_    0.902191 0.603257 0.563835 0.120460
H17   H     H_    0.424918 0.302345 0.939396 0.121220
H18   H     H_    0.938156 0.346347 0.072365 0.103394
H19   H     H_    0.406132 0.058300 0.428488 0.102708
H20   H     H_    0.652159 0.572560 0.073823 0.109177
H21   H     H_    0.938285 0.346408 0.427666 0.103381
H22   H     H_    0.406022 0.058184 0.071500 0.102718
H23   H     H_    0.452496 0.283541 0.865544 0.151042
H24   H     H_    0.652157 0.572579 0.426182 0.109180
H25   H     H_    0.346401 0.938414 0.572317 0.103369
H26   H     H_    0.058508 0.406304 0.928448 0.102741
H27   H     H_    0.572653 0.652160 0.573808 0.109170
H28   H     H_    0.346376 0.938177 0.927645 0.103388
H29   H     H_    0.058075 0.405953 0.571477 0.102707
H30   H     H_    0.572556 0.652158 0.926177 0.109186
H31   H     H_    0.957215 0.268704 0.136296 0.239929
H32   H     H_    0.864971 0.237018 0.201533 0.138538
H33   H     H_    0.807021 0.294357 0.165697 0.127730
H34   H     H_    0.856495 0.573624 0.637867 0.150896
H35   H     H_    0.905854 0.380608 0.205113 0.146745
H36   H     H_    0.310442 0.041198 0.364469 0.239400
H37   H     H_    0.371849 0.135119 0.299592 0.139545
H38   H     H_    0.474398 0.094009 0.295817 0.145949
H39   H     H_    0.486647 0.191905 0.335617 0.129266
H40   H     H_    0.642329 0.577663 0.189219 0.252168
H41   H     H_    0.825134 0.654201 0.168850 0.140633
H42   H     H_    0.794238 0.682829 0.117537 0.152064
H43   H     H_    0.753482 0.541707 0.132590 0.139708
H44   H     H_    0.957510 0.268759 0.363768 0.239910
H45   H     H_    0.716292 0.141022 0.862019 0.149002
H46   H     H_    0.865263 0.236846 0.298522 0.138578
H47   H     H_    0.905936 0.380372 0.294905 0.146791
H48   H     H_    0.807153 0.294083 0.334327 0.127718
H49   H     H_    0.310308 0.041047 0.135520 0.239415
H50   H     H_    0.371696 0.135038 0.200381 0.139557
H51   H     H_    0.486478 0.191852 0.164350 0.129270
H52   H     H_    0.474316 0.094018 0.204159 0.145965
H53   H     H_    0.642357 0.577695 0.310790 0.252171
H54   H     H_    0.825168 0.654332 0.331166 0.140635
H55   H     H_    0.753552 0.541828 0.367424 0.139727
H56   H     H_    0.452359 0.283528 0.634472 0.151060
H57   H     H_    0.794229 0.682930 0.382476 0.152049
H58   H     H_    0.268763 0.957653 0.636213 0.239890
H59   H     H_    0.236782 0.865361 0.701456 0.138578
H60   H     H_    0.380275 0.905920 0.705070 0.146777
H61   H     H_    0.293945 0.807207 0.665640 0.127739
H62   H     H_    0.041531 0.310754 0.864399 0.239480
H63   H     H_    0.135386 0.372344 0.799528 0.139549
H64   H     H_    0.192021 0.487097 0.835573 0.129293
H65   H     H_    0.094051 0.474715 0.795792 0.145950
H66   H     H_    0.577758 0.642396 0.689200 0.252174
H67   H     H_    0.573450 0.856295 0.362162 0.150906
H68   H     H_    0.654506 0.825210 0.668812 0.140638
H69   H     H_    0.541999 0.753635 0.632552 0.139734
H70   H     H_    0.683082 0.794219 0.617507 0.152032
H71   H     H_    0.268711 0.957286 0.863729 0.239916
H72   H     H_    0.236958 0.865066 0.798481 0.138537
H73   H     H_    0.294285 0.807057 0.834294 0.127695
H74   H     H_    0.380538 0.905908 0.794880 0.146754
H75   H     H_    0.040858 0.310153 0.635483 0.239391
H76   H     H_    0.134911 0.371460 0.700334 0.139576
H77   H     H_    0.094017 0.474172 0.704130 0.145987
H78   H     H_    0.141114 0.716281 0.137963 0.149029
H79   H     H_    0.191782 0.486251 0.664307 0.129281
H80   H     H_    0.577649 0.642321 0.810781 0.252172
H81   H     H_    0.654162 0.825123 0.831148 0.140630
H82   H     H_    0.682801 0.794240 0.882461 0.152071
H83   H     H_    0.541672 0.753462 0.867408 0.139712
H84   H     H_    0.283536 0.452431 0.365535 0.151054
N1    N     N_2   0.971505 0.336348 0.153918 -0.492320
N2    N     N_2   0.336343 0.971563 0.846099 -0.492295
N3    N     N_2   0.027032 0.363745 0.653164 -0.493413
N4    N     N_2   0.605883 0.658825 0.841221 -0.502717
N5    N     N_2   0.363961 0.027237 0.346796 -0.493395
N6    N     N_2   0.658828 0.605897 0.158779 -0.502714
N7    N     N_2   0.971704 0.336340 0.346127 -0.492331
N8    N     N_2   0.363865 0.027150 0.153193 -0.493411
N9    N     N_2   0.658839 0.605942 0.341228 -0.502712
N10   N     N_2   0.336323 0.971792 0.653858 -0.492324
N11   N     N_2   0.027464 0.364219 0.846748 -0.493481
N12   N     N_2   0.606017 0.658856 0.658763 -0.502702
O1    O     O_R   0.480350 0.140770 0.796330 -0.478490
O2    O     O_R   0.140770 0.480350 0.203670 -0.478484
O3    O     O_R   0.519650 0.660420 0.296330 -0.498098
O4    O     O_R   0.339580 0.859230 0.203670 -0.478061
O5    O     O_R   0.514930 0.348530 0.793250 -0.507008
O6    O     O_R   0.833600 0.485070 0.706750 -0.512364
O7    O     O_R   0.651470 0.166400 0.793250 -0.514427
O8    O     O_R   0.514930 0.348530 0.706750 -0.507011
O9    O     O_R   0.833600 0.485070 0.793250 -0.512383
O10   O     O_R   0.651470 0.166400 0.706750 -0.514399
O11   O     O_R   0.348530 0.514930 0.293250 -0.507011
O12   O     O_R   0.660420 0.519650 0.703670 -0.498079
O13   O     O_R   0.485070 0.833600 0.206750 -0.512364
O14   O     O_R   0.166400 0.651470 0.293250 -0.514411
O15   O     O_R   0.348530 0.514930 0.206750 -0.507019
O16   O     O_R   0.485070 0.833600 0.293250 -0.512371
O17   O     O_R   0.166400 0.651470 0.206750 -0.514416
O18   O     O_3   0.666667 0.333333 0.750000 -0.237867
O19   O     O_3   0.333333 0.666667 0.250000 -0.237868
O20   O     O_R   0.859230 0.339580 0.796330 -0.478080
O21   O     O_R   0.480350 0.140770 0.703670 -0.478466
O22   O     O_R   0.660420 0.519650 0.796330 -0.498122
O23   O     O_R   0.859230 0.339580 0.703670 -0.478028
O24   O     O_R   0.140770 0.480350 0.296330 -0.478468
O25   O     O_R   0.519650 0.660420 0.203670 -0.498098
O26   O     O_R   0.339580 0.859230 0.296330 -0.478058

loop_
_geom_bond_atom_site_label_1
_geom_bond_atom_site_label_2
_ccdc_geom_bond_type
C83   H29   S    
C81   H25   S    
C33   C46   A    
C89   C102  A    
C61   H5    S    
C25   C70   S    
Cr4   O11   S    
C28   C41   A    
Cr2   O6    S    
C45   H45   S    
C103  N8    S    
Cr5   O3    S    
C91   C104  A    
C38   C98   S    
C9    H74   S    
Cr6   O19   S    
C62   H10   S    
C88   C101  A    
C48   C61   A    
C27   C54   S    
C54   O9    A    
C12   O26   A    
H62   N11   S    
C95   N4    S    
C66   C79   A    
C10   H76   S    
Cr5   O19   S    
C18   C24   T    
C68   C81   A    
C14   C74   S    
C36   C102  A    
C11   H81   S    
H31   N1    S    
C29   C42   A    
C100  N5    S    
Cr4   O24   S    
C58   C71   A    
C40   H1    S    
C6    H61   S    
C58   H15   S    
H80   N4    S    
C60   C73   A    
Cr3   O23   S    
C4    H51   S    
C7    H63   S    
Cr5   O25   S    
C5    H54   S    
Cr6   O4    S    
C41   C55   A    
C38   C104  A    
Cr1   O8    S    
C53   H13   S    
C3    H48   S    
C42   C56   A    
C47   C60   A    
C12   O16   A    
C76   O3    A    
Cr5   O13   S    
C55   H11   S    
C36   C76   S    
C1    O5    A    
C30   C96   A    
C4    H50   S    
C60   H6    S    
Cr4   O15   S    
C84   H28   S    
C57   C70   A    
C86   C100  A    
C102  N9    S    
C27   C40   A    
C6    N10   S    
C32   O7    A    
C9    N2    S    
C47   H67   S    
C59   C72   A    
C67   C80   A    
C107  H37   S    
C8    H70   S    
C39   C52   A    
Cr6   O17   S    
C106  H35   S    
C42   H23   S    
C50   C63   A    
C13   O2    A    
C30   C44   A    
H36   N5    S    
H53   N9    S    
C106  H33   S    
C8    N12   S    
C35   C48   A    
C2    C39   S    
C7    N11   S    
Cr1   O18   S    
C37   C87   S    
C55   C68   A    
C49   H84   S    
C72   C85   A    
C16   C26   T    
C15   C20   T    
C45   C58   A    
C21   O23   A    
C77   C90   A    
C66   H7    S    
C74   C88   A    
C65   O21   A    
C3    N7    S    
C57   H16   S    
C96   N3    S    
C43   O12   A    
C94   N10   S    
C11   H82   S    
C82   H30   S    
C9    H72   S    
C10   H79   S    
C85   H27   S    
C29   C95   A    
C32   O1    A    
C3    H47   S    
C28   C94   A    
Cr6   O26   S    
C38   C51   A    
C6    H60   S    
H75   N3    S    
C59   H14   S    
C80   H26   S    
Cr4   O19   S    
C46   H56   S    
C7    H64   S    
C98   O14   A    
C22   C67   S    
C33   C99   A    
C11   N4    S    
C33   C43   S    
C19   C23   T    
C11   H83   S    
C107  N5    S    
C85   C99   A    
C5    N9    S    
C90   H22   S    
C92   C105  A    
C86   H19   S    
C34   C100  A    
C31   C32   S    
C108  H42   S    
H58   N10   S    
C44   C57   A    
C90   C103  A    
C1    C29   S    
C5    H57   S    
C21   O6    A    
C7    H65   S    
C104  N7    S    
C78   C91   A    
H66   N12   S    
C70   C83   A    
C89   H24   S    
C79   C92   A    
C107  H39   S    
Cr2   O22   S    
C107  H38   S    
C8    H69   S    
H40   N6    S    
C15   C73   S    
C92   H20   S    
C40   C53   A    
Cr2   O9    S    
C3    H46   S    
C61   C74   A    
C62   C75   A    
C27   C93   A    
C43   O8    A    
C35   C101  A    
Cr3   O10   S    
C84   C97   A    
C12   C34   S    
Cr2   O12   S    
Cr4   O2    S    
C52   C66   A    
C37   C103  A    
C71   C84   A    
C63   C77   A    
C8    H68   S    
C39   C105  A    
C9    H73   S    
C44   H34   S    
C5    H55   S    
C82   C95   A    
H44   N7    S    
C64   C78   A    
C23   C72   S    
C20   C68   S    
Cr3   O18   S    
C51   C64   A    
Cr1   O5    S    
C13   O17   A    
C65   O10   A    
C63   H9    S    
C101  N1    S    
C13   C35   S    
C108  H43   S    
C6    H59   S    
C76   O11   A    
C21   C30   S    
H49   N8    S    
C10   H77   S    
C106  H32   S    
C16   C79   S    
C17   C25   T    
C14   C22   T    
C41   H12   S    
C19   C75   S    
C28   C65   S    
C108  N6    S    
Cr2   O18   S    
C93   N11   S    
C81   C94   A    
Cr1   O21   S    
C1    O22   A    
C97   N2    S    
Cr5   O16   S    
C108  H41   S    
C18   C77   S    
C64   H8    S    
C83   C96   A    
C37   C50   A    
C17   C78   S    
C51   H3    S    
C87   O4    A    
C4    H52   S    
C69   C82   A    
C50   H2    S    
C31   C97   A    
H71   N2    S    
C53   C67   A    
C10   N3    S    
C73   C86   A    
C48   H78   S    
C56   H17   S    
C75   C89   A    
C4    N8    S    
C2    O25   A    
C91   H21   S    
C24   C71   S    
C46   C59   A    
C56   C69   A    
C31   C45   A    
C26   C69   S    
Cr3   O20   S    
C88   H18   S    
C49   C62   A    
C34   C47   A    
Cr3   O7    S    
Cr6   O14   S    
C80   C93   A    
Cr1   O1    S    
C54   O20   A    
C98   O24   A    
C36   C49   A    
C105  N6    S    
C2    O15   A    
C87   O13   A    
C106  N1    S    
C99   N12   S    
C52   H4    S    
