data_mof_unit_47693.cif
_audit_creation_date              2012-12-11T14:01:42-0500
_audit_creation_method            fapswitch 2.2
_symmetry_space_group_name_H-M    P1
_symmetry_Int_Tables_number       1
_space_group_crystal_system       triclinic
_cell_length_a                    19.218853
_cell_length_b                    11.007491
_cell_length_c                    18.964194
_cell_angle_alpha                 89.367248
_cell_angle_beta                  90.136766
_cell_angle_gamma                 90.040987
_cell_volume                      4011.64384252

loop_
_atom_site_label
_atom_site_type_symbol
_atom_type_description
_atom_site_fract_x
_atom_site_fract_y
_atom_site_fract_z
_atom_type_partial_charge
C1    C     C_R   0.271357 0.047025 0.850190 0.562480
C2    C     C_R   0.909857 0.621092 0.971435 -0.101003
C3    C     C_R   0.403776 0.098430 0.043349 -0.163327
C4    C     C_R   0.409856 0.121091 0.971435 -0.101002
C5    C     C_2   0.255756 0.586233 0.923046 -0.034138
C6    C     C_2   0.747043 0.577818 0.084195 -0.067388
C7    C     C_2   0.755756 0.086233 0.923045 -0.034139
C8    C     C_2   0.247042 0.077818 0.084195 -0.067391
C9    C     C_2   0.249324 0.594219 0.078842 -0.112366
C10   C     C_2   0.743454 0.618758 0.907633 -0.081856
C11   C     C_2   0.749324 0.094218 0.078841 -0.112365
C12   C     C_R   0.727682 0.043832 0.147169 0.591666
C13   C     C_2   0.243454 0.118760 0.907633 -0.081855
C14   C     C_2   0.306569 0.562769 0.042584 0.183724
C15   C     C_2   0.710525 0.570420 0.963054 0.247286
C16   C     C_2   0.806569 0.062767 0.042583 0.183723
C17   C     C_2   0.210525 0.070422 0.963053 0.247282
C18   C     C_2   0.310684 0.596207 0.967533 0.338910
C19   C     C_2   0.717194 0.633966 0.029245 0.377657
C20   C     C_2   0.810685 0.096205 0.967533 0.338913
C21   C     C_2   0.217194 0.133967 0.029245 0.377657
C22   C     C_2   0.489495 0.832780 0.574807 0.427574
C23   C     C_R   0.771357 0.547024 0.850191 0.562480
C24   C     C_2   0.548856 0.814259 0.431295 0.424813
C25   C     C_2   0.989499 0.332781 0.574809 0.427461
C26   C     C_2   0.048860 0.314257 0.431296 0.424800
C27   C     C_2   0.489379 0.766632 0.456158 0.251734
C28   C     C_2   0.487426 0.737988 0.530208 0.193319
C29   C     C_2   0.989384 0.266630 0.456160 0.251752
C30   C     C_2   0.987433 0.237988 0.530210 0.193371
C31   C     C_2   0.234456 0.555940 0.593982 0.271184
C32   C     C_2   0.752309 0.564361 0.417677 0.203373
C33   C     C_2   0.734455 0.055937 0.593983 0.271153
C34   C     C_R   0.227682 0.543832 0.147169 0.591666
C35   C     C_2   0.252310 0.064358 0.417677 0.203476
C36   C     C_2   0.218582 0.512595 0.433958 0.408603
C37   C     C_2   0.802654 0.482081 0.566849 0.391669
C38   C     C_2   0.718582 0.012593 0.433958 0.408601
C39   C     C_2   0.302654 0.982079 0.566849 0.391661
C40   C     C_R   0.470972 0.823468 0.852812 0.610902
C41   C     C_R   0.531996 0.822310 0.144972 0.599776
C42   C     C_R   0.970971 0.323468 0.852812 0.610936
C43   C     C_R   0.031996 0.322310 0.144972 0.599778
C44   C     C_2   0.175098 0.573774 0.476973 0.285893
C45   C     C_R   0.459016 0.037963 0.075992 0.191005
C46   C     C_2   0.828889 0.568805 0.522535 0.210676
C47   C     C_2   0.675100 0.073775 0.476973 0.285916
C48   C     C_2   0.328892 0.068800 0.522534 0.210644
C49   C     C_2   0.206954 0.619951 0.540202 -0.007014
C50   C     C_2   0.816913 0.562340 0.445817 -0.020410
C51   C     C_2   0.706958 0.119951 0.540202 -0.006999
C52   C     C_2   0.316914 0.062335 0.445816 -0.020343
C53   C     C_R   0.261897 0.637059 0.851791 0.610326
C54   C     C_R   0.739668 0.632836 0.151740 0.575866
C55   C     C_R   0.761897 0.137059 0.851791 0.610310
C56   C     C_R   0.458924 0.055716 0.933324 0.309154
C57   C     C_R   0.239668 0.132836 0.151739 0.575867
C58   C     C_R   0.295763 0.991806 0.643323 0.593685
C59   C     C_R   0.707698 0.996085 0.359095 0.554968
C60   C     C_R   0.795763 0.491806 0.643323 0.593699
C61   C     C_R   0.207698 0.496086 0.359095 0.554966
C62   C     C_R   0.467755 0.823128 0.646879 0.555100
C63   C     C_R   0.564135 0.817084 0.357986 0.564778
C64   C     C_R   0.967755 0.323128 0.646879 0.555048
C65   C     C_R   0.064136 0.317084 0.357986 0.564791
C66   C     C_R   0.258098 0.631194 0.650998 0.552317
C67   C     C_R   0.959016 0.537964 0.075992 0.191007
C68   C     C_R   0.739254 0.635739 0.353699 0.515459
C69   C     C_R   0.758097 0.131190 0.651000 0.552297
C70   C     C_R   0.239254 0.135739 0.353698 0.515455
C71   C     C_R   0.514982 0.831422 0.069900 -0.038098
C72   C     C_R   0.502096 0.841009 0.922509 -0.015347
C73   C     C_R   0.014982 0.331421 0.069900 -0.038098
C74   C     C_R   0.002095 0.341008 0.922509 -0.015337
C75   C     C_R   0.487181 0.938173 0.037824 -0.070322
C76   C     C_R   0.484834 0.945566 0.963221 -0.059143
C77   C     C_R   0.987181 0.438173 0.037824 -0.070324
C78   C     C_R   0.958925 0.555716 0.933324 0.309150
C79   C     C_R   0.984834 0.445566 0.963221 -0.059150
C80   C     C_R   0.532122 0.740409 0.955026 0.452472
C81   C     C_R   0.538033 0.735025 0.027180 0.488166
C82   C     C_R   0.032121 0.240408 0.955026 0.452474
C83   C     C_R   0.038032 0.235024 0.027180 0.488164
C84   C     C_R   0.903776 0.598431 0.043348 -0.163326
Cr1   Cr    Cr6+3 0.230530 0.836340 0.748870 1.195929
Cr2   Cr    Cr6+3 0.614360 0.677860 0.250770 1.210030
Cr3   Cr    Cr6+3 0.885640 0.177860 0.749230 1.207944
Cr4   Cr    Cr6+3 0.114360 0.177860 0.250770 1.210015
Cr5   Cr    Cr6+3 0.769470 0.836340 0.251130 1.166835
Cr6   Cr    Cr6+3 0.730530 0.336340 0.748870 1.195933
Cr7   Cr    Cr6+3 0.269470 0.336340 0.251130 1.166832
Cr8   Cr    Cr6+3 0.387420 0.989430 0.750820 1.190227
Cr9   Cr    Cr6+3 0.612580 0.989430 0.249180 1.182131
Cr10  Cr    Cr6+3 0.887420 0.489430 0.750820 1.190267
Cr11  Cr    Cr6+3 0.112580 0.489430 0.249180 1.182122
Cr12  Cr    Cr6+3 0.385640 0.677860 0.749230 1.207941
F1    F     F_    0.552523 0.642962 0.916898 -0.524542
F2    F     F_    0.696391 0.752105 0.033280 -0.642492
F3    F     F_    0.871393 0.146783 0.944959 -0.595168
F4    F     F_    0.196391 0.252107 0.033280 -0.642490
F5    F     F_    0.603194 0.834589 0.475316 -0.618731
F6    F     F_    0.495411 0.947299 0.548539 -0.544957
F7    F     F_    0.103200 0.334585 0.475315 -0.618766
F8    F     F_    0.995416 0.447301 0.548542 -0.544952
F9    F     F_    0.566743 0.632566 0.055000 -0.486132
F10   F     F_    0.052522 0.142961 0.916898 -0.524539
F11   F     F_    0.066742 0.132566 0.055000 -0.486133
F12   F     F_    0.280501 0.470753 0.459873 -0.606425
F13   F     F_    0.789328 0.370941 0.541317 -0.626965
F14   F     F_    0.780500 0.970745 0.459873 -0.606432
F15   F     F_    0.289328 0.870937 0.541318 -0.626949
F16   F     F_    0.371393 0.646786 0.944960 -0.595169
H1    H     H_    0.207924 0.717823 0.541757 0.228385
H2    H     H_    0.765121 0.709724 0.912531 0.100758
H3    H     H_    0.711118 0.150938 0.052369 0.149058
H4    H     H_    0.265122 0.209724 0.912532 0.100761
H5    H     H_    0.205537 0.553575 0.941396 0.117290
H6    H     H_    0.767307 0.485939 0.080912 0.045518
H7    H     H_    0.705537 0.053575 0.941396 0.117295
H8    H     H_    0.267305 0.985939 0.080912 0.045515
H9    H     H_    0.079797 0.805415 0.519937 0.417304
H10   H     H_    0.945134 0.735476 0.457881 0.391993
H11   H     H_    0.579793 0.305422 0.519931 0.417316
H12   H     H_    0.858786 0.600349 0.414306 0.149358
H13   H     H_    0.445138 0.235464 0.457877 0.391983
H14   H     H_    0.111340 0.365376 0.677425 0.353822
H15   H     H_    0.730141 0.325665 0.380982 0.369717
H16   H     H_    0.611348 0.865628 0.677538 0.353735
H17   H     H_    0.230034 0.825599 0.380951 0.369741
H18   H     H_    0.479046 0.151272 0.213881 0.331188
H19   H     H_    0.590180 0.088874 0.798100 0.376848
H20   H     H_    0.979046 0.651271 0.213881 0.331189
H21   H     H_    0.090189 0.588902 0.798104 0.376905
H22   H     H_    0.434282 0.433477 0.990197 0.375903
H23   H     H_    0.707932 0.217822 0.541757 0.228398
H24   H     H_    0.656859 0.361570 0.072216 0.344564
H25   H     H_    0.934280 0.933474 0.990197 0.375899
H26   H     H_    0.156855 0.861575 0.072214 0.344564
H27   H     H_    0.406765 0.542217 0.390965 0.401383
H28   H     H_    0.382407 0.533636 0.543140 0.395451
H29   H     H_    0.906791 0.042217 0.390973 0.401361
H30   H     H_    0.882424 0.033546 0.543123 0.395513
H31   H     H_    0.358787 0.100344 0.414304 0.149332
H32   H     H_    0.874610 0.663340 0.073193 0.189594
H33   H     H_    0.885775 0.701557 0.948991 0.143975
H34   H     H_    0.374610 0.163338 0.073194 0.189595
H35   H     H_    0.385773 0.201556 0.948992 0.143976
H36   H     H_    0.211119 0.650940 0.052369 0.149056
O1    O     O_R   0.215090 0.709860 0.828130 -0.448020
O2    O     O_R   0.543740 0.718170 0.330000 -0.445984
O3    O     O_3   0.125623 0.901474 0.037429 -0.352189
O4    O     O_2   0.351876 0.723093 0.452778 -0.251226
O5    O     O_2   0.400476 0.840697 0.354418 -0.264896
O6    O     O_3   0.422804 0.608182 0.358991 -0.427323
O7    O     O_2   0.507938 0.507248 0.489127 -0.219961
O8    O     O_2   0.546068 0.558981 0.608023 -0.180537
O9    O     O_3   0.414026 0.532156 0.584385 -0.422086
O10   O     O_2   0.851881 0.223087 0.452787 -0.251255
O11   O     O_2   0.900473 0.340707 0.354430 -0.264946
O12   O     O_3   0.922802 0.108193 0.358990 -0.427311
O13   O     O_R   0.956260 0.218170 0.670000 -0.482453
O14   O     O_2   0.007946 0.007247 0.489131 -0.220009
O15   O     O_2   0.046069 0.058980 0.608029 -0.180596
O16   O     O_3   0.914027 0.032162 0.584384 -0.422112
O17   O     O_R   0.043740 0.218170 0.330000 -0.445992
O18   O     O_R   0.320940 0.626760 0.674370 -0.458404
O19   O     O_R   0.679060 0.626760 0.325630 -0.486438
O20   O     O_R   0.820940 0.126760 0.674370 -0.458365
O21   O     O_R   0.179060 0.126760 0.325630 -0.486447
O22   O     O_3   0.334530 0.834540 0.749640 -0.370094
O23   O     O_3   0.665470 0.834540 0.250360 -0.376999
O24   O     O_3   0.834530 0.334540 0.749640 -0.370100
O25   O     O_R   0.784910 0.709860 0.171870 -0.482431
O26   O     O_3   0.165470 0.334540 0.250360 -0.376992
O27   O     O_R   0.236990 0.958390 0.823710 -0.425514
O28   O     O_R   0.763010 0.958390 0.176290 -0.421178
O29   O     O_R   0.736990 0.458390 0.823710 -0.425513
O30   O     O_R   0.263010 0.458390 0.176290 -0.421176
O31   O     O_R   0.332380 0.074750 0.830850 -0.502425
O32   O     O_R   0.667620 0.074750 0.169150 -0.426290
O33   O     O_R   0.832380 0.574750 0.830850 -0.502430
O34   O     O_R   0.167620 0.574750 0.169150 -0.426292
O35   O     O_R   0.445800 0.917770 0.825070 -0.494917
O36   O     O_R   0.715090 0.209860 0.828130 -0.448005
O37   O     O_R   0.554200 0.917770 0.174930 -0.460459
O38   O     O_R   0.945800 0.417770 0.825070 -0.494896
O39   O     O_R   0.054200 0.417770 0.174930 -0.460456
O40   O     O_R   0.456410 0.716580 0.829970 -0.390499
O41   O     O_R   0.543590 0.716580 0.170030 -0.386931
O42   O     O_R   0.956410 0.216580 0.829970 -0.390508
O43   O     O_R   0.043590 0.216580 0.170030 -0.386932
O44   O     O_R   0.321080 0.625290 0.822650 -0.448731
O45   O     O_R   0.678920 0.625290 0.177350 -0.447497
O46   O     O_R   0.821080 0.125290 0.822650 -0.448741
O47   O     O_R   0.284910 0.209860 0.171870 -0.482428
O48   O     O_R   0.178920 0.125290 0.177350 -0.447501
O49   O     O_R   0.214930 0.711450 0.668160 -0.517636
O50   O     O_R   0.785070 0.711450 0.331840 -0.520085
O51   O     O_R   0.714930 0.211450 0.668160 -0.517657
O52   O     O_R   0.285070 0.211450 0.331840 -0.520090
O53   O     O_R   0.236850 0.959870 0.675420 -0.441348
O54   O     O_R   0.763150 0.959870 0.324580 -0.435059
O55   O     O_R   0.736850 0.459870 0.675420 -0.441334
O56   O     O_R   0.263150 0.459870 0.324580 -0.435071
O57   O     O_R   0.332230 0.076350 0.670880 -0.449289
O58   O     O_R   0.445660 0.919250 0.676780 -0.470197
O59   O     O_R   0.667770 0.076350 0.329120 -0.480491
O60   O     O_R   0.832230 0.576350 0.670880 -0.449288
O61   O     O_R   0.167770 0.576350 0.329120 -0.480538
O62   O     O_2   0.098666 0.734645 0.395364 -0.218848
O63   O     O_2   0.038029 0.556967 0.436466 -0.216353
O64   O     O_3   0.066624 0.719583 0.527672 -0.413735
O65   O     O_2   0.841196 0.777678 0.596829 -0.130193
O66   O     O_2   0.943874 0.652536 0.588504 -0.131803
O67   O     O_3   0.905635 0.779828 0.478729 -0.446961
O68   O     O_2   0.598671 0.234647 0.395363 -0.218734
O69   O     O_R   0.554340 0.919250 0.323220 -0.471039
O70   O     O_2   0.538032 0.056972 0.436467 -0.216379
O71   O     O_3   0.566629 0.219590 0.527671 -0.413757
O72   O     O_2   0.341205 0.277674 0.596827 -0.130154
O73   O     O_2   0.443879 0.152527 0.588501 -0.131806
O74   O     O_3   0.405641 0.279818 0.478726 -0.446914
O75   O     O_2   0.210766 0.322029 0.558029 -0.140078
O76   O     O_2   0.242197 0.364024 0.681209 -0.268740
O77   O     O_3   0.119043 0.424142 0.638284 -0.467072
O78   O     O_2   0.667859 0.481884 0.522382 -0.203810
O79   O     O_2   0.619351 0.479076 0.404071 -0.190675
O80   O     O_R   0.945660 0.419250 0.676780 -0.470147
O81   O     O_3   0.717579 0.326116 0.431629 -0.456379
O82   O     O_2   0.710755 0.822027 0.558034 -0.139985
O83   O     O_2   0.742174 0.864024 0.681215 -0.268820
O84   O     O_3   0.619027 0.924172 0.638269 -0.466998
O85   O     O_2   0.167860 0.981872 0.522381 -0.203821
O86   O     O_2   0.119353 0.979069 0.404069 -0.190740
O87   O     O_3   0.217588 0.826116 0.431624 -0.456396
O88   O     O_2   0.586058 0.127189 0.070951 -0.247306
O89   O     O_2   0.495389 0.275024 0.087681 -0.164254
O90   O     O_3   0.527004 0.143245 0.195488 -0.444361
O91   O     O_R   0.054340 0.419250 0.323220 -0.471026
O92   O     O_2   0.463396 0.163916 0.804991 -0.239800
O93   O     O_2   0.527476 0.256234 0.901274 -0.163900
O94   O     O_3   0.578852 0.060241 0.846425 -0.536579
O95   O     O_2   0.086058 0.627189 0.070951 -0.247308
O96   O     O_2   0.995389 0.775024 0.087682 -0.164257
O97   O     O_3   0.027003 0.643244 0.195489 -0.444363
O98   O     O_2   0.963393 0.663926 0.804994 -0.239788
O99   O     O_2   0.027486 0.756224 0.901276 -0.163915
O100  O     O_3   0.078846 0.560229 0.846416 -0.536557
O101  O     O_2   0.403863 0.582473 0.142973 -0.209245
O102  O     O_R   0.456260 0.718170 0.670000 -0.482458
O103  O     O_2   0.369517 0.377206 0.110102 -0.259418
O104  O     O_3   0.448118 0.497144 0.024006 -0.329300
O105  O     O_2   0.629161 0.407934 0.900716 -0.099901
O106  O     O_2   0.732568 0.333712 0.963609 -0.383376
O107  O     O_3   0.625628 0.401468 0.037431 -0.352196
O108  O     O_2   0.903864 0.082476 0.142972 -0.209245
O109  O     O_2   0.869518 0.877207 0.110105 -0.259417
O110  O     O_3   0.948117 0.997141 0.024006 -0.329298
O111  O     O_2   0.129157 0.907945 0.900713 -0.099906
O112  O     O_2   0.232562 0.833712 0.963606 -0.383371
S1    S     S_3+6 0.093478 0.645550 0.455561 0.115956
S2    S     S_3+6 0.507042 0.137723 0.869214 0.088091
S3    S     S_3+6 0.018235 0.648776 0.107298 0.087939
S4    S     S_3+6 0.007042 0.637720 0.869213 0.088094
S5    S     S_3+6 0.382750 0.503086 0.082626 0.116027
S6    S     S_3+6 0.674120 0.423600 0.964652 0.111904
S7    S     S_3+6 0.882750 0.003086 0.082626 0.116027
S8    S     S_3+6 0.174117 0.923605 0.964650 0.111907
S9    S     S_3+6 0.413516 0.737078 0.404980 0.064592
S10   S     S_3+6 0.490852 0.580511 0.553039 0.113438
S11   S     S_3+6 0.913518 0.237082 0.404986 0.064562
S12   S     S_3+6 0.880733 0.695917 0.549019 0.144846
S13   S     S_3+6 0.990857 0.080512 0.553042 0.113400
S14   S     S_3+6 0.593481 0.145555 0.455561 0.115991
S15   S     S_3+6 0.380739 0.195909 0.549016 0.144868
S16   S     S_3+6 0.203396 0.410180 0.617356 0.119571
S17   S     S_3+6 0.685293 0.464964 0.446005 0.094419
S18   S     S_3+6 0.703383 0.910185 0.617357 0.119578
S19   S     S_3+6 0.185296 0.964959 0.446003 0.094401
S20   S     S_3+6 0.518235 0.148776 0.107297 0.087943

loop_
_geom_bond_atom_site_label_1
_geom_bond_atom_site_label_2
_ccdc_geom_bond_type
C44   C49   S    
C43   C73   S    
C31   C66   S    
C49   H1    S    
C56   C76   A    
C80   F1    S    
C36   F12   S    
Cr12  O40   S    
H24   O107  S    
C2    C84   A    
C67   C77   A    
C24   C27   D    
Cr5   O25   S    
C75   C76   A    
C15   S6    S    
C31   C49   D    
C47   S14   S    
Cr11  O39   S    
H13   O74   S    
C2    H33   S    
C15   C19   S    
C6    C19   D    
C20   F3    S    
C35   S19   S    
H17   O87   S    
C35   C52   D    
C82   C83   A    
C54   O25   A    
Cr9   O69   S    
C70   O21   A    
C18   F16   S    
C23   O33   A    
C17   S8    S    
O90   S20   S    
C10   C15   D    
Cr2   O2    S    
C61   O56   A    
H30   O16   S    
C8    C57   S    
O14   S13   D    
H20   O97   S    
O8    S10   D    
C31   S16   S    
O101  S5    D    
Cr7   O30   S    
C65   O17   A    
H15   O81   S    
Cr4   O26   S    
H10   O67   S    
C68   O50   A    
C24   F5    S    
H9    O64   S    
O84   S18   S    
O74   S15   S    
Cr4   O48   S    
Cr8   O57   S    
C60   O55   A    
Cr10  O24   S    
Cr8   O58   S    
O78   S17   D    
Cr7   O56   S    
C51   H23   S    
C73   C77   A    
Cr9   O32   S    
Cr10  O60   S    
Cr9   O23   S    
O75   S16   D    
C58   O53   A    
Cr8   O22   S    
Cr2   O45   S    
O12   S11   S    
O109  S7    D    
C70   O52   A    
C55   O36   A    
O73   S15   D    
C26   C29   D    
O111  S8    D    
Cr10  O33   S    
H22   O104  S    
O67   S12   S    
O112  S8    D    
O6    S9    S    
C11   H3    S    
O103  S5    D    
C37   F13   S    
O99   S4    D    
C10   H2    S    
C14   S5    S    
Cr1   O53   S    
C41   C71   S    
C40   O35   A    
C42   O38   A    
O62   S1    D    
C39   F15   S    
Cr5   O54   S    
Cr6   O29   S    
C43   O43   A    
C67   C84   A    
O70   S14   D    
C54   O45   A    
Cr12  O22   S    
C4    C56   A    
O72   S15   D    
C53   O1    A    
O95   S3    D    
C6    C54   S    
O85   S19   D    
O110  S7    S    
C57   O47   A    
C19   F2    S    
Cr3   O24   S    
C33   S18   S    
C77   C79   A    
O11   S11   D    
Cr11  O61   S    
O76   S16   D    
C81   F9    S    
O64   S1    S    
O63   S1    D    
C52   H31   S    
C28   S10   S    
C66   O18   A    
C57   O48   A    
O66   S12   D    
Cr2   O23   S    
C66   O49   A    
C84   H32   S    
C7    H7    S    
O16   S13   S    
O86   S19   D    
O89   S20   D    
C50   H12   S    
C35   C70   S    
H18   O90   S    
Cr9   O37   S    
O92   S2    D    
C44   S1    S    
C21   F4    S    
C78   C79   A    
C60   O60   A    
C47   C51   S    
Cr6   O51   S    
C58   O57   A    
H25   O110  S    
C4    H35   S    
H19   O94   S    
O71   S14   S    
C17   C21   S    
O10   S11   D    
Cr7   O26   S    
C5    H5    S    
C25   C64   S    
C29   S11   S    
C56   S2    S    
C9    C14   D    
C48   S15   S    
C63   O2    A    
C29   C30   S    
C2    C78   A    
Cr8   O31   S    
C26   F7    S    
C22   C62   S    
Cr7   O47   S    
C11   C16   D    
C42   O42   A    
H29   O12   S    
Cr3   O20   S    
C43   O39   A    
O4    S9    D    
C16   C20   S    
C45   S20   S    
C32   C50   D    
C8    C21   D    
O94   S2    S    
O104  S5    S    
C41   O37   A    
C72   C76   A    
Cr11  O34   S    
O96   S3    D    
C61   O61   A    
C37   C60   S    
O79   S17   D    
Cr5   O23   S    
C38   C47   D    
C42   C74   S    
C30   S13   S    
Cr3   O42   S    
C7    C55   S    
H26   O3    S    
Cr1   O49   S    
C27   S9    S    
O108  S7    D    
O82   S18   D    
Cr4   O17   S    
C24   C63   S    
C74   C79   A    
C9    C34   S    
C10   C23   S    
O77   S16   S    
Cr12  O18   S    
C34   O30   A    
H14   O77   S    
C38   F14   S    
Cr4   O43   S    
C36   C61   S    
O97   S3    S    
C64   O80   A    
O7    S10   D    
O98   S4    D    
C8    H8    S    
O106  S6    D    
Cr6   O55   S    
O15   S13   D    
C59   O59   A    
C25   C30   D    
H28   O9    S    
H11   O71   S    
C1    O27   A    
Cr2   O41   S    
C46   S12   S    
Cr4   O21   S    
C40   C72   S    
O83   S18   D    
C12   O32   A    
O88   S20   D    
C26   C65   S    
C78   S4    S    
C14   C18   S    
Cr11  O26   S    
O5    S9    D    
Cr2   O19   S    
Cr10  O38   S    
Cr3   O46   S    
Cr6   O36   S    
C80   C81   A    
Cr8   O35   S    
C22   F6    S    
C67   S3    S    
C11   C12   S    
C25   F8    S    
C16   S7    S    
C40   O40   A    
O107  S6    S    
C33   C69   S    
O105  S6    D    
C33   C51   D    
C46   C50   S    
C9    H36   S    
Cr1   O22   S    
H27   O6    S    
C13   C17   D    
Cr12  O102  S    
C45   C75   A    
O87   S19   S    
Cr10  O80   S    
C63   O69   A    
C5    C53   S    
C69   O20   A    
C3    C45   A    
C72   C80   A    
O93   S2    D    
C32   C68   S    
C71   C75   A    
C1    O31   A    
C59   O54   A    
Cr12  O44   S    
C64   O13   A    
C12   O28   A    
C5    C18   D    
O9    S10   S    
C39   C58   S    
O65   S12   D    
O81   S17   S    
Cr11  O91   S    
Cr1   O27   S    
O100  S4    S    
C83   F11   S    
C34   O34   A    
C82   F10   S    
C53   O44   A    
Cr1   O1    S    
C23   O29   A    
C13   H4    S    
C36   C44   D    
H21   O100  S    
C41   O41   A    
C38   C59   S    
C68   O19   A    
O3    S8    S    
C62   O102  A    
C55   O46   A    
C1    C13   S    
Cr3   O13   S    
C3    H34   S    
H16   O84   S    
C7    C20   D    
Cr5   O50   S    
Cr6   O24   S    
C27   C28   S    
C69   O51   A    
O68   S14   D    
C65   O91   A    
C22   C28   D    
Cr5   O28   S    
Cr7   O52   S    
C37   C46   D    
C48   C52   S    
C62   O58   A    
C73   C83   A    
C74   C82   A    
C32   S17   S    
C3    C4    A    
C6    H6    S    
C39   C48   D    
C71   C81   A    
Cr9   O59   S    
