data_mof_unit_64966.cif
_audit_creation_date              2012-12-10T20:43:25-0500
_audit_creation_method            fapswitch 2.2
_symmetry_space_group_name_H-M    P1
_symmetry_Int_Tables_number       1
_space_group_crystal_system       triclinic
_cell_length_a                    19.358581
_cell_length_b                    18.935027
_cell_length_c                    18.946016
_cell_angle_alpha                 108.435369
_cell_angle_beta                  109.716238
_cell_angle_gamma                 109.387332
_cell_volume                      5402.47472814

loop_
_atom_site_label
_atom_site_type_symbol
_atom_type_description
_atom_site_fract_x
_atom_site_fract_y
_atom_site_fract_z
_atom_type_partial_charge
C1    C     C_R   0.383624 0.505166 0.380551 0.929278
C2    C     C_R   0.869448 0.903200 0.842781 0.279604
C3    C     C_R   0.982424 0.878071 0.071986 0.348251
C4    C     C_R   0.963205 0.805965 0.084040 0.143406
C5    C     C_R   0.029028 0.793749 0.129468 -0.101839
C6    C     C_R   0.299854 0.452368 0.024344 0.137982
C7    C     C_R   0.222169 0.426499 0.955496 0.099896
C8    C     C_R   0.152989 0.344156 0.917585 -0.129085
C9    C     C_R   0.165813 0.285946 0.945814 0.070982
C10   C     C_R   0.243450 0.312788 0.015695 0.117230
C11   C     C_R   0.308643 0.397203 0.057210 0.262559
C12   C     C_R   0.079887 0.254742 0.761093 0.175307
C13   C     C_R   0.816113 0.825406 0.573003 0.158693
C14   C     C_R   0.004085 0.194699 0.684226 -0.168268
C15   C     C_R   0.931193 0.203821 0.671045 0.038656
C16   C     C_R   0.932896 0.265408 0.737685 0.178957
C17   C     C_R   0.005756 0.315793 0.818738 -0.162633
C18   C     C_R   0.079322 0.308397 0.831488 0.026719
C19   C     C_R   0.834511 0.156207 0.517241 0.407736
C20   C     C_R   0.765417 0.090664 0.437264 0.353927
C21   C     C_R   0.715023 0.013394 0.429759 -0.308795
C22   C     C_R   0.729087 0.003720 0.502474 0.169219
C23   C     C_R   0.792656 0.071178 0.583557 0.146216
C24   C     C_R   0.811588 0.811797 0.494216 -0.157570
C25   C     C_R   0.850566 0.144552 0.590084 -0.129089
C26   C     C_R   0.738796 0.741528 0.416494 -0.011904
C27   C     C_R   0.692827 0.671989 0.424128 0.172807
C28   C     C_R   0.692478 0.685237 0.502853 -0.152456
C29   C     C_R   0.756217 0.763796 0.578801 0.073125
C30   C     C_R   0.618003 0.741363 0.301818 0.143531
C31   C     C_R   0.597827 0.781742 0.252293 0.275398
C32   C     C_R   0.654589 0.823723 0.230348 0.037261
C33   C     C_R   0.623352 0.619874 0.502714 0.879767
C34   C     C_R   0.727355 0.817494 0.249467 0.293656
C35   C     C_R   0.744983 0.774107 0.295105 0.079618
C36   C     C_R   0.699399 0.748979 0.335213 -0.062013
C37   C     C_R   0.438632 0.792060 0.534897 0.303129
C38   C     C_R   0.387353 0.704866 0.474692 0.103721
C39   C     C_R   0.377099 0.674250 0.391580 -0.147993
C40   C     C_R   0.405715 0.736314 0.365744 0.312985
C41   C     C_R   0.455310 0.824057 0.425434 0.121248
C42   C     C_R   0.476572 0.851024 0.511525 0.267731
C43   C     C_R   0.238966 0.576509 0.264445 0.261836
C44   C     C_R   0.617833 0.498232 0.620533 0.900399
C45   C     C_R   0.178598 0.498571 0.193081 -0.218047
C46   C     C_R   0.164991 0.425823 0.204818 -0.029275
C47   C     C_R   0.235047 0.428529 0.264374 0.368260
C48   C     C_R   0.312655 0.506182 0.318244 -0.179989
C49   C     C_R   0.311284 0.583883 0.324112 0.045776
C50   C     C_R   0.039583 0.397665 0.226159 0.350123
C51   C     C_R   0.951605 0.354767 0.191138 0.331217
C52   C     C_R   0.900353 0.284511 0.108383 0.016169
C53   C     C_R   0.938134 0.251416 0.065408 0.091619
C54   C     C_R   0.026367 0.288592 0.105936 0.113826
C55   C     C_R   0.376772 0.380812 0.497192 0.961385
C56   C     C_R   0.077329 0.366837 0.181391 -0.054455
C57   C     C_R   0.291503 0.549361 0.652330 0.097704
C58   C     C_R   0.300248 0.476731 0.622038 0.352938
C59   C     C_R   0.243559 0.409341 0.537312 -0.105366
C60   C     C_R   0.171161 0.410568 0.487046 0.114850
C61   C     C_R   0.155769 0.477262 0.523202 0.173816
C62   C     C_R   0.218742 0.549589 0.602870 0.058097
C63   C     C_R   0.184816 0.261886 0.513822 0.161928
C64   C     C_R   0.186547 0.185834 0.499457 -0.150470
C65   C     C_R   0.260836 0.183785 0.505978 0.011772
C66   C     C_R   0.784840 0.878959 0.796587 0.322344
C67   C     C_R   0.320464 0.246421 0.501649 0.378993
C68   C     C_R   0.310739 0.316065 0.499644 -0.151400
C69   C     C_R   0.245485 0.327348 0.512605 0.046384
C70   C     C_R   0.320233 0.164802 0.632108 0.364942
C71   C     C_R   0.349602 0.121710 0.671631 0.075696
C72   C     C_R   0.355662 0.052455 0.623930 0.088142
C73   C     C_R   0.329835 0.025708 0.536353 0.113207
C74   C     C_R   0.296146 0.066494 0.496238 0.153599
C75   C     C_R   0.289781 0.134883 0.543927 -0.083210
C76   C     C_R   0.601988 0.634763 0.872577 0.382013
C77   C     C_R   0.739522 0.822623 0.708242 0.095509
C78   C     C_R   0.641266 0.609960 0.826928 0.159349
C79   C     C_R   0.622584 0.523666 0.788423 -0.100844
C80   C     C_R   0.564556 0.463167 0.797644 0.182695
C81   C     C_R   0.533614 0.491724 0.852176 0.233425
C82   C     C_R   0.550141 0.576118 0.886406 -0.231376
C83   C     C_R   0.746334 0.501995 0.825462 0.141611
C84   C     C_R   0.816803 0.506541 0.816842 -0.138049
C85   C     C_R   0.827403 0.520838 0.751092 0.058077
C86   C     C_R   0.758988 0.511274 0.683699 0.197152
C87   C     C_R   0.685633 0.501290 0.688928 -0.165908
C88   C     C_R   0.775195 0.781198 0.668161 -0.144927
C89   C     C_R   0.682674 0.504568 0.764130 0.018408
C90   C     C_R   0.972561 0.644815 0.823950 0.358796
C91   C     C_R   0.058512 0.676784 0.849120 0.107310
C92   C     C_R   0.085741 0.624838 0.808882 0.034998
C93   C     C_R   0.026492 0.540343 0.743195 0.118995
C94   C     C_R   0.940355 0.507916 0.718266 0.309878
C95   C     C_R   0.913425 0.558851 0.760943 -0.104855
C96   C     C_R   0.994979 0.874026 0.381459 0.926580
C97   C     C_R   0.880047 0.876492 0.495739 0.873348
C98   C     C_R   0.001379 0.122404 0.619720 0.915461
C99   C     C_R   0.853467 0.791028 0.721589 0.295341
C100  C     C_R   0.119704 0.117627 0.497356 0.947840
C101  C     C_R   0.005187 0.380474 0.885553 0.880681
C102  C     C_R   0.118192 0.498174 0.120235 0.898912
C103  C     C_R   0.999620 0.620615 0.119051 0.960514
C104  C     C_R   0.881108 0.501371 0.880306 0.910956
C105  C     C_R   0.039246 0.738656 0.534027 0.281421
C106  C     C_R   0.045886 0.756004 0.469523 0.131645
C107  C     C_R   0.979318 0.705855 0.383987 -0.133223
C108  C     C_R   0.911472 0.626629 0.361891 0.178360
C109  C     C_R   0.909875 0.605880 0.426886 0.274738
C110  C     C_R   0.903632 0.857601 0.806879 0.146817
C111  C     C_R   0.973936 0.661531 0.512185 0.117097
C112  C     C_R   0.998544 0.673268 0.255772 0.387793
C113  C     C_R   0.005313 0.688509 0.189684 -0.215651
C114  C     C_R   0.021305 0.769490 0.195161 -0.026268
C115  C     C_R   0.021020 0.829541 0.261761 0.348620
C116  C     C_R   0.999752 0.808264 0.318597 -0.179447
C117  C     C_R   0.990494 0.729251 0.317829 -0.016514
C118  C     C_R   0.110630 0.841960 0.143190 0.119072
C119  C     C_R   0.128553 0.911425 0.126490 0.279698
C120  C     C_R   0.065667 0.932197 0.095836 0.300541
H1    H     H_    0.525196 0.597222 0.927131 0.218655
H2    H     H_    0.664638 0.961008 0.367496 0.218947
O1    O     O_R   0.408360 0.551710 0.460090 -0.622097
O2    O     O_R   0.948280 0.908380 0.356650 -0.521885
O3    O     O_R   0.960110 0.908350 0.551690 -0.579744
O4    O     O_R   0.856660 0.908370 0.448270 -0.648015
O5    O     O_R   0.051720 0.091580 0.643310 -0.569529
O6    O     O_R   0.948270 0.091600 0.539890 -0.631651
O7    O     O_R   0.143340 0.091590 0.551680 -0.623057
O8    O     O_R   0.039890 0.091610 0.448270 -0.555316
O9    O     O_R   0.051730 0.460050 0.908360 -0.608887
O10   O     O_R   0.948290 0.356630 0.908390 -0.602562
O11   O     O_R   0.143340 0.551690 0.091580 -0.565347
O12   O     O_R   0.408400 0.448280 0.356670 -0.548663
O13   O     O_R   0.039900 0.448270 0.091610 -0.648947
O14   O     O_R   0.051710 0.643320 0.091560 -0.603715
O15   O     O_R   0.948270 0.539900 0.091590 -0.562956
O16   O     O_R   0.960100 0.551680 0.908340 -0.644164
O17   O     O_R   0.856660 0.448270 0.908370 -0.579080
O18   O     O_R   0.591600 0.643340 0.551710 -0.607538
O19   O     O_R   0.591630 0.539900 0.448290 -0.585787
O20   O     O_R   0.591600 0.551720 0.643330 -0.617534
O21   O     O_R   0.591640 0.448290 0.539910 -0.573855
O22   O     O_R   0.408370 0.460100 0.551710 -0.608858
O23   O     O_R   0.408400 0.356660 0.448290 -0.544764
O24   O     O_R   0.051730 0.908360 0.460060 -0.631052
Zn1   Zn    Zn3+2 0.499980 0.569060 0.569060 1.091571
Zn2   Zn    Zn3+2 0.500020 0.430940 0.430940 1.212116
Zn3   Zn    Zn3+2 0.069070 0.999960 0.569030 1.112106
Zn4   Zn    Zn3+2 0.930930 0.999990 0.430930 1.126852
Zn5   Zn    Zn3+2 0.069070 0.569030 0.999960 1.084494
Zn6   Zn    Zn3+2 0.930930 0.430930 0.000000 1.087835
Cl1   Cl    Cl    0.934856 0.000912 0.937465 -0.355417
I1    I     I_    0.623980 0.884250 0.155174 0.121445
Cl2   Cl    Cl    0.792272 0.858047 0.209366 -0.396315
I2    I     I_    0.795526 0.701985 0.254485 -0.251853
Cl3   Cl    Cl    0.545361 0.960015 0.589165 -0.398382
Cl4   Cl    Cl    0.453424 0.827783 0.639841 -0.380916
I3    I     I_    0.305871 0.627092 0.502587 -0.135643
Cl5   Cl    Cl    0.365817 0.706099 0.255468 -0.439695
I4    I     I_    0.487757 0.917416 0.383448 0.034428
I5    I     I_    0.205792 0.675538 0.295685 -0.123431
Cl6   Cl    Cl    0.222375 0.340138 0.282653 -0.518934
Cl7   Cl    Cl    0.738498 0.925001 0.849203 -0.314271
Cl8   Cl    Cl    0.103515 0.489709 0.326806 -0.482695
Cl9   Cl    Cl    0.905112 0.390184 0.249587 -0.362691
I6    I     I_    0.766320 0.227987 0.050546 0.038608
I7    I     I_    0.863763 0.153047 0.936136 0.009215
I8    I     I_    0.082696 0.218191 0.069407 -0.012421
I9    I     I_    0.208081 0.662673 0.642713 -0.021391
I10   I     I_    0.387820 0.656755 0.774498 0.000311
Cl10  Cl    Cl    0.376395 0.465602 0.694027 -0.547130
I11   I     I_    0.078252 0.303625 0.362151 -0.064469
I12   I     I_    0.032951 0.462933 0.466244 0.074184
I13   I     I_    0.628683 0.820825 0.639010 -0.079626
I14   I     I_    0.106550 0.286544 0.565091 -0.145286
Cl11  Cl    Cl    0.416119 0.245798 0.515841 -0.507716
Cl12  Cl    Cl    0.325622 0.260236 0.693192 -0.492903
I15   I     I_    0.383794 0.162461 0.803247 -0.021905
I16   I     I_    0.406959 0.992011 0.686507 0.055351
I17   I     I_    0.339778 0.923854 0.462431 -0.116841
I18   I     I_    0.263082 0.033270 0.366483 -0.047002
Cl13  Cl    Cl    0.624020 0.741424 0.922240 -0.385003
I19   I     I_    0.739286 0.706346 0.829840 -0.148148
Cl14  Cl    Cl    0.900629 0.741403 0.675215 -0.519893
I20   I     I_    0.538927 0.333745 0.743486 -0.118298
I21   I     I_    0.475102 0.418519 0.900230 -0.041068
I22   I     I_    0.743088 0.505710 0.940455 -0.205578
I23   I     I_    0.770412 0.522430 0.578497 -0.037427
Cl15  Cl    Cl    0.939850 0.709360 0.878376 -0.611482
I24   I     I_    0.148987 0.800898 0.954120 -0.038627
I25   I     I_    0.216672 0.677067 0.846542 -0.055000
I26   I     I_    0.066245 0.461769 0.680000 -0.092361
Cl16  Cl    Cl    0.865716 0.405438 0.630272 -0.436074
I27   I     I_    0.984861 0.621085 0.605506 -0.026073
I28   I     I_    0.036599 0.907216 0.871169 0.061913
Cl17  Cl    Cl    0.116512 0.811779 0.642587 -0.433463
I29   I     I_    0.168819 0.835174 0.498271 -0.141585
I30   I     I_    0.817273 0.525564 0.231823 0.020868
Cl18  Cl    Cl    0.829574 0.507525 0.401687 -0.378178
Cl19  Cl    Cl    0.011390 0.588748 0.267705 -0.478357
Cl20  Cl    Cl    0.046602 0.933985 0.274027 -0.552141
I31   I     I_    0.211486 0.820211 0.200067 -0.022777
Cl21  Cl    Cl    0.232395 0.979460 0.153177 -0.366494
Cl22  Cl    Cl    0.094433 0.031794 0.098043 -0.311632
Cl23  Cl    Cl    0.905814 0.909980 0.045104 -0.307732
I32   I     I_    0.908056 0.949066 0.682654 -0.212806
I33   I     I_    0.839908 0.735208 0.062981 -0.074428
Cl24  Cl    Cl    0.404887 0.431399 0.146059 -0.470189
I34   I     I_    0.410255 0.566332 0.066887 -0.032552
I35   I     I_    0.216713 0.503617 0.895901 -0.134297
I36   I     I_    0.075577 0.152227 0.870220 -0.134788
I37   I     I_    0.270658 0.223711 0.050500 0.062264
I38   I     I_    0.198402 0.266200 0.775565 -0.114060
I39   I     I_    0.820898 0.276436 0.716510 -0.116021
Cl25  Cl    Cl    0.901506 0.250647 0.524663 -0.394972
Cl26  Cl    Cl    0.743483 0.102163 0.344881 -0.389036
I40   I     I_    0.641031 0.548859 0.317854 -0.032466
I41   I     I_    0.662190 0.884055 0.487733 -0.295565
I42   I     I_    0.795553 0.065545 0.695513 -0.107805
I43   I     I_    0.521459 0.660387 0.314368 -0.182554
Cl27  Cl    Cl    0.502366 0.782212 0.216276 -0.406646

loop_
_geom_bond_atom_site_label_1
_geom_bond_atom_site_label_2
_ccdc_geom_bond_type
C8    C9    A    
C22   I41   S    
C93   C94   A    
C41   I4    S    
C5    C114  S    
C85   C95   S    
C41   C42   A    
O9    Zn5   S    
C35   C36   A    
O11   Zn5   S    
C12   I38   S    
O23   Zn2   S    
C114  C115  A    
C57   C58   A    
C7    C8    A    
C45   C46   A    
C116  C117  A    
C26   C27   A    
C79   C80   A    
C20   Cl26  S    
C120  Cl22  S    
C13   C29   A    
C28   C29   A    
C103  C113  S    
C76   C78   A    
C38   I3    S    
C19   Cl25  S    
C103  O15   A    
C52   I6    S    
C112  C117  A    
C100  O8    A    
C64   C100  S    
C55   O23   A    
C106  C107  A    
C9    I36   S    
C15   C16   A    
C31   Cl27  S    
C115  Cl20  S    
O17   Zn6   S    
C21   H2    S    
C108  C109  A    
C34   C35   A    
C73   C74   A    
C98   O5    A    
C71   I15   S    
C37   C42   A    
C17   C101  S    
C118  C119  A    
C29   C88   S    
O19   Zn2   S    
C68   C69   A    
C83   C84   A    
C77   C88   A    
C16   C17   A    
C65   C67   A    
O8    Zn4   S    
C107  C108  A    
C13   I32   S    
O15   Zn6   S    
C4    I33   S    
C70   C71   A    
C76   Cl13  S    
C50   C56   A    
C9    C10   A    
C74   I18   S    
C82   H1    S    
C101  O10   A    
C106  I29   S    
C47   Cl6   S    
C98   O6    A    
C105  C111  A    
C59   C60   A    
C77   I13   S    
C94   Cl16  S    
C21   C22   A    
C60   I11   S    
C54   I8    S    
C61   C62   A    
C112  Cl19  S    
O22   Zn1   S    
C83   C89   A    
O18   Zn1   S    
C112  C113  A    
C14   C98   S    
C30   I43   S    
C10   I37   S    
O21   Zn2   S    
C62   I9    S    
C54   C56   A    
C74   C75   A    
C96   O2    A    
C51   C52   A    
C47   C48   A    
C63   C69   A    
C63   I14   S    
C38   C39   A    
C35   I2    S    
C72   C73   A    
C97   O3    A    
C67   Cl11  S    
C76   C82   A    
C39   C40   A    
C55   C68   S    
C78   C79   A    
C97   O4    A    
C57   C62   A    
C58   C59   A    
C85   C86   A    
C99   C110  A    
C91   I24   S    
C81   C82   A    
C67   C68   A    
C13   C24   A    
C60   C61   A    
C34   Cl2   S    
C37   Cl4   S    
C16   I39   S    
C58   Cl10  S    
C103  O14   A    
C1    O1    A    
O7    Zn3   S    
C37   C38   A    
O24   Zn3   S    
C73   I17   S    
C53   I7    S    
C31   C32   A    
C14   C15   A    
C45   C102  S    
C50   Cl8   S    
C17   C18   A    
C81   I21   S    
C66   Cl7   S    
C50   C51   A    
C46   C47   A    
C84   C85   A    
C57   I10   S    
C43   C45   A    
C93   I26   S    
O3    Zn3   S    
C59   C69   S    
C32   I1    S    
C101  O9    A    
C26   C36   S    
C40   C41   A    
C39   C49   S    
C12   C14   A    
C28   C33   S    
C2    Cl1   S    
C10   C11   A    
C6    C11   A    
C110  I28   S    
C102  O13   A    
C70   Cl12  S    
C83   I22   S    
C118  I31   S    
C72   I16   S    
C46   C56   S    
C3    C4    A    
C44   C87   S    
C91   C92   A    
O14   Zn5   S    
O12   Zn2   S    
C52   C53   A    
C86   C87   A    
C115  C116  A    
C113  C114  A    
C90   Cl15  S    
O6    Zn4   S    
C66   C77   A    
O2    Zn4   S    
C23   I42   S    
C2    C110  A    
C86   I23   S    
C55   O22   A    
C100  O7    A    
C3    Cl23  S    
O20   Zn1   S    
C40   Cl5   S    
C43   C49   A    
C61   I12   S    
C24   C26   A    
C80   C81   A    
C2    C66   A    
C90   C95   A    
C7    I35   S    
C119  C120  A    
C1    C48   S    
C53   C54   A    
C6    C7    A    
C6    I34   S    
O16   Zn5   S    
C96   O24   A    
C105  C106  A    
C65   C75   S    
C104  O17   A    
C30   C36   A    
C5    C118  A    
C33   O19   A    
C64   C65   A    
C19   C20   A    
C87   C89   A    
O1    Zn1   S    
C102  O11   A    
C71   C72   A    
O5    Zn3   S    
O4    Zn4   S    
C84   C104  S    
C90   C91   A    
C30   C31   A    
C111  I27   S    
C108  I30   S    
C44   O21   A    
C48   C49   A    
C109  C111  A    
C105  Cl17  S    
C92   C93   A    
C99   Cl14  S    
C104  O16   A    
C78   I19   S    
C24   C97   S    
C23   C25   A    
C94   C95   A    
C19   C25   A    
C8    C18   S    
C79   C89   S    
C88   C99   A    
C15   C25   S    
C3    C120  A    
C63   C64   A    
C42   Cl3   S    
C43   I5    S    
C92   I25   S    
C4    C5    A    
C20   C21   A    
C27   I40   S    
C44   O20   A    
C119  Cl21  S    
C12   C18   A    
C70   C75   A    
C80   I20   S    
C22   C23   A    
C96   C116  S    
C109  Cl18  S    
C33   O18   A    
O10   Zn6   S    
O13   Zn6   S    
C107  C117  S    
C11   Cl24  S    
C1    O12   A    
C32   C34   A    
C27   C28   A    
C51   Cl9   S    
