data_mof_unit_28430.cif
_audit_creation_date              2013-03-05T15:50:31-0500
_audit_creation_method            fapswitch 2.2
_symmetry_space_group_name_H-M    P1
_symmetry_Int_Tables_number       1
_space_group_crystal_system       triclinic
_cell_length_a                    19.228809
_cell_length_b                    7.143004
_cell_length_c                    17.658866
_cell_angle_alpha                 89.99772
_cell_angle_beta                  109.048736
_cell_angle_gamma                 89.995413
_cell_volume                      2292.65537713

loop_
_atom_site_label
_atom_site_type_symbol
_atom_site_description
_atom_site_fract_x
_atom_site_fract_y
_atom_site_fract_z
_atom_type_partial_charge
O1    O     O_R   0.562310 0.505770 0.439670 -0.611915
O2    O     O_R   0.437690 0.005770 0.560330 -0.611972
O3    O     O_R   0.411650 0.169150 0.405330 -0.571027
O4    O     O_R   0.588350 0.669150 0.594670 -0.571064
C1    C     C_R   0.384818 0.345531 0.382856 1.009177
C2    C     C_R   0.615179 0.845521 0.617149 1.009185
O5    O     O_R   0.560140 0.175610 0.430010 -0.573152
O6    O     O_R   0.439860 0.675610 0.569990 -0.573235
O7    O     O_R   0.587240 0.012100 0.585200 -0.564426
O8    O     O_R   0.412760 0.512100 0.414800 -0.564359
C3    C     C_R   0.581387 0.344508 0.415377 0.981329
C4    C     C_R   0.418615 0.844515 0.584628 0.981606
O9    O     O_3   0.508720 0.341420 0.550890 -0.276579
O10   O     O_3   0.491280 0.841420 0.449110 -0.276476
V1    V     V_3+5 0.498380 0.063930 0.490560 1.265995
V2    V     V_3+5 0.501620 0.563930 0.509440 1.265978
C5    C     C_R   0.174442 0.766219 0.868211 -0.091037
C6    C     C_R   0.825463 0.266363 0.131677 -0.091098
C7    C     C_R   0.125907 0.917259 0.859632 -0.307428
C8    C     C_R   0.874080 0.417256 0.140352 -0.307245
C9    C     C_R   0.122935 0.057391 0.801421 0.366981
C10   C     C_R   0.877109 0.557263 0.198630 0.366883
C11   C     C_R   0.169757 0.046059 0.753117 -0.214783
C12   C     C_R   0.830318 0.545865 0.246969 -0.214844
C13   C     C_R   0.219859 0.893626 0.765321 0.028457
C14   C     C_R   0.780130 0.393602 0.234669 0.028427
C15   C     C_R   0.220785 0.752694 0.821736 0.140224
C16   C     C_R   0.779084 0.252887 0.178115 0.140113
C17   C     C_R   0.168779 0.180780 0.692981 0.153730
C18   C     C_R   0.831412 0.680359 0.307232 0.154043
C19   C     C_R   0.220472 0.170562 0.652451 0.689603
C20   C     C_R   0.779827 0.669991 0.347895 0.688768
C21   C     C_R   0.270292 0.021558 0.665577 -0.057983
C22   C     C_R   0.729893 0.521214 0.334644 -0.058752
C23   C     C_R   0.268948 0.879979 0.720566 -0.050746
C24   C     C_R   0.731051 0.379946 0.279438 -0.050147
C25   C     C_R   0.316695 0.724098 0.730648 0.009518
C26   C     C_R   0.683114 0.224380 0.269140 0.008943
C27   C     C_R   0.315284 0.583379 0.785665 0.731921
C28   C     C_R   0.684344 0.083959 0.213916 0.731668
C29   C     C_R   0.268218 0.598703 0.831119 -0.326670
C30   C     C_R   0.731465 0.099206 0.168523 -0.326887
C31   C     C_R   0.320140 0.009473 0.622677 -0.017607
C32   C     C_R   0.680086 0.509084 0.377594 -0.017297
C33   C     C_R   0.367573 0.855244 0.632033 -0.209353
C34   C     C_R   0.632439 0.355216 0.367987 -0.208650
C35   C     C_R   0.364911 0.711908 0.685546 -0.056090
C36   C     C_R   0.634876 0.212228 0.314218 -0.057115
H1    H     H_    0.177262 0.659434 0.912770 0.153753
H2    H     H_    0.822595 0.159688 0.087058 0.153438
H3    H     H_    0.320999 0.118627 0.580344 0.181469
H4    H     H_    0.679399 0.617929 0.420135 0.181353
H5    H     H_    0.401297 0.592486 0.692949 0.181421
H6    H     H_    0.598301 0.093119 0.306606 0.181426
H7    H     H_    0.268572 0.488814 0.873578 0.171757
H8    H     H_    0.730966 0.989560 0.125899 0.171784
C37   C     C_3   0.783119 0.704843 0.804230 -0.583533
C38   C     C_3   0.216840 0.204785 0.195849 -0.583611
H9    H     H_    0.824638 0.608215 0.794058 0.271490
H10   H     H_    0.175318 0.108307 0.206097 0.271378
H11   H     H_    0.775520 0.661683 0.861604 0.247944
H12   H     H_    0.224400 0.161421 0.138481 0.248149
C39   C     C_3   0.709531 0.679521 0.734809 0.667124
C40   C     C_3   0.290451 0.179495 0.265243 0.667118
H13   H     H_    0.716676 0.568120 0.694031 0.137421
H14   H     H_    0.283329 0.068143 0.306056 0.137407
H15   H     H_    0.764333 0.798803 0.625754 0.129567
H16   H     H_    0.235634 0.298960 0.374233 0.129484
C41   C     C_3   0.824341 0.962903 0.730661 1.334471
C42   C     C_3   0.175673 0.463148 0.269324 1.334533
C43   C     C_3   0.749663 0.037304 0.821524 0.639910
C44   C     C_3   0.250351 0.537110 0.178419 0.639890
C45   C     C_3   0.812092 0.912025 0.811206 -0.556275
C46   C     C_3   0.187903 0.412014 0.188795 -0.556386
H17   H     H_    0.738569 0.995190 0.877179 0.041489
H18   H     H_    0.261458 0.494749 0.122800 0.041664
C47   C     C_3   0.686879 0.865619 0.687751 -0.475413
C48   C     C_3   0.313116 0.365633 0.312257 -0.475440
C49   C     C_3   0.752768 0.922876 0.658107 -0.094700
C50   C     C_3   0.247229 0.423008 0.341888 -0.094769
C51   C     C_3   0.677911 0.014478 0.748922 -0.370763
C52   C     C_3   0.322088 0.514394 0.251050 -0.370698
H19   H     H_    0.632324 0.972070 0.771113 0.174247
H20   H     H_    0.367697 0.471954 0.228898 0.174257
H21   H     H_    0.661447 0.152298 0.719584 0.258945
H22   H     H_    0.338520 0.652254 0.280350 0.258991
O11   O     O_R   0.087220 0.271820 0.085230 -0.607383
O12   O     O_R   0.912780 0.771820 0.914770 -0.607347
O13   O     O_R   0.939860 0.595540 0.069990 -0.578109
O14   O     O_R   0.060140 0.095540 0.930010 -0.578035
C53   C     C_R   0.920477 0.426709 0.086976 0.994546
C54   C     C_R   0.079519 0.926707 0.913019 0.994657
O15   O     O_R   0.088340 0.601930 0.094680 -0.519018
O16   O     O_R   0.911660 0.101930 0.905320 -0.519118
O17   O     O_R   0.062310 0.765410 0.939660 -0.583576
O18   O     O_R   0.937690 0.265410 0.060340 -0.583613
C55   C     C_R   0.116341 0.431748 0.117549 1.061777
C56   C     C_R   0.883657 0.931759 0.882452 1.061579
O19   O     O_3   0.991270 0.429630 0.949130 -0.253998
O20   O     O_3   0.008730 0.929630 0.050870 -0.254052
V3    V     V_3+5 0.001620 0.707150 0.009440 1.323613
V4    V     V_3+5 0.998380 0.207150 0.990560 1.323600
F1    F     F_    0.655087 0.620396 0.765072 -0.660027
F2    F     F_    0.344873 0.120301 0.234957 -0.659929
F3    F     F_    0.881485 0.855668 0.722096 -0.661806
F4    F     F_    0.118482 0.356187 0.277922 -0.661821
F5    F     F_    0.770360 0.224130 0.829932 -0.645598
F6    F     F_    0.229671 0.723951 0.169884 -0.645589
F7    F     F_    0.845158 0.149100 0.732078 -0.573784
F8    F     F_    0.154942 0.649431 0.267852 -0.573923
N1    N     N_R   0.073025 0.210947 0.792651 0.253728
O21   O     O_R   0.097780 0.373919 0.822080 -0.391707
O22   O     O_R   0.002411 0.181875 0.765400 -0.232274
N2    N     N_R   0.927052 0.710750 0.207443 0.253680
O23   O     O_R   0.997671 0.681486 0.234562 -0.232479
O24   O     O_R   0.902312 0.873889 0.178157 -0.391217
N3    N     N_R   0.734872 0.078802 0.600560 0.292672
O25   O     O_R   0.720288 0.245221 0.621268 -0.349870
O26   O     O_R   0.734547 0.051459 0.527593 -0.301753
N4    N     N_R   0.265142 0.578906 0.399440 0.292655
O27   O     O_R   0.279782 0.745286 0.378748 -0.349971
O28   O     O_R   0.265436 0.551571 0.472397 -0.301681
N5    N     N_R   0.112708 0.321096 0.667290 0.296308
O29   O     O_R   0.045878 0.270912 0.626745 -0.215478
O30   O     O_R   0.131067 0.496330 0.667140 -0.287507
N6    N     N_R   0.887471 0.820673 0.332878 0.296408
O31   O     O_R   0.954310 0.770501 0.373476 -0.215388
O32   O     O_R   0.869088 0.995964 0.332877 -0.287443
F9    F     F_    0.219205 0.302650 0.596550 -0.616282
F10   F     F_    0.781286 0.801747 0.404003 -0.615877
F11   F     F_    0.359765 0.431197 0.795988 -0.702508
F12   F     F_    0.639611 0.932179 0.203310 -0.701966

loop_
_geom_bond_atom_site_label_1
_geom_bond_atom_site_label_2
_geom_bond_distance
_ccdc_geom_bond_type
C38   H12   1.113324 S    
C26   C28   1.404549 A    
C39   H13   1.111419 S    
H16   C50   1.115444 S    
N6    O31   1.301036 A    
C43   F5    1.386671 S    
N1    O21   1.300180 A    
O1    C3    1.322173 A    
C44   H18   1.112976 S    
O2    C4    1.322176 A    
C2    O7    1.350822 A    
C18   N6    1.432894 S    
O12   V3    2.015465 S    
N5    O29   1.300777 A    
C27   C29   1.396244 A    
C36   H6    1.083947 S    
C38   C46   1.571895 S    
C11   C17   1.428623 A    
C23   C25   1.416895 A    
C12   C14   1.422954 A    
O18   V4    1.998019 S    
N3    O26   1.301239 A    
C48   C50   1.574650 S    
C37   H9    1.113355 S    
O16   C56   1.337441 A    
C38   H10   1.113342 S    
C49   N3    1.470783 S    
C6    C8    1.402070 A    
C33   C35   1.405484 A    
C37   C45   1.571945 S    
C48   C52   1.564849 S    
O14   V4    2.004488 S    
C7    C54   1.495955 S    
C42   F8    1.386827 S    
C30   H8    1.084144 S    
C53   O18   1.326601 A    
C41   F7    1.386839 S    
C29   H7    1.083959 S    
C44   F6    1.386651 S    
C32   C34   1.405311 A    
C42   C46   1.558608 S    
C19   C21   1.399692 A    
C41   C45   1.558593 S    
C25   C35   1.408355 A    
C26   C36   1.408376 A    
C35   H5    1.083728 S    
O13   V3    2.004525 S    
C32   H4    1.084214 S    
C28   C30   1.396248 A    
C28   F12   1.358441 S    
O6    V2    2.004681 S    
C20   F10   1.360205 S    
C9    N1    1.432097 S    
N4    O28   1.301238 A    
C37   C39   1.550989 S    
C46   C55   1.538241 S    
C47   C49   1.574641 S    
C38   C40   1.550976 S    
C45   C56   1.538289 S    
C25   C27   1.404310 A    
C8    C53   1.495944 S    
C34   C36   1.405717 A    
C42   C50   1.570494 S    
C5    C15   1.397982 A    
C6    C16   1.398018 A    
C44   C46   1.554901 S    
C42   F4    1.387539 S    
C5    H1    1.084437 S    
C43   C45   1.554885 S    
C41   F3    1.387559 S    
C5    C7    1.401947 A    
C2    C47   1.534230 S    
O5    V1    2.004729 S    
C20   C22   1.399842 A    
C52   H22   1.109329 S    
C54   O17   1.326615 A    
C21   C31   1.405021 A    
O4    V2    1.993307 S    
O5    C3    1.325951 A    
C18   C20   1.403525 A    
O11   V4    2.015559 S    
C15   C29   1.403710 A    
O14   C54   1.325213 A    
C47   C51   1.564887 S    
O6    C4    1.325967 A    
C22   C32   1.405052 A    
N1    O22   1.300741 A    
O1    V2    1.997732 S    
C37   H11   1.113337 S    
O2    V1    1.997745 S    
C31   C33   1.405098 A    
C13   C23   1.418454 A    
C39   F1    1.387507 S    
C8    C10   1.422528 A    
C52   H20   1.112649 S    
C9    C11   1.430403 A    
C10   C12   1.430426 A    
C50   N4    1.470776 S    
C41   C49   1.570513 S    
O4    C2    1.370155 A    
O13   C53   1.325235 A    
O15   V3    1.993131 S    
O15   C55   1.337392 A    
O3    V1    1.993158 S    
N4    O27   1.300898 A    
C6    H2    1.084524 S    
C39   C47   1.552696 S    
C14   C24   1.418504 A    
C40   F2    1.387509 S    
N6    O32   1.301016 A    
C7    C9    1.422464 A    
C40   C48   1.552731 S    
C4    C33   1.485347 S    
O3    C1    1.370117 A    
C51   H19   1.112652 S    
N2    O24   1.300372 A    
N2    O23   1.300946 A    
C13   C15   1.412283 A    
C14   C16   1.412453 A    
C24   C26   1.417141 A    
O7    V1    1.996379 S    
C1    O8    1.350863 A    
C19   F9    1.359963 S    
O8    V2    1.996454 S    
N3    O25   1.300906 A    
C43   H17   1.112991 S    
C31   H3    1.083993 S    
C27   F11   1.358120 S    
C44   C52   1.555388 S    
C17   N5    1.432953 S    
C16   C30   1.403946 A    
O20   V3    1.736161 S    
C21   C23   1.408048 A    
C22   C24   1.408316 A    
C11   C13   1.422827 A    
C12   C18   1.428755 A    
N5    O30   1.300788 A    
O12   C56   1.317466 A    
C10   N2    1.432160 S    
O19   V4    1.736088 S    
O16   V4    1.993277 S    
C17   C19   1.403556 A    
O9    V2    1.736435 S    
O10   V1    1.736508 S    
C3    C34   1.485289 S    
C43   C51   1.555395 S    
C1    C48   1.534209 S    
H15   C49   1.115449 S    
C51   H21   1.109328 S    
O17   V3    1.998041 S    
C40   H14   1.111401 S    
O11   C55   1.317505 A    
