data_mof_unit_44387.cif
_audit_creation_date              2012-12-10T20:27:16-0500
_audit_creation_method            fapswitch 2.2
_symmetry_space_group_name_H-M    P1
_symmetry_Int_Tables_number       1
_space_group_crystal_system       triclinic
_cell_length_a                    10.72871
_cell_length_b                    10.677308
_cell_length_c                    9.883148
_cell_angle_alpha                 90.143668
_cell_angle_beta                  103.652605
_cell_angle_gamma                 90.108424
_cell_volume                      1100.15524108

loop_
_atom_site_label
_atom_site_type_symbol
_atom_type_description
_atom_site_fract_x
_atom_site_fract_y
_atom_site_fract_z
_atom_type_partial_charge
C1    C     C_R   0.503387 0.260031 0.500824 0.876203
C2    C     C_R   0.611161 0.511714 0.100206 -0.140156
C3    C     C_R   0.611186 0.511543 0.956598 -0.135162
C4    C     C_R   0.258839 0.504674 0.442095 0.937617
C5    C     C_R   0.387376 0.499324 0.899687 0.163149
C6    C     C_3   0.283740 0.403460 0.863786 -0.497547
C7    C     C_3   0.282530 0.400865 0.017535 -0.082915
C8    C     C_R   0.503655 0.739989 0.501050 0.874692
C9    C     C_R   0.741299 0.504971 0.557840 0.942355
C10   C     C_2   0.122000 0.522719 0.409271 -0.376937
C11   C     C_2   0.068263 0.562197 0.509984 -0.160431
C12   C     C_R   0.522493 0.128615 0.506497 -0.106150
C13   C     C_2   0.878210 0.524982 0.589982 -0.376881
C14   C     C_2   0.931552 0.559714 0.487128 -0.150138
C15   C     C_R   0.518295 0.064221 0.627659 0.142656
C16   C     C_3   0.320799 0.273433 0.085186 -0.798671
C17   C     C_R   0.550623 0.064611 0.393295 -0.230427
C18   C     C_R   0.550984 0.935104 0.393542 -0.224732
C19   C     C_R   0.523045 0.871493 0.506915 -0.103741
C20   C     C_R   0.518550 0.936516 0.627857 0.135508
C21   C     C_3   0.423182 0.929283 0.716171 -0.477991
C22   C     C_3   0.422925 0.071273 0.716016 -0.494557
C23   C     C_R   0.387249 0.497916 0.041898 0.195713
H1    H     H_    0.875198 0.573769 0.381420 0.175321
H2    H     H_    0.065172 0.501435 0.305219 0.143126
H3    H     H_    0.563919 0.113467 0.301773 0.172306
H4    H     H_    0.564508 0.885841 0.302129 0.172187
H5    H     H_    0.330177 0.887419 0.660265 0.201815
H6    H     H_    0.465307 0.888687 0.820378 0.205880
H7    H     H_    0.329753 0.112140 0.660049 0.199893
H8    H     H_    0.421123 0.248847 0.083779 0.240579
H9    H     H_    0.309625 0.274871 0.193712 0.260203
H10   H     H_    0.255682 0.199800 0.028222 0.224397
H11   H     H_    0.464900 0.112738 0.820160 0.205949
H12   H     H_    0.701276 0.519318 0.176509 0.143146
H13   H     H_    0.701224 0.518958 0.926018 0.148177
H14   H     H_    0.193894 0.442178 0.797910 0.172399
H15   H     H_    0.317045 0.315685 0.822823 0.219270
H16   H     H_    0.191722 0.437830 0.037731 0.160080
H17   H     H_    0.124696 0.584320 0.613887 0.177218
H18   H     H_    0.935208 0.510205 0.695297 0.142257
N1    N     N_R   0.499160 0.499140 0.142600 -0.099168
N2    N     N_R   0.499160 0.499180 0.856960 -0.098647
O1    O     O_R   0.500020 0.316790 0.614700 -0.610537
O2    O     O_R   0.500000 0.316760 0.385350 -0.622954
O3    O     O_R   0.317820 0.500020 0.571850 -0.611851
O4    O     O_R   0.317800 0.499980 0.342510 -0.618815
O5    O     O_R   0.500000 0.683240 0.614650 -0.615581
O6    O     O_R   0.499980 0.683210 0.385300 -0.622559
O7    O     O_R   0.682200 0.500020 0.657490 -0.623721
O8    O     O_R   0.682180 0.499980 0.428150 -0.621146
Zn1   Zn    Zn3+2 0.500010 0.500020 0.653140 0.936908
Zn2   Zn    Zn3+2 0.499990 0.499980 0.346860 0.932413

loop_
_geom_bond_atom_site_label_1
_geom_bond_atom_site_label_2
_ccdc_geom_bond_type
C12   C17   A    
C2    H12   S    
O7    Zn1   S    
C8    O5    A    
C6    C7    S    
C16   H10   S    
C16   H9    S    
C1    O1    A    
C19   C20   A    
C5    C23   A    
C12   C15   A    
O4    Zn2   S    
C3    N2    A    
O1    Zn1   S    
C13   H18   S    
C2    C3    A    
C5    N2    A    
C6    H14   S    
O2    Zn2   S    
C4    O3    A    
C13   C14   D    
C16   H8    S    
C1    C12   S    
C1    O2    A    
C5    C6    S    
C23   N1    A    
C3    H13   S    
C2    N1    A    
O6    Zn2   S    
C17   H3    S    
C10   H2    S    
C7    C16   S    
C21   H5    S    
C17   C18   A    
N1    Zn2   S    
C15   C20   A    
C22   H11   S    
C11   C14   S    
C7    C23   S    
N2    Zn1   S    
C8    C19   S    
C10   C11   D    
C9    O7    A    
C4    C10   S    
C11   H17   S    
O3    Zn1   S    
O5    Zn1   S    
C20   C21   S    
C18   C19   A    
C14   H1    S    
C9    C13   S    
C7    H16   S    
C22   H7    S    
C6    H15   S    
C21   C22   S    
C21   H6    S    
C8    O6    A    
C15   C22   S    
C18   H4    S    
O8    Zn2   S    
C4    O4    A    
C9    O8    A    
