data_mof_unit_40671.cif
_audit_creation_date              2012-12-11T15:07:02-0500
_audit_creation_method            fapswitch 2.2
_symmetry_space_group_name_H-M    P1
_symmetry_Int_Tables_number       1
_space_group_crystal_system       triclinic
_cell_length_a                    19.747888
_cell_length_b                    11.345785
_cell_length_c                    18.717676
_cell_angle_alpha                 89.996627
_cell_angle_beta                  90.116604
_cell_angle_gamma                 89.999324
_cell_volume                      4193.78565914

loop_
_atom_site_label
_atom_site_type_symbol
_atom_type_description
_atom_site_fract_x
_atom_site_fract_y
_atom_site_fract_z
_atom_type_partial_charge
C1    C     C_R   0.761361 0.523475 0.639234 0.532233
C2    C     C_3   0.252929 0.056661 0.563266 0.065074
C3    C     C_R   0.740677 0.035872 0.152399 0.548594
C4    C     C_R   0.775195 0.134400 0.859431 0.579417
C5    C     C_R   0.224752 0.134552 0.140522 0.579309
C6    C     C_R   0.275241 0.634528 0.859470 0.579326
C7    C     C_R   0.724751 0.634554 0.140521 0.579294
C8    C     C_R   0.966221 0.353766 0.854937 0.553494
C9    C     C_R   0.033753 0.353768 0.145076 0.553451
C10   C     C_R   0.466262 0.853759 0.854921 0.553534
C11   C     C_R   0.533724 0.853762 0.145087 0.553450
C12   C     C_3   0.687530 0.131639 0.465319 -0.234650
C13   C     C_3   0.247070 0.556653 0.436735 0.065070
C14   C     C_3   0.312469 0.131643 0.534679 -0.234658
C15   C     C_3   0.187530 0.631638 0.465319 -0.234648
C16   C     C_3   0.812469 0.631643 0.534679 -0.234659
C17   C     C_3   0.692986 0.145058 0.546465 -0.230285
C18   C     C_3   0.307013 0.145061 0.453532 -0.230285
C19   C     C_3   0.192986 0.645058 0.546465 -0.230286
C20   C     C_3   0.807013 0.645061 0.453532 -0.230286
C21   C     C_3   0.756470 0.939460 0.480586 -0.220367
C22   C     C_3   0.243531 0.939466 0.519425 -0.220347
C23   C     C_3   0.256470 0.439460 0.480586 -0.220365
C24   C     C_3   0.752929 0.556661 0.563266 0.065074
C25   C     C_3   0.743531 0.439466 0.519425 -0.220348
C26   C     C_3   0.760254 0.090580 0.574191 0.063932
C27   C     C_3   0.239747 0.090578 0.425809 0.063927
C28   C     C_3   0.260254 0.590580 0.574191 0.063926
C29   C     C_3   0.739747 0.590578 0.425809 0.063927
C30   C     C_3   0.753703 0.958375 0.561887 -0.260184
C31   C     C_3   0.246300 0.958374 0.438124 -0.260200
C32   C     C_3   0.253704 0.458375 0.561887 -0.260185
C33   C     C_R   0.238637 0.523466 0.360768 0.532233
C34   C     C_3   0.746300 0.458374 0.438124 -0.260200
C35   C     C_3   0.822841 0.133611 0.529981 -0.219317
C36   C     C_3   0.177158 0.133613 0.470012 -0.219315
C37   C     C_3   0.322841 0.633611 0.529981 -0.219318
C38   C     C_3   0.677158 0.633613 0.470012 -0.219316
C39   C     C_3   0.004063 0.205235 0.459032 -0.232492
C40   C     C_3   0.995934 0.205236 0.540976 -0.232483
C41   C     C_3   0.504063 0.705235 0.459032 -0.232491
C42   C     C_3   0.495934 0.705236 0.540976 -0.232483
C43   C     C_3   0.064411 0.405764 0.474498 -0.217286
C44   C     C_R   0.261361 0.023475 0.639234 0.532228
C45   C     C_3   0.935588 0.405770 0.525498 -0.217296
C46   C     C_3   0.564411 0.905765 0.474498 -0.217287
C47   C     C_3   0.435588 0.905770 0.525498 -0.217297
C48   C     C_3   0.941898 0.390329 0.444447 -0.259869
C49   C     C_3   0.058101 0.390326 0.555550 -0.259874
C50   C     C_3   0.441898 0.890329 0.444447 -0.259870
C51   C     C_3   0.558101 0.890325 0.555550 -0.259873
C52   C     C_3   0.010588 0.333253 0.430950 0.062100
C53   C     C_3   0.989411 0.333254 0.569051 0.062096
C54   C     C_3   0.510588 0.833253 0.430950 0.062102
C55   C     C_R   0.738637 0.023467 0.360768 0.532238
C56   C     C_3   0.489411 0.833254 0.569051 0.062096
C57   C     C_3   0.813982 0.004363 0.043958 0.100761
C58   C     C_3   0.186009 0.004372 0.956036 0.100804
C59   C     C_3   0.313992 0.504371 0.043969 0.100803
C60   C     C_3   0.686004 0.504364 0.956039 0.100798
C61   C     C_R   0.774249 0.121198 0.649498 0.537312
C62   C     C_R   0.225752 0.121192 0.350501 0.537322
C63   C     C_R   0.274249 0.621198 0.649498 0.537322
C64   C     C_R   0.725753 0.621192 0.350501 0.537322
C65   C     C_3   0.821449 0.028517 0.965236 -0.220527
C66   C     C_3   0.810552 0.130654 0.449036 -0.258360
C67   C     C_3   0.178537 0.028586 0.034747 -0.220546
C68   C     C_3   0.321460 0.528560 0.965252 -0.220541
C69   C     C_3   0.678531 0.528590 0.034749 -0.220545
C70   C     C_3   0.686717 0.035779 0.033502 -0.242177
C71   C     C_3   0.313263 0.035863 0.966490 -0.242169
C72   C     C_3   0.186735 0.535846 0.033516 -0.242167
C73   C     C_3   0.813258 0.535846 0.966491 -0.242147
C74   C     C_3   0.763709 0.201925 0.062957 -0.277030
C75   C     C_3   0.236244 0.201929 0.936944 -0.276958
C76   C     C_3   0.263742 0.701928 0.063034 -0.276977
C77   C     C_3   0.189446 0.130662 0.550958 -0.258372
C78   C     C_3   0.736245 0.701911 0.936940 -0.276968
C79   C     C_3   0.751710 0.071078 0.076134 0.025683
C80   C     C_3   0.248271 0.071091 0.923842 0.025700
C81   C     C_3   0.251726 0.571090 0.076156 0.025697
C82   C     C_3   0.748268 0.571074 0.923843 0.025720
C83   C     C_3   0.762125 0.105197 0.936717 0.045141
C84   C     C_3   0.237833 0.105346 0.063235 0.045074
C85   C     C_3   0.262161 0.605317 0.936757 0.045074
C86   C     C_3   0.737832 0.605344 0.063234 0.045071
C87   C     C_3   0.698021 0.033489 0.950895 0.049974
C88   C     C_3   0.310552 0.630654 0.449036 -0.258360
C89   C     C_3   0.301964 0.033684 0.049091 0.050121
C90   C     C_3   0.198033 0.533651 0.950914 0.050106
C91   C     C_3   0.801963 0.533679 0.049089 0.050154
C92   C     C_3   0.754745 0.221002 0.981631 -0.246913
C93   C     C_3   0.245175 0.221110 0.018253 -0.247067
C94   C     C_3   0.254813 0.721089 0.981722 -0.247022
C95   C     C_3   0.745170 0.721102 0.018247 -0.247103
C96   C     C_3   0.014659 0.478642 0.037040 -0.206971
C97   C     C_3   0.985349 0.478643 0.962952 -0.206977
C98   C     C_3   0.514628 0.978627 0.037052 -0.206989
C99   C     C_3   0.689446 0.630662 0.550958 -0.258372
C100  C     C_3   0.485343 0.978626 0.962955 -0.206912
C101  C     C_3   0.063665 0.275497 0.024891 -0.233758
C102  C     C_3   0.936282 0.275584 0.975170 -0.233806
C103  C     C_3   0.563658 0.775505 0.024906 -0.233727
C104  C     C_3   0.436297 0.775526 0.975127 -0.233763
C105  C     C_3   0.942804 0.302117 0.056195 -0.256246
C106  C     C_3   0.057160 0.302034 0.943859 -0.256214
C107  C     C_3   0.442774 0.802091 0.056161 -0.256287
C108  C     C_3   0.557183 0.802044 0.943870 -0.256257
C109  C     C_R   0.968970 0.342203 0.645008 0.540426
C110  C     C_3   0.747070 0.056653 0.436735 0.065069
C111  C     C_R   0.031029 0.342201 0.354992 0.540414
C112  C     C_R   0.468970 0.842203 0.645008 0.540427
C113  C     C_R   0.531029 0.842201 0.354992 0.540405
C114  C     C_3   0.013415 0.352674 0.068655 0.033039
C115  C     C_3   0.986559 0.352666 0.931371 0.032979
C116  C     C_3   0.513384 0.852661 0.068660 0.033053
C117  C     C_3   0.486581 0.852651 0.931359 0.033072
C118  C     C_R   0.759323 0.535849 0.847599 0.548595
C119  C     C_R   0.240679 0.535866 0.152404 0.548575
C120  C     C_R   0.259322 0.035858 0.847597 0.548577
Cl1   Cl    Cl    0.894341 0.016876 0.088350 -0.618490
Cl2   Cl    Cl    0.105648 0.016811 0.911639 -0.618409
Cl3   Cl    Cl    0.394354 0.516836 0.088363 -0.618457
Cl4   Cl    Cl    0.605644 0.516799 0.911634 -0.618491
Cl5   Cl    Cl    0.628336 0.094478 0.902303 -0.664642
Cl6   Cl    Cl    0.371651 0.094814 0.097610 -0.664447
Cl7   Cl    Cl    0.128342 0.594750 0.902390 -0.664468
Cl8   Cl    Cl    0.871660 0.594818 0.097590 -0.664435
Cr1   Cr    Cr6+3 0.885690 0.492860 0.745310 1.024572
Cr2   Cr    Cr6+3 0.111880 0.178590 0.246990 1.034614
Cr3   Cr    Cr6+3 0.388120 0.678590 0.753010 1.034627
Cr4   Cr    Cr6+3 0.611880 0.678590 0.246990 1.034616
Cr5   Cr    Cr6+3 0.114310 0.492860 0.254690 1.024564
Cr6   Cr    Cr6+3 0.385690 0.992860 0.745310 1.024582
Cr7   Cr    Cr6+3 0.614310 0.992860 0.254690 1.024573
Cr8   Cr    Cr6+3 0.729880 0.332270 0.748190 1.085800
Cr9   Cr    Cr6+3 0.270120 0.332270 0.251810 1.085828
Cr10  Cr    Cr6+3 0.229880 0.832270 0.748190 1.085829
Cr11  Cr    Cr6+3 0.770120 0.832270 0.251810 1.085822
Cr12  Cr    Cr6+3 0.888120 0.178590 0.753010 1.034643
H1    H     H_    0.638851 0.094355 0.450671 0.132335
H2    H     H_    0.191392 0.908940 0.530530 0.127326
H3    H     H_    0.885142 0.286462 0.955961 0.107099
H4    H     H_    0.596337 0.865080 0.926588 0.167193
H5    H     H_    0.403635 0.865171 0.073426 0.167018
H6    H     H_    0.096305 0.365065 0.926555 0.167029
H7    H     H_    0.903677 0.365189 0.073497 0.167065
H8    H     H_    0.936864 0.222939 0.088884 0.202025
H9    H     H_    0.063077 0.222844 0.911191 0.202063
H10   H     H_    0.436822 0.722928 0.088856 0.202003
H11   H     H_    0.563118 0.722853 0.911199 0.202014
H12   H     H_    0.950641 0.182546 0.966296 0.184381
H13   H     H_    0.308608 0.408931 0.469482 0.127317
H14   H     H_    0.049237 0.182483 0.033771 0.184403
H15   H     H_    0.450707 0.682500 0.966276 0.184371
H16   H     H_    0.549234 0.682485 0.033780 0.184376
H17   H     H_    0.649237 0.101531 0.572405 0.113560
H18   H     H_    0.350764 0.101536 0.427596 0.113551
H19   H     H_    0.149237 0.601531 0.572405 0.113556
H20   H     H_    0.850764 0.601536 0.427596 0.113550
H21   H     H_    0.721888 0.869752 0.463818 0.106391
H22   H     H_    0.278111 0.869756 0.536202 0.106397
H23   H     H_    0.221888 0.369752 0.463818 0.106391
H24   H     H_    0.691392 0.408940 0.530530 0.127326
H25   H     H_    0.778111 0.369757 0.536202 0.106398
H26   H     H_    0.705664 0.924375 0.584441 0.108744
H27   H     H_    0.294341 0.924376 0.415575 0.108737
H28   H     H_    0.205664 0.424375 0.584441 0.108739
H29   H     H_    0.794341 0.424376 0.415575 0.108737
H30   H     H_    0.854746 0.090723 0.421558 0.128801
H31   H     H_    0.145252 0.090733 0.578439 0.128799
H32   H     H_    0.354746 0.590723 0.421558 0.128800
H33   H     H_    0.645252 0.590733 0.578439 0.128800
H34   H     H_    0.803982 0.220826 0.427461 0.106834
H35   H     H_    0.795768 0.910443 0.588644 0.124345
H36   H     H_    0.196016 0.220835 0.572524 0.106831
H37   H     H_    0.303982 0.720826 0.427461 0.106833
H38   H     H_    0.696016 0.720835 0.572524 0.106833
H39   H     H_    0.841305 0.219644 0.547639 0.109240
H40   H     H_    0.158695 0.219644 0.452344 0.109249
H41   H     H_    0.341305 0.719644 0.547639 0.109239
H42   H     H_    0.658695 0.719644 0.452344 0.109249
H43   H     H_    0.204238 0.910441 0.411369 0.124337
H44   H     H_    0.295768 0.410443 0.588644 0.124345
H45   H     H_    0.704238 0.410441 0.411369 0.124338
H46   H     H_    0.046802 0.151555 0.442726 0.131533
H47   H     H_    0.953195 0.151559 0.557286 0.131542
H48   H     H_    0.546802 0.651555 0.442726 0.131534
H49   H     H_    0.361148 0.094358 0.549329 0.132342
H50   H     H_    0.453195 0.651559 0.557286 0.131542
H51   H     H_    0.959892 0.161324 0.434065 0.112438
H52   H     H_    0.040105 0.161322 0.565947 0.112442
H53   H     H_    0.459892 0.661324 0.434065 0.112438
H54   H     H_    0.540105 0.661322 0.565947 0.112443
H55   H     H_    0.616119 0.890262 0.456212 0.109024
H56   H     H_    0.383881 0.890268 0.543786 0.109025
H57   H     H_    0.116118 0.390262 0.456212 0.109024
H58   H     H_    0.883881 0.390268 0.543786 0.109025
H59   H     H_    0.599715 0.835019 0.576842 0.108080
H60   H     H_    0.138851 0.594355 0.450671 0.132335
H61   H     H_    0.400284 0.835024 0.423159 0.108072
H62   H     H_    0.099715 0.335019 0.576842 0.108077
H63   H     H_    0.900284 0.335024 0.423159 0.108073
H64   H     H_    0.938582 0.477372 0.417515 0.128543
H65   H     H_    0.061418 0.477369 0.582476 0.128538
H66   H     H_    0.438582 0.977372 0.417515 0.128543
H67   H     H_    0.561418 0.977369 0.582476 0.128543
H68   H     H_    0.947446 0.499606 0.535948 0.131646
H69   H     H_    0.052554 0.499601 0.464043 0.131655
H70   H     H_    0.447446 0.999606 0.535948 0.131646
H71   H     H_    0.861148 0.594358 0.549329 0.132342
H72   H     H_    0.552554 0.999601 0.464043 0.131656
H73   H     H_    0.803340 0.913063 0.050929 0.159979
H74   H     H_    0.196670 0.913076 0.949105 0.159878
H75   H     H_    0.303337 0.413072 0.050922 0.159939
H76   H     H_    0.696658 0.413064 0.949125 0.159798
H77   H     H_    0.687619 0.219758 0.439863 0.110178
H78   H     H_    0.312380 0.219763 0.560128 0.110171
H79   H     H_    0.187619 0.719758 0.439863 0.110177
H80   H     H_    0.812380 0.719763 0.560128 0.110171
H81   H     H_    0.869906 0.071293 0.955234 0.189468
H82   H     H_    0.863455 0.068512 0.540409 0.128479
H83   H     H_    0.130068 0.071321 0.044736 0.189416
H84   H     H_    0.369932 0.571277 0.955246 0.189438
H85   H     H_    0.630064 0.571337 0.044733 0.189404
H86   H     H_    0.823962 0.943218 0.935918 0.113406
H87   H     H_    0.176056 0.943309 0.064094 0.113435
H88   H     H_    0.323933 0.443273 0.935919 0.113388
H89   H     H_    0.676045 0.443317 0.064102 0.113440
H90   H     H_    0.666609 0.951975 0.052781 0.084820
H91   H     H_    0.333359 0.952022 0.947272 0.084738
H92   H     H_    0.166637 0.452012 0.052753 0.084751
H93   H     H_    0.136546 0.068511 0.459589 0.128479
H94   H     H_    0.833351 0.452000 0.947285 0.084694
H95   H     H_    0.704676 0.941608 0.932159 0.115239
H96   H     H_    0.295343 0.941825 0.067885 0.115234
H97   H     H_    0.204657 0.441792 0.932131 0.115277
H98   H     H_    0.795344 0.441817 0.067884 0.115215
H99   H     H_    0.726633 0.255989 0.093315 0.113590
H100  H     H_    0.273318 0.255980 0.906571 0.113601
H101  H     H_    0.226663 0.755979 0.093397 0.113596
H102  H     H_    0.773322 0.755954 0.906568 0.113596
H103  H     H_    0.814878 0.228086 0.080738 0.162523
H104  H     H_    0.363455 0.568511 0.540409 0.128478
H105  H     H_    0.185077 0.228040 0.919128 0.162568
H106  H     H_    0.314904 0.728050 0.080850 0.162534
H107  H     H_    0.685082 0.728018 0.919116 0.162568
H108  H     H_    0.783677 0.293820 0.960991 0.076719
H109  H     H_    0.216190 0.293925 0.038782 0.076604
H110  H     H_    0.283792 0.793905 0.961178 0.076619
H111  H     H_    0.716171 0.793903 0.038761 0.076619
H112  H     H_    0.701341 0.246667 0.976157 0.194103
H113  H     H_    0.298567 0.246827 0.023705 0.194018
H114  H     H_    0.201419 0.746795 0.976259 0.194057
H115  H     H_    0.636546 0.568511 0.459589 0.128479
H116  H     H_    0.798559 0.746829 0.023701 0.194011
H117  H     H_    0.649220 0.105583 0.046553 0.176738
H118  H     H_    0.350762 0.105642 0.953396 0.176801
H119  H     H_    0.149234 0.605626 0.046604 0.176799
H120  H     H_    0.850755 0.605624 0.953388 0.176810
H121  H     H_    0.688009 0.237202 0.561740 0.138123
H122  H     H_    0.311988 0.237206 0.438251 0.138138
H123  H     H_    0.188009 0.737202 0.561740 0.138121
H124  H     H_    0.811988 0.737206 0.438251 0.138138
H125  H     H_    0.065604 0.506373 0.031370 0.151573
H126  H     H_    0.808608 0.908931 0.469482 0.127317
H127  H     H_    0.934409 0.506439 0.968605 0.151564
H128  H     H_    0.565570 0.006389 0.031421 0.151535
H129  H     H_    0.434400 0.006393 0.968587 0.151489
H130  H     H_    0.991556 0.546632 0.070780 0.230807
H131  H     H_    0.008466 0.546598 0.929192 0.230838
H132  H     H_    0.491505 0.046601 0.070785 0.230805
H133  H     H_    0.508453 0.046616 0.929220 0.230822
H134  H     H_    0.614799 0.786222 0.044196 0.107144
H135  H     H_    0.385162 0.786265 0.955843 0.107144
H136  H     H_    0.114810 0.286207 0.044158 0.107137
O1    O     O_R   0.957210 0.449410 0.665480 -0.524562
O2    O     O_R   0.167480 0.095300 0.164000 -0.540678
O3    O     O_R   0.332520 0.595300 0.836000 -0.540681
O4    O     O_R   0.667480 0.595300 0.164000 -0.540673
O5    O     O_R   0.946380 0.253940 0.826940 -0.496707
O6    O     O_R   0.053620 0.253940 0.173060 -0.496773
O7    O     O_R   0.446380 0.753940 0.826940 -0.496762
O8    O     O_R   0.553620 0.753940 0.173060 -0.496767
O9    O     O_3   0.834560 0.334570 0.748840 -0.308719
O10   O     O_3   0.165440 0.334570 0.251160 -0.308746
O11   O     O_3   0.334560 0.834570 0.748840 -0.308743
O12   O     O_R   0.042790 0.449410 0.334520 -0.524572
O13   O     O_3   0.665440 0.834570 0.251160 -0.308735
O14   O     O_R   0.820730 0.541240 0.668250 -0.518016
O15   O     O_R   0.179270 0.541240 0.331750 -0.518017
O16   O     O_R   0.320730 0.041240 0.668250 -0.518017
O17   O     O_R   0.679270 0.041240 0.331750 -0.518015
O18   O     O_R   0.714240 0.455060 0.663710 -0.526280
O19   O     O_R   0.285760 0.455060 0.336290 -0.526284
O20   O     O_R   0.214240 0.955060 0.663710 -0.526284
O21   O     O_R   0.785760 0.955060 0.336290 -0.526284
O22   O     O_R   0.736780 0.204870 0.675910 -0.510349
O23   O     O_R   0.457210 0.949410 0.665480 -0.524556
O24   O     O_R   0.263220 0.204870 0.324090 -0.510351
O25   O     O_R   0.236780 0.704870 0.675910 -0.510349
O26   O     O_R   0.763220 0.704870 0.324090 -0.510355
O27   O     O_R   0.833070 0.087590 0.673490 -0.528004
O28   O     O_R   0.166930 0.087590 0.326510 -0.527979
O29   O     O_R   0.333070 0.587590 0.673490 -0.527988
O30   O     O_R   0.666930 0.587590 0.326510 -0.527977
O31   O     O_R   0.946890 0.246800 0.676300 -0.508559
O32   O     O_R   0.053110 0.246800 0.323700 -0.508556
O33   O     O_R   0.446890 0.746800 0.676300 -0.508563
O34   O     O_R   0.542790 0.949410 0.334520 -0.524575
O35   O     O_R   0.553110 0.746800 0.323700 -0.508561
O36   O     O_R   0.956650 0.457120 0.827980 -0.503740
O37   O     O_R   0.043350 0.457120 0.172020 -0.503730
O38   O     O_R   0.456650 0.957120 0.827980 -0.503679
O39   O     O_R   0.543350 0.957120 0.172020 -0.503734
O40   O     O_R   0.820220 0.548390 0.818890 -0.519311
O41   O     O_R   0.179780 0.548390 0.181110 -0.519298
O42   O     O_R   0.320220 0.048390 0.818890 -0.519305
O43   O     O_R   0.679780 0.048390 0.181110 -0.519272
O44   O     O_R   0.713680 0.462770 0.826210 -0.448677
O45   O     O_R   0.736260 0.212010 0.826560 -0.434130
O46   O     O_R   0.286320 0.462770 0.173790 -0.448683
O47   O     O_R   0.213680 0.962770 0.826210 -0.448669
O48   O     O_R   0.786320 0.962770 0.173790 -0.448671
O49   O     O_R   0.263740 0.212010 0.173440 -0.434015
O50   O     O_R   0.236260 0.712010 0.826560 -0.434040
O51   O     O_R   0.763740 0.712010 0.173440 -0.434030
O52   O     O_R   0.832520 0.095300 0.836000 -0.540688

loop_
_geom_bond_atom_site_label_1
_geom_bond_atom_site_label_2
_ccdc_geom_bond_type
C73   C82   S    
Cr11  O13   S    
C3    C79   S    
C21   C110  S    
C88   H37   S    
C40   H47   S    
C71   H118  S    
C48   H63   S    
C6    C85   S    
C1    O18   A    
C9    C114  S    
C89   H96   S    
C18   H122  S    
C94   H114  S    
C59   H75   S    
C45   C48   S    
Cr8   O9    S    
C25   H24   S    
C87   H95   S    
C74   C92   S    
Cr11  O26   S    
C41   H53   S    
C76   C94   S    
C14   H49   S    
C93   H109  S    
C2    C22   S    
C3    O43   A    
Cr12  O9    S    
C97   C115  S    
C64   O30   A    
Cr6   O38   S    
C25   C34   S    
C29   C64   S    
C37   H104  S    
C96   C114  S    
C75   H100  S    
C11   O8    A    
Cr1   O36   S    
C100  H129  S    
C58   Cl2   S    
C112  O23   A    
C27   C31   S    
Cr9   O19   S    
C35   C66   S    
C118  O44   A    
C66   H30   S    
C119  O41   A    
C13   C33   S    
C108  H11   S    
C39   H51   S    
C78   C82   S    
C40   H52   S    
C77   H31   S    
C119  O46   A    
C37   H41   S    
C43   H57   S    
C66   C110  S    
C67   H83   S    
Cr7   O13   S    
C73   C91   S    
C73   H94   S    
C33   O19   A    
Cr8   O18   S    
C58   H74   S    
Cr7   O39   S    
C31   H27   S    
C74   C79   S    
C23   H13   S    
C82   C118  S    
C108  H4    S    
C75   C93   S    
C104  C117  S    
Cr1   O40   S    
C53   C109  S    
C5    O49   A    
C70   C79   S    
C103  H134  S    
C85   C90   S    
C68   H88   S    
C81   C119  S    
C61   O27   A    
C106  C115  S    
C36   C77   S    
Cr10  O25   S    
Cr1   O9    S    
C76   H101  S    
C36   H93   S    
C19   H19   S    
C20   H124  S    
C49   C53   S    
C46   C51   S    
C103  C116  S    
C84   C93   S    
C2    C14   S    
C86   C95   S    
Cr5   O41   S    
C28   C63   S    
C58   C67   S    
C48   C52   S    
Cr11  O48   S    
Cr5   O10   S    
C20   H20   S    
C71   H91   S    
Cr4   O13   S    
C66   H34   S    
C100  C117  S    
C104  C107  S    
C112  O33   A    
Cr2   O10   S    
C12   C110  S    
C92   H108  S    
Cr3   O33   S    
C113  O35   A    
C106  H6    S    
Cr5   O15   S    
C51   H67   S    
C43   C52   S    
C7    C86   S    
C4    O52   A    
C12   H1    S    
C13   C23   S    
C6    O50   A    
C97   H127  S    
C70   H117  S    
C2    C44   S    
C29   C38   S    
C1    O14   A    
C111  O12   A    
C17   H17   S    
C45   C53   S    
C68   C85   S    
C107  H10   S    
C8    O36   A    
C68   H84   S    
C43   H69   S    
C70   C87   S    
C94   H110  S    
C47   C50   S    
C9    O37   A    
C92   H112  S    
C35   H39   S    
Cr4   O4    S    
Cr11  O51   S    
C99   H38   S    
C39   C40   S    
C5    C84   S    
C105  H8    S    
Cr10  O11   S    
C27   C62   S    
C69   H89   S    
C72   C90   S    
C103  H16   S    
C67   H87   S    
Cr5   O12   S    
Cr7   O34   S    
Cr12  O52   S    
Cr8   O45   S    
C19   C28   S    
C34   H29   S    
C21   H126  S    
C50   H66   S    
C57   H73   S    
Cr1   O14   S    
C26   C30   S    
C77   H36   S    
C7    O51   A    
C4    O45   A    
C15   H79   S    
C101  C106  S    
C118  O40   A    
C72   H92   S    
Cr2   O28   S    
C108  C117  S    
C16   H71   S    
C14   H78   S    
C5    O2    A    
Cr4   O30   S    
C12   H77   S    
C109  O1    A    
C45   H68   S    
C48   H64   S    
C38   H42   S    
C62   O28   A    
C60   H76   S    
C10   C117  S    
C15   H60   S    
Cr7   O43   S    
Cr9   O10   S    
Cr8   O44   S    
Cr10  O50   S    
C9    O6    A    
C16   H80   S    
Cr4   O35   S    
C107  C116  S    
C55   O17   A    
C72   H119  S    
C102  H3    S    
C95   H116  S    
C102  H12   S    
C47   C56   S    
C83   C87   S    
C41   C42   S    
C37   C88   S    
C36   H40   S    
Cr5   O37   S    
C65   H81   S    
C15   C19   S    
C50   C54   S    
C26   C61   S    
Cr6   O16   S    
C86   C91   S    
C22   H22   S    
C93   H113  S    
C102  C105  S    
C57   C79   S    
C102  C115  S    
C42   C56   S    
C39   H46   S    
C55   O21   A    
C12   C17   S    
C90   Cl7   S    
C101  H136  S    
Cr3   O3    S    
C72   C81   S    
C58   C80   S    
C38   H115  S    
Cr3   O29   S    
Cr10  O47   S    
C101  C114  S    
C6    O3    A    
Cr3   O7    S    
Cr9   O49   S    
C89   Cl6   S    
C59   Cl3   S    
C91   Cl8   S    
C64   O26   A    
C47   H56   S    
C35   H82   S    
C95   H111  S    
C97   H131  S    
C98   H132  S    
C29   C34   S    
C41   H48   S    
C10   O7    A    
C34   H45   S    
C18   H18   S    
C99   H33   S    
C28   C32   S    
C78   C95   S    
C46   C54   S    
Cr6   O11   S    
C11   C116  S    
C74   H103  S    
Cr4   O8    S    
C49   H65   S    
Cr7   O17   S    
C98   C100  S    
C7    O4    A    
C30   H35   S    
C50   H61   S    
C96   H125  S    
C109  O31   A    
C90   H97   S    
C59   C81   S    
C57   C65   S    
C38   C99   S    
C69   H85   S    
C27   C36   S    
C21   C30   S    
C113  O34   A    
C25   H25   S    
C23   C32   S    
C2    C77   S    
C4    C83   S    
C91   H98   S    
C65   H86   S    
Cr6   O23   S    
C17   H121  S    
C19   H123  S    
C80   C120  S    
C88   H32   S    
C24   C99   S    
C62   O24   A    
C14   C18   S    
C63   O29   A    
Cr12  O5    S    
Cr6   O42   S    
C73   H120  S    
C46   H55   S    
C83   C92   S    
C78   H102  S    
C17   C26   S    
C60   C69   S    
Cr11  O21   S    
C107  H5    S    
C46   H72   S    
C65   C83   S    
C120  O47   A    
C96   H130  S    
C105  H7    S    
C54   C113  S    
C60   Cl4   S    
C51   C56   S    
C74   H99   S    
C42   H54   S    
C42   H50   S    
C8    C115  S    
C60   C82   S    
C28   C37   S    
Cr1   O1    S    
C103  C108  S    
C120  O42   A    
C75   C80   S    
C75   H105  S    
C16   C20   S    
C39   C52   S    
C67   C84   S    
C104  H15   S    
C106  H9    S    
C71   C80   S    
C33   O15   A    
Cr8   O22   S    
C23   H23   S    
C20   C29   S    
C111  O32   A    
C21   H21   S    
C22   C31   S    
C105  C114  S    
C24   C25   S    
C30   H26   S    
Cr10  O20   S    
C98   H128  S    
Cr9   O46   S    
C43   C49   S    
C52   C111  S    
C45   H58   S    
Cr2   O2    S    
C70   H90   S    
C59   C68   S    
C85   C94   S    
C98   C116  S    
C3    O48   A    
C71   C89   S    
C96   C97   S    
C78   H107  S    
C104  H135  S    
C51   H59   S    
C1    C24   S    
Cr12  O27   S    
C63   O25   A    
C13   C15   S    
C55   C110  S    
C84   C89   S    
C87   Cl5   S    
C49   H62   S    
C61   O22   A    
C44   O16   A    
C31   H43   S    
C44   O20   A    
C32   H44   S    
C76   H106  S    
C18   C27   S    
C101  H14   S    
C76   C81   S    
C10   O38   A    
C100  H133  S    
C32   H28   S    
Cr2   O6    S    
Cr3   O11   S    
C8    O5    A    
Cr2   O32   S    
C22   H2    S    
C11   O39   A    
C13   C88   S    
C26   C35   S    
C41   C54   S    
C57   Cl1   S    
Cr12  O31   S    
C16   C24   S    
C40   C53   S    
C47   H70   S    
Cr9   O24   S    
C56   C112  S    
C69   C86   S    
