data_mof_unit_17765.cif
_audit_creation_date              2013-03-05T15:55:55-0500
_audit_creation_method            fapswitch 2.2
_symmetry_space_group_name_H-M    P1
_symmetry_Int_Tables_number       1
_space_group_crystal_system       triclinic
_cell_length_a                    21.592796
_cell_length_b                    7.169381
_cell_length_c                    15.01047
_cell_angle_alpha                 90.399267
_cell_angle_beta                  107.315636
_cell_angle_gamma                 90.233011
_cell_volume                      2218.31364386

loop_
_atom_site_label
_atom_site_type_symbol
_atom_site_description
_atom_site_fract_x
_atom_site_fract_y
_atom_site_fract_z
_atom_type_partial_charge
O1    O     O_R   0.335860 0.638190 0.002110 -0.595296
O2    O     O_R   0.664140 0.361810 0.997890 -0.595178
O3    O     O_R   0.164140 0.138190 0.997890 -0.597513
O4    O     O_R   0.835860 0.861810 0.002110 -0.578256
O5    O     O_R   0.217530 0.305920 0.861960 -0.572598
O6    O     O_R   0.782470 0.694080 0.138040 -0.570548
O7    O     O_R   0.282470 0.805920 0.138040 -0.571710
O8    O     O_R   0.717530 0.194080 0.861960 -0.582695
C1    C     C_R   0.205007 0.476074 0.825758 0.929167
C2    C     C_R   0.795030 0.523420 0.174171 0.937899
C3    C     C_R   0.294461 0.977720 0.173855 0.935147
C4    C     C_R   0.705499 0.022214 0.825761 0.909720
O9    O     O_R   0.338690 0.308320 0.993240 -0.564715
O10   O     O_R   0.661310 0.691680 0.006760 -0.574026
O11   O     O_R   0.161310 0.808320 0.006760 -0.566355
O12   O     O_R   0.838690 0.191680 0.993240 -0.560052
O13   O     O_R   0.286170 0.140430 0.130100 -0.596285
O14   O     O_R   0.713830 0.859570 0.869900 -0.597426
O15   O     O_R   0.213830 0.640430 0.869900 -0.594474
O16   O     O_R   0.786170 0.359570 0.130100 -0.595246
C5    C     C_R   0.364651 0.477402 0.996326 0.986530
C6    C     C_R   0.636090 0.521971 0.006766 0.983222
C7    C     C_R   0.135635 0.977007 0.004656 0.985249
C8    C     C_R   0.864935 0.023702 0.997493 0.960461
O17   O     O_3   0.232630 0.472410 0.044750 -0.265198
O18   O     O_3   0.767370 0.527590 0.955250 -0.256116
O19   O     O_3   0.267370 0.972410 0.955250 -0.264012
O20   O     O_3   0.732630 0.027590 0.044750 -0.265755
V1    V     V_3+5 0.253220 0.196620 0.991700 1.254586
V2    V     V_3+5 0.746780 0.803380 0.008300 1.256147
V3    V     V_3+5 0.246780 0.696620 0.008300 1.253738
V4    V     V_3+5 0.753220 0.303380 0.991700 1.254219
C9    C     C_R   0.038752 0.852513 0.051078 0.364707
C10   C     C_R   0.963839 0.154352 0.958728 0.415131
C11   C     C_R   0.462986 0.346030 0.957433 0.385029
C12   C     C_R   0.539183 0.649250 0.052279 0.399532
C13   C     C_R   0.972675 0.866059 0.045096 -0.201047
C14   C     C_R   0.029018 0.137651 0.961788 -0.205871
C15   C     C_R   0.529635 0.355493 0.967422 -0.207624
C16   C     C_R   0.472543 0.638290 0.043352 -0.205104
H1    H     H_    0.951695 0.762439 0.079915 0.196437
H2    H     H_    0.049744 0.243155 0.927603 0.182407
H3    H     H_    0.550553 0.248127 0.934331 0.185989
H4    H     H_    0.451336 0.745048 0.076380 0.194972
C17   C     C_R   0.934423 0.015731 0.999707 -0.348903
C18   C     C_R   0.067223 0.988010 0.006866 -0.343609
C19   C     C_R   0.568077 0.508351 0.011414 -0.342699
C20   C     C_R   0.433819 0.487866 0.997082 -0.347728
C21   C     C_R   0.678370 0.006663 0.724237 -0.146598
C22   C     C_R   0.322192 0.988469 0.274716 -0.154437
C23   C     C_R   0.822736 0.508982 0.275459 -0.157745
C24   C     C_R   0.177521 0.481454 0.724079 -0.157535
C25   C     C_R   0.688904 0.895732 0.577330 -0.030167
C26   C     C_R   0.309245 0.025307 0.427579 -0.041333
C27   C     C_R   0.811675 0.392304 0.420277 -0.033333
C28   C     C_R   0.191766 0.507962 0.571307 -0.036962
C29   C     C_R   0.716761 0.939687 0.671265 -0.081071
C30   C     C_R   0.282328 0.016352 0.331246 -0.053581
C31   C     C_R   0.783804 0.445567 0.328196 -0.067954
C32   C     C_R   0.217805 0.508410 0.668028 -0.059159
C33   C     C_R   0.611807 0.029910 0.682791 -0.167517
C34   C     C_R   0.388964 0.968835 0.314121 -0.197471
C35   C     C_R   0.890034 0.519186 0.315359 -0.149545
C36   C     C_R   0.111000 0.452400 0.683146 -0.195801
C37   C     C_R   0.581222 0.967814 0.590201 0.137045
C38   C     C_R   0.417172 0.964210 0.411842 0.137831
C39   C     C_R   0.920226 0.448998 0.405945 0.144753
C40   C     C_R   0.083662 0.440494 0.584938 0.140249
C41   C     C_R   0.621190 0.907812 0.535663 -0.115936
C42   C     C_R   0.376557 0.001853 0.469035 -0.112729
C43   C     C_R   0.879689 0.392724 0.460380 -0.127623
C44   C     C_R   0.124800 0.477028 0.528625 -0.101288
C45   C     C_R   0.512234 0.963657 0.550870 -0.224698
C46   C     C_R   0.484714 0.929278 0.453868 -0.221487
C47   C     C_R   0.989194 0.436005 0.444288 -0.188208
C48   C     C_R   0.016242 0.402491 0.541447 -0.240326
C49   C     C_R   0.524904 0.847038 0.404385 0.434014
C50   C     C_R   0.469466 0.972649 0.606886 0.413383
C51   C     C_R   0.975262 0.323047 0.590230 0.435101
C52   C     C_R   0.032294 0.444559 0.388774 0.436880
C53   C     C_R   0.592669 0.847484 0.442972 0.203336
C54   C     C_R   0.403067 0.004210 0.566554 0.184924
C55   C     C_R   0.907568 0.326847 0.551630 0.217383
C56   C     C_R   0.098987 0.475268 0.430785 0.164155
H5    H     H_    0.417995 0.963140 0.266790 0.174795
H6    H     H_    0.584729 0.092998 0.724955 0.164234
H7    H     H_    0.081405 0.446370 0.729653 0.173795
H8    H     H_    0.917619 0.579446 0.273407 0.170429
H9    H     H_    0.230412 0.031635 0.300742 0.166583
H10   H     H_    0.768244 0.918266 0.703180 0.162971
H11   H     H_    0.269483 0.529794 0.699209 0.164720
H12   H     H_    0.731794 0.432347 0.297108 0.170181
H13   H     H_    0.720606 0.843013 0.539272 0.176500
H14   H     H_    0.276564 0.046536 0.469056 0.172423
H15   H     H_    0.779410 0.342426 0.457991 0.176845
H16   H     H_    0.224800 0.529425 0.530401 0.172388
N1    N     N_R   0.076534 0.706722 0.106486 0.248611
O21   O     O_R   0.050913 0.542643 0.108023 -0.358148
O22   O     O_R   0.132221 0.745736 0.167021 -0.355561
N2    N     N_R   0.928316 0.310919 0.911303 0.238121
O23   O     O_R   0.917665 0.451470 0.959875 -0.367924
O24   O     O_R   0.923115 0.335228 0.823633 -0.318249
N3    N     N_R   0.425266 0.198449 0.901346 0.252314
O25   O     O_R   0.449489 0.032021 0.903891 -0.360843
O26   O     O_R   0.371781 0.236802 0.836533 -0.342545
N4    N     N_R   0.576868 0.799064 0.106688 0.255039
O27   O     O_R   0.633363 0.765675 0.165746 -0.330254
O28   O     O_R   0.550755 0.961738 0.108668 -0.370939
N5    N     N_R   0.632192 0.783041 0.387272 0.264757
O29   O     O_R   0.673117 0.896418 0.366925 -0.352085
O30   O     O_R   0.625092 0.614610 0.352789 -0.371283
N6    N     N_R   0.362750 0.035556 0.625928 0.265626
O31   O     O_R   0.357809 0.909804 0.685545 -0.333232
O32   O     O_R   0.334162 0.195386 0.624531 -0.394046
N7    N     N_R   0.867390 0.263092 0.606411 0.266236
O33   O     O_R   0.828793 0.378778 0.630460 -0.361058
O34   O     O_R   0.872521 0.093414 0.637803 -0.379516
N8    N     N_R   0.139798 0.511349 0.372799 0.266936
O35   O     O_R   0.153029 0.378937 0.321743 -0.382753
O36   O     O_R   0.164955 0.676500 0.372594 -0.378236
O37   O     O_3   0.498944 0.751480 0.321013 -0.603681
C57   C     C_3   0.475977 0.575743 0.340411 0.289232
H17   H     H_    0.435922 0.591385 0.372438 0.090107
H18   H     H_    0.515707 0.493534 0.388255 0.116428
C58   C     C_3   0.449726 0.466037 0.249933 -0.795532
H19   H     H_    0.489014 0.441708 0.217509 0.271900
H20   H     H_    0.430615 0.329261 0.264249 0.203322
H21   H     H_    0.409776 0.544484 0.200990 0.230195
O38   O     O_3   0.490110 0.925373 0.700032 -0.596009
C59   C     C_3   0.497170 0.729374 0.705342 0.313756
H22   H     H_    0.530849 0.677657 0.667174 0.066675
H23   H     H_    0.449339 0.658041 0.676725 0.129967
C60   C     C_3   0.525543 0.675074 0.806124 -0.793519
H24   H     H_    0.490237 0.704874 0.844971 0.288065
H25   H     H_    0.536493 0.523826 0.809269 0.181603
H26   H     H_    0.571083 0.754604 0.838002 0.244103
O39   O     O_3   0.000194 0.232342 0.674352 -0.595838
C61   C     C_3   0.023456 0.055687 0.657101 0.298963
H27   H     H_    0.063873 0.069395 0.625653 0.088907
H28   H     H_    0.983943 0.969808 0.609667 0.117792
C62   C     C_3   0.049134 0.953104 0.748912 -0.795610
H29   H     H_    0.009664 0.932858 0.781431 0.272423
H30   H     H_    0.067876 0.814606 0.736375 0.200765
H31   H     H_    0.089210 0.034750 0.797177 0.230353
O40   O     O_3   0.010507 0.413915 0.293209 -0.618207
C63   C     C_3   0.016185 0.222087 0.273004 0.408893
H32   H     H_    0.053299 0.145766 0.328495 0.081965
H33   H     H_    0.031816 0.212630 0.208997 0.175530
C64   C     C_3   0.950942 0.122318 0.253148 -1.004847
H34   H     H_    0.913569 0.196573 0.197987 0.278046
H35   H     H_    0.955122 0.977509 0.228995 0.227354
H36   H     H_    0.935731 0.115459 0.317416 0.259270

loop_
_geom_bond_atom_site_label_1
_geom_bond_atom_site_label_2
_geom_bond_distance
_ccdc_geom_bond_type
O17   V3    1.756236 S    
O1    C5    1.326435 A    
C27   C31   1.390142 A    
C35   H8    1.078411 S    
O19   V1    1.751525 S    
O13   V1    2.029392 S    
C45   C46   1.418694 A    
O3    C7    1.325740 A    
C48   C51   1.425134 A    
C52   C56   1.405311 A    
O4    V2    1.996070 S    
O15   V3    2.022486 S    
N6    O32   1.301126 A    
C4    C21   1.464117 S    
C21   C29   1.392936 A    
C38   C42   1.423321 A    
O7    C3    1.333590 A    
C8    C17   1.492221 S    
C36   C40   1.417287 A    
O9    V1    2.002545 S    
C50   O38   1.380328 S    
C63   H32   1.117149 S    
C11   N3    1.436680 S    
C64   H35   1.110142 S    
O40   C63   1.419902 S    
C11   C15   1.403158 A    
O4    C8    1.329353 A    
N4    O27   1.301112 A    
C11   C20   1.415890 A    
N7    O33   1.301295 A    
C38   C46   1.430099 A    
O1    V3    1.999079 S    
C37   C45   1.429819 A    
C12   C19   1.417825 A    
O2    V4    1.999076 S    
O3    V1    1.996067 S    
N8    O35   1.300964 A    
C24   C32   1.392259 A    
C1    O15   1.332643 A    
C43   C55   1.407856 A    
C2    O16   1.328966 A    
C28   C44   1.412251 A    
C46   C49   1.426251 A    
O2    C6    1.324636 A    
C60   H26   1.110217 S    
C10   N2    1.431145 S    
C45   C50   1.423347 A    
O14   V2    2.029394 S    
C47   C52   1.423433 A    
N5    O29   1.301215 A    
C36   H7    1.078575 S    
O5    V1    2.033061 S    
C40   C44   1.421375 A    
C5    C20   1.491767 S    
O11   C7    1.329108 A    
C6    C19   1.493675 S    
C25   C41   1.412064 A    
O12   C8    1.326891 A    
C7    C18   1.489815 S    
C13   H1    1.083464 S    
C9    C18   1.417398 A    
C1    C24   1.464558 S    
O10   V2    2.002540 S    
C2    C23   1.463362 S    
N6    O31   1.300884 A    
N1    O22   1.301187 A    
O16   V4    2.022484 S    
N1    O21   1.301179 A    
C63   H33   1.110820 S    
C34   H5    1.079025 S    
C35   C39   1.418323 A    
C21   C33   1.397031 A    
C29   H10   1.083639 S    
C34   C38   1.411631 A    
C12   N4    1.438007 S    
C33   H6    1.079573 S    
O8    V4    2.020142 S    
C55   N7    1.436798 S    
C12   C16   1.406705 A    
C23   C35   1.398638 A    
C27   H15   1.081347 S    
C24   C36   1.398042 A    
C62   H31   1.110456 S    
C25   C29   1.391636 A    
O18   V4    1.756236 S    
C15   H3    1.083653 S    
N7    O34   1.300836 A    
C25   H13   1.081527 S    
O7    V3    2.020142 S    
C9    C13   1.406484 A    
C28   C32   1.392098 A    
C62   H30   1.109564 S    
C54   N6    1.436432 S    
C59   H23   1.114136 S    
C47   C48   1.422943 A    
O5    C1    1.334549 A    
C58   H21   1.110234 S    
C63   C64   1.524464 S    
C50   C54   1.400414 A    
C26   C42   1.411754 A    
C49   C53   1.404285 A    
O8    C4    1.336045 A    
N2    O24   1.300052 A    
C22   C30   1.390930 A    
O9    C5    1.328189 A    
N3    O26   1.301288 A    
C10   C17   1.416145 A    
C40   C48   1.431197 A    
O37   C57   1.415674 S    
C44   C56   1.407157 A    
C61   H28   1.114440 S    
C41   C53   1.407668 A    
C52   O40   1.385760 S    
C51   O39   1.384480 S    
C53   N5    1.436441 S    
C60   H24   1.109515 S    
C22   C34   1.394142 A    
C64   H36   1.109078 S    
C59   C60   1.507934 S    
C23   C31   1.392143 A    
C13   C17   1.407229 A    
C15   C19   1.407938 A    
O38   C59   1.414290 S    
C26   C30   1.389596 A    
C32   H11   1.083726 S    
C16   C20   1.407525 A    
C3    O13   1.329133 A    
O6    V2    2.033060 S    
C10   C14   1.400075 A    
C61   C62   1.519920 S    
O6    C2    1.337572 A    
O11   V3    2.008663 S    
O12   V4    2.008667 S    
O39   C61   1.414713 S    
O10   C6    1.331009 A    
C57   C58   1.519098 S    
N5    O30   1.300820 A    
C59   H22   1.114360 S    
C3    C22   1.454282 S    
C62   H29   1.110553 S    
C14   C18   1.405127 A    
C51   C55   1.403356 A    
C58   H19   1.110305 S    
N4    O28   1.301472 A    
C37   C41   1.420813 A    
O20   V2    1.751525 S    
N2    O23   1.300517 A    
C39   C43   1.422686 A    
C31   H12   1.083751 S    
C28   H16   1.081963 S    
C42   C54   1.404086 A    
C30   H9    1.083733 S    
N8    O36   1.301084 A    
C26   H14   1.081602 S    
C49   O37   1.384569 S    
C61   H27   1.113244 S    
C14   H2    1.084018 S    
C33   C37   1.417227 A    
C16   H4    1.083510 S    
C39   C47   1.431553 A    
C56   N8    1.434896 S    
C4    O14   1.331367 A    
N3    O25   1.300977 A    
C58   H20   1.109264 S    
C60   H25   1.109114 S    
C9    N1    1.436986 S    
C57   H17   1.113230 S    
C64   H34   1.110008 S    
C57   H18   1.114603 S    
C27   C43   1.411693 A    
