data_mof_unit_23524.cif
_audit_creation_date              2012-12-10T17:10:23-0500
_audit_creation_method            fapswitch 2.2
_symmetry_space_group_name_H-M    P1
_symmetry_Int_Tables_number       1
_space_group_crystal_system       triclinic
_cell_length_a                    10.987809
_cell_length_b                    13.014541
_cell_length_c                    11.756778
_cell_angle_alpha                 102.398293
_cell_angle_beta                  94.370333
_cell_angle_gamma                 91.646306
_cell_volume                      1635.49539158

loop_
_atom_site_label
_atom_site_type_symbol
_atom_type_description
_atom_site_fract_x
_atom_site_fract_y
_atom_site_fract_z
_atom_type_partial_charge
C1    C     C_R   0.496660 0.298526 0.476745 0.802698
C2    C     C_R   0.502449 0.701542 0.523171 0.924958
C3    C     C_R   0.500694 0.816074 0.536667 -0.084180
C4    C     C_R   0.492566 0.183957 0.462534 -0.082505
C5    C     C_R   0.507070 0.008693 0.342391 0.140719
C6    C     C_R   0.473980 0.990360 0.654401 0.115157
C7    C     C_R   0.503047 0.117677 0.354063 -0.184589
C8    C     C_R   0.481225 0.881788 0.643338 -0.060098
C9    C     C_R   0.480202 0.141412 0.560705 -0.265303
C10   C     C_R   0.511899 0.858715 0.438319 -0.266959
C11   C     C_R   0.484896 0.033288 0.553921 0.102867
C12   C     C_R   0.501348 0.966265 0.443916 0.115337
C13   C     C_R   0.402878 0.390134 0.009273 -0.304400
C14   C     C_R   0.592810 0.615010 0.989325 -0.251964
C15   C     C_R   0.408059 0.398976 0.130750 0.589200
C16   C     C_R   0.593064 0.601551 0.866957 0.621138
C17   C     C_R   0.532863 0.555145 0.162170 0.046526
C18   C     C_R   0.459055 0.450590 0.838297 -0.032368
C19   C     C_R   0.528962 0.545210 0.038279 0.011219
C20   C     C_R   0.463316 0.461737 0.961592 -0.028586
C21   C     C_R   0.262271 0.502058 0.501918 0.881704
C22   C     C_R   0.737714 0.492951 0.499545 0.824037
C23   C     C_R   0.131794 0.603086 0.716527 0.370280
C24   C     C_R   0.876650 0.382156 0.295239 0.335238
C25   C     C_R   0.091148 0.589669 0.824331 0.073918
C26   C     C_R   0.916693 0.278531 0.253739 0.106921
C27   C     C_R   0.980421 0.533893 0.823201 -0.145627
C28   C     C_R   0.020409 0.246091 0.311295 -0.171889
C29   C     C_R   0.905832 0.501396 0.720083 -0.113762
C30   C     C_R   0.092809 0.319879 0.393956 -0.107946
C31   C     C_R   0.945476 0.514423 0.612223 0.041851
C32   C     C_R   0.057920 0.424135 0.424135 0.046434
C33   C     C_R   0.069770 0.544960 0.610476 -0.059228
C34   C     C_R   0.934094 0.440508 0.402506 -0.003455
C35   C     C_R   0.872371 0.484492 0.502937 -0.170632
C36   C     C_R   0.128422 0.498854 0.508421 -0.135462
Cu1   Cu    Cu3+1 0.509250 0.507730 0.615930 1.040739
Cu2   Cu    Cu3+1 0.490750 0.492270 0.384070 1.035201
H1    H     H_    0.050094 0.166296 0.286765 0.162903
H2    H     H_    0.949574 0.518109 0.903355 0.223310
H3    H     H_    0.351295 0.325140 0.950156 0.192407
H4    H     H_    0.644351 0.680478 0.047427 0.195714
H5    H     H_    0.823320 0.456686 0.726064 0.174439
H6    H     H_    0.172856 0.294710 0.438376 0.152459
H7    H     H_    0.528389 0.806577 0.356892 0.168258
H8    H     H_    0.468385 0.194145 0.643054 0.169675
H9    H     H_    0.469327 0.848453 0.718080 0.244593
H10   H     H_    0.509243 0.151197 0.278425 0.208369
H11   H     H_    0.404121 0.386964 0.781131 0.136853
H12   H     H_    0.584240 0.620735 0.219506 0.168311
N1    N     N_R   0.523180 0.519350 0.790130 -0.237295
N2    N     N_R   0.476820 0.480650 0.209870 -0.266829
O1    O     O_R   0.506570 0.354460 0.582000 -0.624149
O2    O     O_R   0.493430 0.645540 0.418000 -0.622391
O3    O     O_R   0.490940 0.341410 0.386200 -0.547103
O4    O     O_R   0.509060 0.658590 0.613800 -0.481259
O5    O     O_R   0.327470 0.506520 0.597900 -0.587347
O6    O     O_R   0.672530 0.493480 0.402100 -0.565552
O7    O     O_R   0.311840 0.493460 0.402100 -0.520312
O8    O     O_R   0.688160 0.506540 0.597900 -0.562426
S1    S     S_3+6 0.225954 0.715362 0.715255 -0.021835
O9    O     O_2   0.350444 0.704090 0.771628 -0.298688
O10   O     O_2   0.235766 0.729721 0.592785 -0.333402
O11   O     O_3   0.166072 0.822995 0.792942 -0.528683
H13   H     H_    0.080850 0.821752 0.758279 0.352187
S2    S     S_3+6 0.838058 0.456162 0.188766 0.012265
O12   O     O_2   0.809261 0.566535 0.245669 -0.286670
O13   O     O_2   0.946972 0.461396 0.119943 -0.256045
O14   O     O_3   0.720219 0.398544 0.095514 -0.542604
H14   H     H_    0.664160 0.370712 0.144540 0.332397
C37   C     C_3   0.166361 0.625850 0.940609 -0.366783
C38   C     C_3   0.104941 0.711117 0.024310 -0.692153
H15   H     H_    0.087506 0.779792 0.984511 0.270242
H16   H     H_    0.017442 0.679798 0.047679 0.289834
H17   H     H_    0.165544 0.737825 0.105966 0.229284
H18   H     H_    0.179029 0.557076 0.981712 0.214285
H19   H     H_    0.259311 0.655327 0.930700 0.247721
C39   C     C_3   0.856834 0.203416 0.146428 -0.351791
C40   C     C_3   0.736015 0.156941 0.172247 -0.872614
H20   H     H_    0.752302 0.107932 0.238034 0.253269
H21   H     H_    0.674718 0.220166 0.206650 0.247961
H22   H     H_    0.690735 0.106686 0.090837 0.261631
H23   H     H_    0.843684 0.242309 0.071673 0.268846
H24   H     H_    0.916522 0.136937 0.116977 0.194898
C41   C     C_3   0.517710 0.941494 0.220912 -0.407874
C42   C     C_3   0.396902 0.882525 0.169609 -0.755569
H25   H     H_    0.366341 0.829273 0.224936 0.237963
H26   H     H_    0.325032 0.939505 0.161685 0.275312
H27   H     H_    0.408390 0.834370 0.081182 0.263493
H28   H     H_    0.543168 0.991328 0.159892 0.230214
H29   H     H_    0.592270 0.885866 0.222131 0.197089
C43   C     C_3   0.451762 0.056208 0.773772 -0.375200
C44   C     C_3   0.569890 0.111201 0.838192 -0.785538
H30   H     H_    0.635873 0.051727 0.854212 0.271257
H31   H     H_    0.612549 0.162992 0.787258 0.247978
H32   H     H_    0.549734 0.160262 0.923690 0.267558
H33   H     H_    0.381291 0.114319 0.766014 0.197568
H34   H     H_    0.413990 0.005709 0.829169 0.250210
S3    S     S_3+6 0.685818 0.703669 0.831551 -0.002890
O15   O     O_2   0.723611 0.688581 0.709789 -0.283016
O16   O     O_2   0.619303 0.803933 0.859990 -0.339703
O17   O     O_3   0.814470 0.719672 0.921801 -0.573945
H35   H     H_    0.855773 0.785086 0.910823 0.371505
S4    S     S_3+6 0.317335 0.294469 0.159832 -0.017911
O18   O     O_2   0.377019 0.193086 0.114101 -0.371125
O19   O     O_2   0.295076 0.301245 0.283571 -0.297670
O20   O     O_3   0.180501 0.291424 0.083979 -0.530570
H36   H     H_    0.142961 0.220740 0.081288 0.367500

loop_
_geom_bond_atom_site_label_1
_geom_bond_atom_site_label_2
_ccdc_geom_bond_type
S2    O13   D    
C44   H30   S    
C27   C29   A    
C19   C20   A    
C16   N1    A    
C13   H3    S    
C41   H29   S    
C43   H34   S    
C21   C36   S    
C41   C42   S    
C22   C35   S    
C26   C39   S    
C32   C36   A    
C24   C26   A    
C21   O7    A    
O14   H14   S    
C38   H17   S    
C22   O8    A    
C37   H18   S    
Cu1   N1    S    
C42   H26   S    
S2    O14   S    
Cu2   N2    S    
C33   C36   A    
C34   C35   A    
S1    O10   D    
C1    O1    A    
Cu2   O6    S    
Cu1   O4    S    
C39   H23   S    
Cu2   O3    S    
C23   C33   A    
C43   H33   S    
O20   H36   S    
C31   C33   A    
C25   C37   S    
C15   S4    S    
C18   C20   A    
C24   S2    S    
C14   H4    S    
Cu1   O1    S    
S2    O12   D    
C9    H8    S    
C44   H31   S    
C29   H5    S    
C30   H6    S    
O17   H35   S    
C4    C7    A    
C17   N2    A    
S4    O19   D    
S4    O18   D    
C18   N1    A    
C5    C12   A    
C38   H16   S    
C3    C8    A    
C2    O2    A    
C6    C11   A    
C40   H21   S    
C39   C40   S    
C6    C8    A    
C28   H1    S    
C24   C34   A    
Cu2   O7    S    
C32   C34   A    
S1    O11   S    
C21   O5    A    
Cu1   Cu2   S    
S3    O15   D    
Cu2   O2    S    
C27   H2    S    
C41   H28   S    
C10   H7    S    
C15   N2    A    
C9    C11   A    
C10   C12   A    
S3    O16   D    
C44   H32   S    
C13   C15   A    
C14   C16   A    
C37   H19   S    
C5    C7    A    
C13   C20   A    
C42   H25   S    
C14   C19   A    
C38   H15   S    
C42   H27   S    
C17   H12   S    
C22   O6    A    
C40   H22   S    
C11   C12   A    
C16   S3    S    
C25   C27   A    
C26   C28   A    
C1    C4    S    
O11   H13   S    
C28   C30   A    
C2    C3    S    
C1    O3    A    
C8    H9    S    
C5    C41   S    
C37   C38   S    
C29   C31   A    
C3    C10   A    
C2    O4    A    
C7    H10   S    
C30   C32   A    
C6    C43   S    
C43   C44   S    
C17   C19   A    
C31   C35   A    
C23   C25   A    
S1    O9    D    
Cu1   O8    S    
C40   H20   S    
C39   H24   S    
C23   S1    S    
S3    O17   S    
C4    C9    A    
S4    O20   S    
Cu1   O5    S    
C18   H11   S    
