data_mof_unit_9737.cif
_audit_creation_date              2012-12-10T21:01:00-0500
_audit_creation_method            fapswitch 2.2
_symmetry_space_group_name_H-M    P1
_symmetry_Int_Tables_number       1
_space_group_crystal_system       triclinic
_cell_length_a                    15.929147
_cell_length_b                    15.177693
_cell_length_c                    10.636232
_cell_angle_alpha                 89.102696
_cell_angle_beta                  89.766554
_cell_angle_gamma                 88.32461
_cell_volume                      2570.06605703

loop_
_atom_site_label
_atom_site_type_symbol
_atom_type_description
_atom_site_fract_x
_atom_site_fract_y
_atom_site_fract_z
_atom_type_partial_charge
C1    C     C_R   0.338959 0.501318 0.498683 0.878756
C2    C     C_R   0.660834 0.498393 0.504763 0.873777
C3    C     C_1   0.823593 0.488729 0.517328 -0.047055
C4    C     C_1   0.175979 0.506047 0.512317 -0.040758
C5    C     C_R   0.949664 0.569963 0.478386 -0.055665
C6    C     C_R   0.050263 0.423190 0.558132 -0.058316
C7    C     C_R   0.037188 0.576858 0.483777 -0.060502
C8    C     C_R   0.962171 0.416839 0.555840 -0.058726
C9    C     C_R   0.912836 0.490718 0.516323 0.022425
C10   C     C_R   0.086854 0.503113 0.521602 0.025513
C11   C     C_R   0.505670 0.500665 0.257510 0.871876
C12   C     C_R   0.497849 0.499367 0.743060 0.855189
C13   C     C_1   0.250598 0.504608 0.504829 -0.191494
C14   C     C_1   0.748960 0.493241 0.512869 -0.186292
C15   C     C_R   0.456199 0.955897 0.401714 -0.043569
C16   C     C_R   0.547602 0.044601 0.585248 -0.045506
C17   C     C_R   0.553617 0.950613 0.576511 -0.049067
C18   C     C_R   0.452511 0.050479 0.406477 -0.039817
C19   C     C_R   0.504121 0.904992 0.490116 -0.049325
C20   C     C_R   0.498781 0.095434 0.498017 -0.053204
C21   C     C_3   0.509592 0.584946 0.037204 0.119704
C22   C     C_3   0.501417 0.416172 0.963752 0.143614
C23   C     C_3   0.573246 0.537452 0.949128 0.114322
C24   C     C_3   0.436980 0.463801 0.050430 0.123357
C25   C     C_3   0.435355 0.546745 0.964739 -0.075502
C26   C     C_3   0.575090 0.454982 0.036234 -0.033054
C27   C     C_3   0.498907 0.498753 0.877996 -0.211667
C28   C     C_3   0.510451 0.502283 0.122998 -0.177430
C29   C     C_1   0.501791 0.806760 0.494497 0.066913
C30   C     C_1   0.498814 0.193374 0.499309 0.063438
N1    N     N_1   0.500000 0.270550 0.500000 -0.094858
N2    N     N_1   0.500000 0.729450 0.500000 -0.098651
O1    O     O_R   0.378020 0.573650 0.500040 -0.615107
O2    O     O_R   0.621980 0.426350 0.499960 -0.617546
O3    O     O_R   0.621980 0.573650 0.499960 -0.601515
O4    O     O_R   0.378020 0.426350 0.500040 -0.600959
O5    O     O_R   0.499980 0.573650 0.313960 -0.609785
O6    O     O_R   0.500020 0.426350 0.686040 -0.628756
O7    O     O_R   0.500020 0.573650 0.686040 -0.624441
O8    O     O_R   0.499980 0.426350 0.313960 -0.623210
Zn1   Zn    Zn3+2 0.500000 0.598370 0.500000 0.958461
Zn2   Zn    Zn3+2 0.500000 0.401630 0.500000 0.957155
C31   C     C_R   0.395320 0.101845 0.320048 0.125938
C32   C     C_R   0.406554 0.099366 0.189010 -0.126065
C33   C     C_R   0.345473 0.136498 0.108564 -0.144013
C34   C     C_R   0.275242 0.180836 0.158097 -0.125979
C35   C     C_R   0.266030 0.188299 0.288006 -0.135549
C36   C     C_R   0.325139 0.148054 0.368953 -0.152351
H1    H     H_    0.461726 0.067307 0.149006 0.126050
H2    H     H_    0.352960 0.131623 0.007702 0.127316
H3    H     H_    0.228176 0.209849 0.095792 0.122076
H4    H     H_    0.212219 0.224062 0.325494 0.136927
H5    H     H_    0.315576 0.151356 0.469579 0.135140
C37   C     C_R   0.618097 0.901782 0.652369 0.148738
C38   C     C_R   0.703404 0.920415 0.635127 -0.129682
C39   C     C_R   0.763924 0.885060 0.717830 -0.140343
C40   C     C_R   0.739763 0.830882 0.817836 -0.095847
C41   C     C_R   0.655174 0.812241 0.834884 -0.157945
C42   C     C_R   0.594429 0.846328 0.751987 -0.163610
H6    H     H_    0.722518 0.964565 0.559985 0.109039
H7    H     H_    0.829309 0.900820 0.705668 0.109370
H8    H     H_    0.786318 0.804248 0.882999 0.115683
H9    H     H_    0.636390 0.772778 0.913774 0.138411
H10   H     H_    0.528872 0.833016 0.768847 0.116172
C43   C     C_R   0.590238 0.087855 0.691385 0.126642
C44   C     C_R   0.575530 0.058561 0.815582 -0.132363
C45   C     C_R   0.624343 0.088061 0.914101 -0.143361
C46   C     C_R   0.684010 0.151773 0.891215 -0.120093
C47   C     C_R   0.695063 0.185811 0.769645 -0.151452
C48   C     C_R   0.650325 0.152261 0.669330 -0.149740
H11   H     H_    0.528265 0.010364 0.835431 0.117595
H12   H     H_    0.614750 0.062735 0.008629 0.122019
H13   H     H_    0.720926 0.175069 0.968211 0.139955
H14   H     H_    0.739366 0.237165 0.752490 0.153490
H15   H     H_    0.663766 0.175294 0.574724 0.135195
C49   C     C_R   0.415845 0.912085 0.295344 0.131038
C50   C     C_R   0.328167 0.906656 0.290536 -0.115277
C51   C     C_R   0.289055 0.886110 0.177610 -0.130256
C52   C     C_R   0.336947 0.871529 0.069252 -0.113257
C53   C     C_R   0.424205 0.875977 0.073943 -0.167360
C54   C     C_R   0.463859 0.893899 0.187276 -0.174533
H16   H     H_    0.290281 0.923161 0.372022 0.117116
H17   H     H_    0.221474 0.885131 0.172355 0.116314
H18   H     H_    0.306379 0.858269 0.981159 0.136561
H19   H     H_    0.461016 0.867484 0.989120 0.123536
H20   H     H_    0.531367 0.900597 0.188397 0.127501
C55   C     C_R   0.354136 0.597389 0.936263 0.120999
C56   C     C_R   0.308696 0.637873 0.034431 -0.142256
C57   C     C_R   0.232498 0.682734 0.010513 -0.140549
C58   C     C_R   0.200682 0.687852 0.888554 -0.146388
C59   C     C_R   0.244363 0.646258 0.791094 -0.147920
C60   C     C_R   0.319799 0.600371 0.815107 -0.137766
H21   H     H_    0.331220 0.633643 0.130164 0.125352
H22   H     H_    0.198311 0.713556 0.086654 0.131824
H23   H     H_    0.141865 0.723034 0.869992 0.117493
H24   H     H_    0.219841 0.648321 0.696756 0.149778
H25   H     H_    0.349057 0.565393 0.739300 0.144233
C61   C     C_R   0.658224 0.410421 0.068135 0.136074
C62   C     C_R   0.705642 0.369423 0.972743 -0.148666
C63   C     C_R   0.787464 0.337952 0.996266 -0.169468
C64   C     C_R   0.822922 0.347289 0.114715 -0.135359
C65   C     C_R   0.776796 0.389337 0.209144 -0.161050
C66   C     C_R   0.695056 0.420818 0.186212 -0.137061
H26   H     H_    0.680594 0.364858 0.878862 0.127766
H27   H     H_    0.823661 0.307178 0.922299 0.133749
H28   H     H_    0.886572 0.323585 0.132559 0.120452
H29   H     H_    0.805104 0.400014 0.299021 0.138868
H30   H     H_    0.663002 0.457277 0.258528 0.125489
C67   C     C_3   0.514187 0.680870 0.079048 -0.348391
C68   C     C_3   0.589173 0.698885 0.164316 -0.794527
H31   H     H_    0.566668 0.720702 0.257903 0.267373
H32   H     H_    0.630518 0.639464 0.178807 0.260680
H33   H     H_    0.626561 0.753378 0.125268 0.205568
H34   H     H_    0.515913 0.722913 0.993290 0.181788
H35   H     H_    0.456082 0.698899 0.131019 0.219360
C69   C     C_3   0.497951 0.321109 0.918448 -0.352833
C70   C     C_3   0.508627 0.255087 0.026662 -0.863854
H36   H     H_    0.573574 0.254688 0.063691 0.265279
H37   H     H_    0.464599 0.270233 0.104370 0.276727
H38   H     H_    0.495621 0.188642 0.991861 0.247018
H39   H     H_    0.437454 0.311350 0.870244 0.210056
H40   H     H_    0.548595 0.308288 0.848759 0.223501
C71   C     C_3   0.646906 0.573699 0.870318 -0.336198
C72   C     C_3   0.724083 0.599287 0.944196 -0.900407
H41   H     H_    0.710236 0.658042 0.000258 0.249900
H42   H     H_    0.748141 0.545492 0.006387 0.278185
H43   H     H_    0.774947 0.616108 0.877063 0.249880
H44   H     H_    0.667401 0.522608 0.802193 0.187725
H45   H     H_    0.623832 0.631818 0.814831 0.227355
C73   C     C_3   0.358738 0.426462 0.116072 -0.347584
C74   C     C_3   0.295897 0.390276 0.024029 -0.894053
H46   H     H_    0.235765 0.378350 0.073689 0.244528
H47   H     H_    0.283184 0.436734 0.944568 0.267750
H48   H     H_    0.320104 0.326704 0.987294 0.252763
H49   H     H_    0.377243 0.373417 0.184007 0.228344
H50   H     H_    0.327256 0.479324 0.171347 0.187902
C75   C     C_R   0.075242 0.662159 0.450828 0.151994
C76   C     C_R   0.094343 0.720551 0.546827 -0.179996
C77   C     C_R   0.117273 0.806619 0.517494 -0.140246
C78   C     C_R   0.118678 0.835633 0.392285 -0.110696
C79   C     C_R   0.098973 0.778008 0.296209 -0.142641
C80   C     C_R   0.078493 0.691081 0.324996 -0.131231
H51   H     H_    0.087077 0.700733 0.644307 0.113008
H52   H     H_    0.131141 0.851659 0.592004 0.121988
H53   H     H_    0.133508 0.903219 0.369959 0.111123
H54   H     H_    0.097527 0.801284 0.199622 0.108620
H55   H     H_    0.061127 0.647710 0.250105 0.121034
C81   C     C_R   0.923653 0.331568 0.590150 0.147726
C82   C     C_R   0.891991 0.278333 0.495594 -0.160555
C83   C     C_R   0.869663 0.191708 0.522964 -0.152347
C84   C     C_R   0.880615 0.156845 0.644266 -0.110396
C85   C     C_R   0.911784 0.209365 0.739150 -0.163143
C86   C     C_R   0.932346 0.296715 0.712728 -0.148998
H56   H     H_    0.889512 0.301885 0.399417 0.114862
H57   H     H_    0.846101 0.150810 0.449297 0.124870
H58   H     H_    0.864462 0.089348 0.664945 0.127758
H59   H     H_    0.920217 0.182291 0.833135 0.125897
H60   H     H_    0.958531 0.335995 0.786274 0.125188
C87   C     C_R   0.897010 0.644561 0.426347 0.143812
C88   C     C_R   0.860566 0.637516 0.307035 -0.156906
C89   C     C_R   0.816627 0.709503 0.253091 -0.144134
C90   C     C_R   0.808866 0.788851 0.317260 -0.112011
C91   C     C_R   0.844956 0.796280 0.435854 -0.114850
C92   C     C_R   0.887761 0.724089 0.491440 -0.112013
H61   H     H_    0.867664 0.576939 0.255011 0.128295
H62   H     H_    0.790075 0.704488 0.160531 0.124805
H63   H     H_    0.775703 0.844843 0.274500 0.115697
H64   H     H_    0.840985 0.858525 0.483491 0.117755
H65   H     H_    0.915379 0.730762 0.583517 0.117478
C93   C     C_R   0.104014 0.345593 0.597446 0.149594
C94   C     C_R   0.104532 0.267820 0.527465 -0.129052
C95   C     C_R   0.148949 0.192572 0.570459 -0.151443
C96   C     C_R   0.194923 0.194983 0.681703 -0.120277
C97   C     C_R   0.195927 0.272450 0.750683 -0.136466
C98   C     C_R   0.150599 0.347601 0.709156 -0.152354
H66   H     H_    0.069414 0.265108 0.440762 0.116405
H67   H     H_    0.147966 0.132429 0.517208 0.123347
H68   H     H_    0.229641 0.136789 0.714578 0.116331
H69   H     H_    0.230895 0.273606 0.837197 0.123343
H70   H     H_    0.150498 0.406686 0.764970 0.127924

loop_
_geom_bond_atom_site_label_1
_geom_bond_atom_site_label_2
_ccdc_geom_bond_type
C95   H67   S    
C32   H1    S    
C7    C10   A    
C90   H63   S    
C55   C56   A    
C64   C65   A    
N1    Zn2   S    
C15   C18   A    
C37   C38   A    
O4    Zn2   S    
C73   H49   S    
O2    Zn2   S    
C94   C95   A    
C74   H48   S    
C89   C90   A    
C71   H44   S    
C1    O1    A    
C71   C72   S    
O7    Zn1   S    
C20   C30   S    
C96   C97   A    
C95   C96   A    
C15   C19   A    
C63   H27   S    
C4    C13   T    
C69   H40   S    
C50   H16   S    
C72   H42   S    
O6    Zn2   S    
C29   N2    T    
C76   H51   S    
C70   H37   S    
C52   H18   S    
C93   C94   A    
C61   C66   A    
C25   C55   S    
C69   C70   S    
C45   H12   S    
C23   C26   S    
C86   H60   S    
C11   O5    A    
C97   C98   A    
C68   H32   S    
C65   C66   A    
C59   H24   S    
C56   H21   S    
C82   C83   A    
C51   H17   S    
C87   C88   A    
C16   C17   A    
C5    C87   S    
C84   C85   A    
C66   H30   S    
C23   C27   S    
C31   C36   A    
C54   H20   S    
C37   C42   A    
C56   C57   A    
C2    O2    A    
C22   C69   S    
C62   H26   S    
C82   H56   S    
C38   H6    S    
C71   H45   S    
C12   O6    A    
C92   H65   S    
C8    C81   S    
O3    Zn1   S    
C85   H59   S    
C60   H25   S    
C40   C41   A    
C93   C98   A    
C78   C79   A    
C36   H5    S    
C75   C80   A    
C69   H39   S    
C12   C27   S    
C45   C46   A    
C35   C36   A    
C58   H23   S    
C24   C25   S    
C76   C77   A    
C70   H38   S    
C59   C60   A    
C7    C75   S    
C2    O3    A    
C51   C52   A    
C8    C9    A    
C6    C8    A    
C40   H8    S    
C41   C42   A    
C50   C51   A    
C34   H3    S    
C68   H31   S    
C49   C54   A    
C94   H66   S    
C31   C32   A    
C44   H11   S    
C5    C9    A    
C53   H19   S    
C3    C9    S    
C24   C73   S    
C77   H52   S    
C21   C67   S    
C62   C63   A    
C16   C20   A    
C38   C39   A    
C42   H10   S    
C47   H14   S    
C84   H58   S    
C49   C50   A    
C41   H9    S    
C68   H33   S    
C98   H70   S    
C3    C14   T    
C67   H34   S    
C26   C61   S    
C72   H43   S    
C79   H54   S    
C21   C28   S    
C61   C62   A    
C83   H57   S    
C21   C23   S    
C22   C24   S    
C1    C13   S    
C81   C86   A    
N2    Zn1   S    
C4    C10   S    
C74   H46   S    
C19   C29   S    
C65   H29   S    
C18   C31   S    
C11   C28   S    
C55   C60   A    
C32   C33   A    
C5    C7    A    
C90   C91   A    
C6    C93   S    
C64   H28   S    
C39   C40   A    
C21   C25   S    
C34   C35   A    
C87   C92   A    
C80   H55   S    
C46   C47   A    
C73   H50   S    
C24   C28   S    
C53   C54   A    
C74   H47   S    
C78   H53   S    
C57   H22   S    
C23   C71   S    
C77   C78   A    
C35   H4    S    
C25   C27   S    
C75   C76   A    
C26   C28   S    
C83   C84   A    
C22   C27   S    
O1    Zn1   S    
C88   C89   A    
C12   O7    A    
C88   H61   S    
C73   C74   S    
C46   H13   S    
C91   H64   S    
C70   H36   S    
C33   H2    S    
C58   C59   A    
C30   N1    T    
C96   H68   S    
C97   H69   S    
O8    Zn2   S    
C63   C64   A    
C17   C19   A    
C44   C45   A    
C18   C20   A    
C81   C82   A    
O5    Zn1   S    
C11   O8    A    
C2    C14   S    
C47   C48   A    
C91   C92   A    
C6    C10   A    
C67   H35   S    
C89   H62   S    
C52   C53   A    
C33   C34   A    
C85   C86   A    
C43   C44   A    
C22   C26   S    
C67   C68   S    
C48   H15   S    
C39   H7    S    
C15   C49   S    
C16   C43   S    
C57   C58   A    
C79   C80   A    
C17   C37   S    
C43   C48   A    
C1    O4    A    
C72   H41   S    
