data_mof_unit_15197.cif
_audit_creation_date              2013-03-05T15:52:14-0500
_audit_creation_method            fapswitch 2.2
_symmetry_space_group_name_H-M    P1
_symmetry_Int_Tables_number       1
_space_group_crystal_system       triclinic
_cell_length_a                    37.051628
_cell_length_b                    30.222176
_cell_length_c                    21.381575
_cell_angle_alpha                 89.999782
_cell_angle_beta                  54.727495
_cell_angle_gamma                 89.999176
_cell_volume                      19547.1563127

loop_
_atom_site_label
_atom_site_type_symbol
_atom_site_description
_atom_site_fract_x
_atom_site_fract_y
_atom_site_fract_z
_atom_type_partial_charge
O1    O     O_R   0.066070 0.537300 0.433950 -0.555832
O2    O     O_R   0.933930 0.537300 0.566050 -0.555856
O3    O     O_R   0.566070 0.037300 0.433950 -0.555822
O4    O     O_R   0.433930 0.037300 0.566050 -0.555815
O5    O     O_R   0.066060 0.462690 0.433950 -0.627892
O6    O     O_R   0.933940 0.462690 0.566050 -0.627852
O7    O     O_R   0.566060 0.962690 0.433950 -0.627883
O8    O     O_R   0.433940 0.962690 0.566050 -0.627896
C1    C     C_R   0.086691 0.500189 0.415451 0.949144
C2    C     C_R   0.913308 0.500190 0.584555 0.948827
C3    C     C_R   0.586691 0.000189 0.415448 0.948948
C4    C     C_R   0.413308 0.000190 0.584556 0.948882
O9    O     O_R   0.999990 0.537300 0.593030 -0.608477
O10   O     O_R   0.000010 0.537300 0.406970 -0.608479
O11   O     O_R   0.499990 0.037300 0.593030 -0.608447
O12   O     O_R   0.500010 0.037300 0.406970 -0.608491
O13   O     O_R   0.999980 0.462680 0.593030 -0.608863
O14   O     O_R   0.000020 0.462680 0.406970 -0.608835
O15   O     O_R   0.499980 0.962680 0.593030 -0.608860
O16   O     O_R   0.500020 0.962680 0.406970 -0.608796
C5    C     C_R   1.000000 0.500095 0.621345 0.950631
C6    C     C_R   0.999995 0.500094 0.378660 0.950443
C7    C     C_R   0.500004 0.000094 0.621340 0.950494
C8    C     C_R   0.499995 0.000094 0.378660 0.950376
Zn1   Zn    Zn3+2 0.000000 0.549810 0.500000 1.138776
Zn2   Zn    Zn3+2 0.500000 0.049810 0.500000 1.138783
Zn3   Zn    Zn3+2 0.000000 0.450170 0.500000 1.035198
Zn4   Zn    Zn3+2 0.500000 0.950170 0.500000 1.035241
C9    C     C_3   0.032825 0.474312 0.696246 -0.130281
C10   C     C_3   0.967213 0.474260 0.303706 -0.130303
C11   C     C_3   0.532779 0.974247 0.696301 -0.130292
C12   C     C_3   0.467211 0.974262 0.303704 -0.130301
C13   C     C_3   0.993868 0.458786 0.777081 -0.250090
C14   C     C_3   0.006196 0.458799 0.222846 -0.250218
C15   C     C_3   0.493790 0.958799 0.777167 -0.250237
C16   C     C_3   0.506194 0.958800 0.222843 -0.250283
H1    H     H_    0.987149 0.425024 0.800753 0.244307
H2    H     H_    0.012989 0.425050 0.199102 0.244336
H3    H     H_    0.486986 0.925053 0.800923 0.244328
H4    H     H_    0.512987 0.925053 0.199091 0.244298
C17   C     C_3   0.000379 0.500660 0.810717 -0.133818
C18   C     C_3   0.999622 0.500665 0.189280 -0.133952
C19   C     C_3   0.500378 0.000663 0.810719 -0.133949
C20   C     C_3   0.499623 0.000669 0.189279 -0.133986
C21   C     C_3   0.038734 0.515560 0.730982 0.347833
C22   C     C_3   0.961242 0.515503 0.269040 0.347917
C23   C     C_3   0.538763 0.015487 0.730954 0.347913
C24   C     C_3   0.461244 0.015507 0.269039 0.347936
C25   C     C_3   0.006697 0.542541 0.722213 -0.228237
C26   C     C_3   0.993233 0.542530 0.277862 -0.228264
C27   C     C_3   0.506781 0.042527 0.722124 -0.228217
C28   C     C_3   0.493236 0.042530 0.277862 -0.228298
C29   C     C_3   0.967532 0.527366 0.803485 -0.248389
C30   C     C_3   0.032425 0.527420 0.196565 -0.248313
C31   C     C_3   0.467585 0.027431 0.803426 -0.248289
C32   C     C_3   0.532427 0.027420 0.196565 -0.248299
C33   C     C_3   0.961986 0.485873 0.768247 0.375247
C34   C     C_3   0.038033 0.485933 0.231736 0.375378
C35   C     C_3   0.461962 0.985946 0.768269 0.375353
C36   C     C_3   0.538032 0.985931 0.231735 0.375451
C37   C     C_3   0.000207 0.500587 0.688397 -0.191261
C38   C     C_3   0.999786 0.500583 0.311611 -0.191270
C39   C     C_3   0.500214 0.000583 0.688389 -0.191288
C40   C     C_3   0.499785 0.000581 0.311611 -0.191262
H5    H     H_    0.012539 0.576525 0.698461 0.225476
H6    H     H_    0.987335 0.576503 0.301674 0.225512
H7    H     H_    0.512691 0.076498 0.698301 0.225525
H8    H     H_    0.487339 0.076504 0.301674 0.225510
H9    H     H_    0.940356 0.548477 0.848773 0.191860
H10   H     H_    0.059568 0.548574 0.151315 0.191849
H11   H     H_    0.440449 0.048594 0.848670 0.191853
H12   H     H_    0.559571 0.048573 0.151315 0.191849
C41   C     C_R   0.342360 0.464230 0.127838 -0.112317
C42   C     C_R   0.657640 0.464231 0.872165 -0.112313
C43   C     C_R   0.842360 0.964233 0.127832 -0.112310
C44   C     C_R   0.157640 0.964231 0.872169 -0.112312
C45   C     C_R   0.365657 0.498962 0.133680 -0.208998
C46   C     C_R   0.634342 0.498962 0.866322 -0.208997
C47   C     C_R   0.865658 0.998963 0.133678 -0.208990
C48   C     C_R   0.134342 0.998962 0.866324 -0.208994
C49   C     C_R   0.343918 0.534557 0.183643 0.256900
C50   C     C_R   0.656080 0.534558 0.816363 0.256905
C51   C     C_R   0.843919 0.034558 0.183638 0.256901
C52   C     C_R   0.156079 0.034559 0.816368 0.256900
C53   C     C_R   0.297842 0.533142 0.237491 -0.034771
C54   C     C_R   0.702157 0.533147 0.762522 -0.034773
C55   C     C_R   0.797842 0.033147 0.237480 -0.034769
C56   C     C_R   0.202156 0.033150 0.762530 -0.034767
C57   C     C_R   0.273550 0.499627 0.230639 0.004234
C58   C     C_R   0.726449 0.499632 0.769375 0.004224
C59   C     C_R   0.773550 0.999633 0.230626 0.004231
C60   C     C_R   0.226449 0.999634 0.769381 0.004232
C61   C     C_R   0.295530 0.465780 0.173469 0.041319
C62   C     C_R   0.704470 0.465783 0.826540 0.041325
C63   C     C_R   0.795531 0.965786 0.173456 0.041319
C64   C     C_R   0.204469 0.965783 0.826544 0.041322
C65   C     C_R   0.275611 0.564357 0.298094 -0.044655
C66   C     C_R   0.724387 0.564366 0.701926 -0.044657
C67   C     C_R   0.775611 0.064365 0.298079 -0.044676
C68   C     C_R   0.224387 0.064371 0.701938 -0.044669
C69   C     C_R   0.229195 0.567239 0.342902 -0.065103
C70   C     C_R   0.770803 0.567251 0.657128 -0.065094
C71   C     C_R   0.729195 0.067248 0.342883 -0.065097
C72   C     C_R   0.270803 0.067256 0.657141 -0.065085
C73   C     C_R   0.204348 0.535484 0.333424 -0.051827
C74   C     C_R   0.795650 0.535493 0.666602 -0.051695
C75   C     C_R   0.704348 0.035490 0.333410 -0.051679
C76   C     C_R   0.295650 0.035497 0.666613 -0.051667
C77   C     C_R   0.227026 0.500277 0.280321 0.037847
C78   C     C_R   0.772973 0.500285 0.719699 0.037852
C79   C     C_R   0.727026 0.000285 0.280305 0.037858
C80   C     C_R   0.272973 0.000287 0.719705 0.037843
C81   C     C_R   0.202978 0.465886 0.275628 0.091316
C82   C     C_R   0.797022 0.465894 0.724391 0.091300
C83   C     C_R   0.702979 0.965896 0.275606 0.091306
C84   C     C_R   0.297021 0.965894 0.724394 0.091306
C85   C     C_R   0.224099 0.433390 0.219857 -0.215881
C86   C     C_R   0.775902 0.433396 0.780159 -0.215848
C87   C     C_R   0.724099 0.933401 0.219832 -0.215827
C88   C     C_R   0.275902 0.933396 0.780159 -0.215807
C89   C     C_R   0.269475 0.434384 0.165822 -0.011363
C90   C     C_R   0.730525 0.434388 0.834190 -0.011382
C91   C     C_R   0.769476 0.934394 0.165801 -0.011373
C92   C     C_R   0.230525 0.934388 0.834191 -0.011377
C93   C     C_R   0.157494 0.536762 0.375993 0.241492
C94   C     C_R   0.842504 0.536772 0.624035 0.241538
C95   C     C_R   0.657493 0.036766 0.375985 0.241538
C96   C     C_R   0.342503 0.036777 0.624048 0.241518
C97   C     C_R   0.134637 0.500827 0.371768 -0.185900
C98   C     C_R   0.865362 0.500834 0.628250 -0.186186
C99   C     C_R   0.634637 0.000831 0.371758 -0.186154
C100  C     C_R   0.365362 0.000835 0.628254 -0.186183
C101  C     C_R   0.157412 0.465359 0.323701 -0.236409
C102  C     C_R   0.842588 0.465366 0.676318 -0.236565
C103  C     C_R   0.657413 0.965367 0.323679 -0.236526
C104  C     C_R   0.342588 0.965366 0.676318 -0.236458
H13   H     H_    0.139379 0.438383 0.319987 0.208419
H14   H     H_    0.860622 0.438389 0.680028 0.208519
H15   H     H_    0.639379 0.938393 0.319961 0.208486
H16   H     H_    0.360622 0.938387 0.680025 0.208466
H17   H     H_    0.204582 0.408818 0.214609 0.172065
H18   H     H_    0.795419 0.408825 0.785408 0.172090
H19   H     H_    0.704583 0.908832 0.214578 0.172079
H20   H     H_    0.295419 0.908823 0.785406 0.172070
O17   O     O_R   0.962690 0.433950 0.037260 -0.584701
O18   O     O_R   0.037310 0.433950 0.962740 -0.584683
O19   O     O_R   0.462690 0.933950 0.037260 -0.584683
O20   O     O_R   0.537310 0.933950 0.962740 -0.584658
C105  C     C_R   0.000001 0.413536 0.999997 0.959611
C106  C     C_R   0.500000 0.913536 0.000001 0.959523
O21   O     O_R   0.962690 0.500030 0.944250 -0.603024
O22   O     O_R   0.037310 0.500030 0.055750 -0.602993
O23   O     O_R   0.462690 0.000030 0.944250 -0.602982
O24   O     O_R   0.537310 0.000030 0.055750 -0.602981
O25   O     O_R   0.037300 0.500060 0.869680 -0.576254
O26   O     O_R   0.962700 0.500060 0.130320 -0.576274
O27   O     O_R   0.537300 0.000060 0.869680 -0.576264
O28   O     O_R   0.462700 0.000060 0.130320 -0.576289
C107  C     C_R   0.000089 0.500461 0.878430 0.932554
C108  C     C_R   0.999911 0.500466 0.121569 0.932505
C109  C     C_R   0.500089 0.000464 0.878431 0.932484
C110  C     C_R   0.499911 0.000468 0.121569 0.932461
Zn5   Zn    Zn3+2 0.950180 0.500030 0.049790 1.134243
Zn6   Zn    Zn3+2 0.049820 0.500030 0.950210 1.134280
Zn7   Zn    Zn3+2 0.450180 0.000030 0.049790 1.134282
Zn8   Zn    Zn3+2 0.549820 0.000030 0.950210 1.134316
O29   O     O_R   0.962680 0.566120 0.037310 -0.587472
O30   O     O_R   0.037320 0.566120 0.962690 -0.587469
O31   O     O_R   0.462680 0.066120 0.037310 -0.587468
O32   O     O_R   0.537320 0.066120 0.962690 -0.587469
C111  C     C_R   1.000000 0.586805 0.000002 0.920419
C112  C     C_R   0.500000 0.086805 1.000000 0.920414
O33   O     O_R   0.499970 0.433870 0.052530 -0.633978
O34   O     O_R   0.500030 0.433870 0.947470 -0.633976
O35   O     O_R   0.999970 0.933870 0.052530 -0.633973
O36   O     O_R   0.000030 0.933870 0.947470 -0.633978
C113  C     C_R   0.500000 0.413323 1.000000 0.866975
C114  C     C_R   1.000000 0.913323 0.000000 0.866968
O37   O     O_R   0.433940 0.499980 0.118610 -0.593449
O38   O     O_R   0.566060 0.499980 0.881390 -0.593447
O39   O     O_R   0.933940 0.999980 0.118610 -0.593440
O40   O     O_R   0.066060 0.999980 0.881390 -0.593441
O41   O     O_R   0.433890 0.499970 0.013630 -0.622209
O42   O     O_R   0.566110 0.499970 0.986370 -0.622209
O43   O     O_R   0.933890 0.999970 0.013630 -0.622219
O44   O     O_R   0.066110 0.999970 0.986370 -0.622213
C115  C     C_R   0.413438 0.499014 0.086442 0.949638
C116  C     C_R   0.586562 0.499013 0.913558 0.949634
C117  C     C_R   0.913438 0.999013 0.086442 0.949619
C118  C     C_R   0.086562 0.999012 0.913559 0.949619
Zn9   Zn    Zn3+2 0.500020 0.499960 0.070090 1.071737
Zn10  Zn    Zn3+2 0.499980 0.499960 0.929910 1.071744
Zn11  Zn    Zn3+2 0.000020 0.999960 0.070090 1.071757
Zn12  Zn    Zn3+2 0.999980 0.999960 0.929910 1.071751
O45   O     O_R   0.500060 0.566050 0.052450 -0.559626
O46   O     O_R   0.499940 0.566050 0.947550 -0.559624
O47   O     O_R   0.000060 0.066050 0.052450 -0.559617
O48   O     O_R   0.999940 0.066050 0.947550 -0.559615
C119  C     C_R   0.500000 0.586776 1.000000 1.032128
C120  C     C_R   0.999999 0.086777 0.000000 1.032104
C121  C     C_R   0.520933 0.657892 0.028188 0.269918
C122  C     C_R   0.479071 0.657894 0.971806 0.269911
C123  C     C_R   0.020919 0.157893 0.028212 0.269931
C124  C     C_R   0.979079 0.157894 0.971789 0.269927
C125  C     C_R   0.500001 0.634869 0.999998 -0.282904
C126  C     C_R   0.999999 0.134869 0.000001 -0.282894
C127  C     C_R   0.478037 0.704129 0.973880 -0.039864
C128  C     C_R   0.521970 0.704128 0.026107 -0.039864
C129  C     C_R   0.978048 0.204130 0.973858 -0.039866
C130  C     C_R   0.021954 0.204129 0.026137 -0.039870
C131  C     C_R   0.500004 0.727332 0.999992 0.026916
C132  C     C_R   0.000001 0.227333 0.999996 0.026925
C133  C     C_R   0.453778 0.727422 0.953189 -0.191702
C134  C     C_R   0.546233 0.727420 0.046792 -0.191707
C135  C     C_R   0.953804 0.227423 0.953134 -0.191697
C136  C     C_R   0.046200 0.227421 0.046856 -0.191714
C137  C     C_R   0.952146 0.273307 0.955322 0.320539
C138  C     C_R   0.047863 0.273305 0.044659 0.320562
C139  C     C_R   0.452115 0.773306 0.955387 0.320555
C140  C     C_R   0.547897 0.773303 0.044591 0.320564
C141  C     C_R   0.977657 0.297032 0.974101 -0.077781
C142  C     C_R   0.022353 0.297032 0.025879 -0.077786
C143  C     C_R   0.477639 0.797032 0.974137 -0.077796
C144  C     C_R   0.522371 0.797031 0.025847 -0.077782
C145  C     C_R   0.000003 0.273832 0.999993 -0.050321
C146  C     C_R   0.500005 0.773831 0.999992 -0.050343
C147  C     C_R   0.982227 0.343169 0.966406 0.267134
C148  C     C_R   0.017785 0.343169 0.033569 0.267144
C149  C     C_R   0.482204 0.843169 0.966448 0.267159
C150  C     C_R   0.517803 0.843168 0.033543 0.267127
C151  C     C_R   0.000003 0.365872 0.999992 -0.310416
C152  C     C_R   0.500002 0.865872 0.999998 -0.310455
H21   H     H_    0.433937 0.710102 0.938751 0.224008
H22   H     H_    0.566074 0.710098 0.061228 0.224009
H23   H     H_    0.933974 0.210103 0.938674 0.224005
H24   H     H_    0.066030 0.210099 0.061317 0.224007
C153  C     C_R   0.527861 0.343181 0.931530 -0.188455
C154  C     C_R   0.472139 0.343181 0.068470 -0.188456
C155  C     C_R   0.027864 0.843180 0.931534 -0.188462
C156  C     C_R   0.972136 0.843182 0.068473 -0.188445
C157  C     C_R   0.500000 0.365738 1.000000 -0.073878
C158  C     C_R   0.999999 0.865738 0.000002 -0.073875
C159  C     C_R   0.470270 0.297061 0.068938 -0.007375
C160  C     C_R   0.529730 0.297060 0.931061 -0.007374
C161  C     C_R   0.970268 0.797061 0.068943 -0.007369
C162  C     C_R   0.029733 0.797059 0.931069 -0.007374
C163  C     C_R   0.500000 0.273769 1.000000 0.014710
C164  C     C_R   0.000001 0.773770 0.000007 0.014710
C165  C     C_R   0.437372 0.274251 0.135436 0.241596
C166  C     C_R   0.562628 0.274250 0.864563 0.241598
C167  C     C_R   0.937369 0.774253 0.135441 0.241594
C168  C     C_R   0.062635 0.774249 0.864574 0.241600
C169  C     C_R   0.933512 0.728164 0.132407 -0.105089
C170  C     C_R   0.066492 0.728161 0.867613 -0.105058
C171  C     C_R   0.433514 0.228163 0.132401 -0.105085
C172  C     C_R   0.566486 0.228162 0.867598 -0.105084
C173  C     C_R   0.967696 0.704286 0.067545 -0.056000
C174  C     C_R   0.032305 0.704285 0.932474 -0.055997
C175  C     C_R   0.467697 0.204285 0.067537 -0.056003
C176  C     C_R   0.532303 0.204284 0.932462 -0.056007
C177  C     C_R   0.000001 0.727402 0.000009 -0.045351
C178  C     C_R   0.500000 0.227401 0.999999 -0.045353
C179  C     C_R   0.970719 0.657895 0.068836 0.233214
C180  C     C_R   0.029280 0.657896 0.931179 0.233173
C181  C     C_R   0.470720 0.157896 0.068829 0.233209
C182  C     C_R   0.529279 0.157895 0.931169 0.233219
C183  C     C_R   0.999999 0.634961 0.000006 -0.303537
C184  C     C_R   0.499999 0.134961 0.999999 -0.303529
H25   H     H_    0.549872 0.362152 0.879890 0.198565
H26   H     H_    0.450129 0.362153 0.120110 0.198564
H27   H     H_    0.049876 0.862151 0.879895 0.198560
H28   H     H_    0.950123 0.862155 0.120111 0.198561
C185  C     C_R   0.207779 0.602070 0.402696 0.122617
C186  C     C_R   0.201985 0.644764 0.383860 -0.080340
C187  C     C_R   0.180995 0.677407 0.440284 -0.093550
C188  C     C_R   0.166339 0.667820 0.515372 -0.107620
C189  C     C_R   0.173488 0.625833 0.533829 -0.056017
C190  C     C_R   0.194131 0.592923 0.477721 -0.104148
H29   H     H_    0.212970 0.652369 0.325867 0.150003
H30   H     H_    0.175868 0.710047 0.425901 0.147152
H31   H     H_    0.149560 0.693037 0.559098 0.137635
H32   H     H_    0.162939 0.618765 0.591632 0.192475
H33   H     H_    0.199095 0.560344 0.492663 0.139180
C191  C     C_R   0.792217 0.602090 0.597349 0.122519
C192  C     C_R   0.798005 0.644781 0.616207 -0.080366
C193  C     C_R   0.818994 0.677432 0.559798 -0.093497
C194  C     C_R   0.833656 0.667857 0.484703 -0.107747
C195  C     C_R   0.826516 0.625873 0.466223 -0.056080
C196  C     C_R   0.805872 0.592955 0.522317 -0.103837
H34   H     H_    0.787015 0.652377 0.674205 0.150007
H35   H     H_    0.824114 0.710070 0.574199 0.147152
H36   H     H_    0.850434 0.693080 0.440988 0.137640
H37   H     H_    0.837074 0.618812 0.408413 0.192461
H38   H     H_    0.800914 0.560379 0.507358 0.139325
C197  C     C_R   0.707781 0.102088 0.402661 0.122518
C198  C     C_R   0.701992 0.144778 0.383801 -0.080380
C199  C     C_R   0.681004 0.177431 0.440208 -0.093496
C200  C     C_R   0.666342 0.167857 0.515304 -0.107769
C201  C     C_R   0.673483 0.125874 0.533785 -0.056088
C202  C     C_R   0.694128 0.092955 0.477692 -0.103785
H39   H     H_    0.712981 0.152373 0.325804 0.149993
H40   H     H_    0.675883 0.210068 0.425807 0.147147
H41   H     H_    0.649565 0.193082 0.559017 0.137640
H42   H     H_    0.662925 0.118814 0.591596 0.192457
H43   H     H_    0.699087 0.060380 0.492652 0.139333
C203  C     C_R   0.292218 0.102095 0.597361 0.122512
C204  C     C_R   0.298005 0.144786 0.616219 -0.080353
C205  C     C_R   0.318994 0.177437 0.559809 -0.093492
C206  C     C_R   0.333656 0.167861 0.484714 -0.107741
C207  C     C_R   0.326517 0.125876 0.466235 -0.056082
C208  C     C_R   0.305873 0.092959 0.522329 -0.103827
H44   H     H_    0.287015 0.152383 0.674216 0.150012
H45   H     H_    0.324113 0.210075 0.574209 0.147154
H46   H     H_    0.350434 0.193084 0.440999 0.137641
H47   H     H_    0.337075 0.118815 0.408424 0.192457
H48   H     H_    0.300915 0.060383 0.507371 0.139339
N1    N     N_R   0.133072 0.575153 0.419420 0.214434
O49   O     O_R   0.128228 0.607711 0.385036 -0.366101
O50   O     O_R   0.108555 0.573825 0.493924 -0.409149
N2    N     N_R   0.866923 0.575170 0.580631 0.214446
O51   O     O_R   0.871765 0.607717 0.615033 -0.366122
O52   O     O_R   0.891431 0.573861 0.506126 -0.409095
N3    N     N_R   0.633070 0.075155 0.419419 0.214432
O53   O     O_R   0.628217 0.107711 0.385043 -0.366095
O54   O     O_R   0.608564 0.073828 0.493922 -0.409143
N4    N     N_R   0.366920 0.075180 0.580662 0.214447
O55   O     O_R   0.371757 0.107721 0.615081 -0.366089
O56   O     O_R   0.391427 0.073884 0.506157 -0.409079
C209  C     C_R   0.286003 0.406152 0.097755 0.133474
C210  C     C_R   0.299459 0.425566 0.027731 -0.121626
C211  C     C_R   0.313035 0.398964 0.964201 -0.125303
C212  C     C_R   0.312555 0.352901 0.970538 -0.085305
C213  C     C_R   0.298032 0.333333 0.040630 -0.103984
C214  C     C_R   0.284297 0.359817 0.104348 -0.139683
H49   H     H_    0.299712 0.461220 0.022351 0.146043
H50   H     H_    0.323934 0.414061 0.910068 0.145893
H51   H     H_    0.323199 0.332363 0.921256 0.140758
H52   H     H_    0.297354 0.297671 0.045627 0.139296
H53   H     H_    0.272873 0.344338 0.158512 0.136711
C215  C     C_R   0.713996 0.406153 0.902254 0.133471
C216  C     C_R   0.700537 0.425565 0.972281 -0.121651
C217  C     C_R   0.686961 0.398960 0.035809 -0.125306
C218  C     C_R   0.687443 0.352897 0.029466 -0.085312
C219  C     C_R   0.701968 0.333333 0.959370 -0.103967
C220  C     C_R   0.715704 0.359818 0.895655 -0.139668
H54   H     H_    0.700283 0.461219 0.977666 0.146032
H55   H     H_    0.676060 0.414055 0.089944 0.145887
H56   H     H_    0.676798 0.332358 0.078745 0.140752
H57   H     H_    0.702649 0.297670 0.954369 0.139289
H58   H     H_    0.727131 0.344341 0.841488 0.136717
C221  C     C_R   0.786006 0.906164 0.097731 0.133476
C222  C     C_R   0.799467 0.925581 0.027707 -0.121634
C223  C     C_R   0.813045 0.898981 0.964173 -0.125297
C224  C     C_R   0.812563 0.852917 0.970507 -0.085358
C225  C     C_R   0.798036 0.833357 0.040599 -0.103850
C226  C     C_R   0.784299 0.859829 0.104321 -0.139719
H59   H     H_    0.799721 0.961235 0.022329 0.146044
H60   H     H_    0.823947 0.914080 0.910040 0.145898
H61   H     H_    0.823209 0.832382 0.921223 0.140761
H62   H     H_    0.797356 0.797685 0.045593 0.139257
H63   H     H_    0.772871 0.844347 0.158485 0.136718
C227  C     C_R   0.213997 0.906152 0.902254 0.133463
C228  C     C_R   0.200540 0.925562 0.972281 -0.121617
C229  C     C_R   0.186964 0.898957 0.035808 -0.125292
C230  C     C_R   0.187447 0.852894 0.029463 -0.085323
C231  C     C_R   0.201971 0.833333 0.959367 -0.103942
C232  C     C_R   0.215705 0.859817 0.895653 -0.139693
H64   H     H_    0.200286 0.961216 0.977668 0.146045
H65   H     H_    0.176065 0.914051 0.089943 0.145895
H66   H     H_    0.176803 0.832354 0.078741 0.140759
H67   H     H_    0.202651 0.797668 0.954365 0.139284
H68   H     H_    0.227131 0.844341 0.841487 0.136726
N5    N     N_R   0.541578 0.634436 0.058214 0.214992
O57   O     O_R   0.576777 0.610720 0.013230 -0.330334
O58   O     O_R   0.525294 0.637177 0.130699 -0.358791
N6    N     N_R   0.458422 0.634437 0.941788 0.214989
O59   O     O_R   0.474704 0.637173 0.869302 -0.358791
O60   O     O_R   0.423221 0.610726 0.986779 -0.330331
N7    N     N_R   0.041557 0.134437 0.058250 0.214991
O61   O     O_R   0.076767 0.110734 0.013270 -0.330319
O62   O     O_R   0.025257 0.137166 0.130744 -0.358787
N8    N     N_R   0.958439 0.134438 0.941755 0.214987
O63   O     O_R   0.974738 0.137164 0.869263 -0.358779
O64   O     O_R   0.923230 0.110736 0.986740 -0.330328
N9    N     N_R   0.920917 0.294729 0.946046 0.248873
O65   O     O_R   0.891122 0.320857 0.999587 -0.314263
O66   O     O_R   0.916617 0.281625 0.892691 -0.326620
N10   N     N_R   0.079097 0.294723 0.053926 0.248891
O67   O     O_R   0.108900 0.320837 0.000368 -0.314257
O68   O     O_R   0.083393 0.281625 0.107288 -0.326627
N11   N     N_R   0.420868 0.794726 0.946152 0.248885
O69   O     O_R   0.391073 0.820841 0.999721 -0.314293
O70   O     O_R   0.416554 0.781628 0.892811 -0.326622
N12   N     N_R   0.579147 0.794722 0.053817 0.248900
O71   O     O_R   0.608937 0.820841 0.000251 -0.314281
O72   O     O_R   0.583469 0.781620 0.107148 -0.326589
N13   N     N_R   0.974528 0.366076 0.916265 0.204264
O73   O     O_R   0.945615 0.397847 0.941778 -0.330348
O74   O     O_R   0.994039 0.352419 0.846051 -0.415941
N14   N     N_R   0.025502 0.366080 0.083684 0.204240
O75   O     O_R   0.054431 0.397835 0.058140 -0.330327
O76   O     O_R   0.005996 0.352434 0.153902 -0.416292
N15   N     N_R   0.474473 0.866080 0.916349 0.204252
O77   O     O_R   0.445543 0.897836 0.941906 -0.330293
O78   O     O_R   0.493967 0.852433 0.846134 -0.416261
N16   N     N_R   0.525535 0.866076 0.083642 0.204242
O79   O     O_R   0.554459 0.897836 0.058089 -0.330255
O80   O     O_R   0.506050 0.852421 0.153851 -0.416293
C233  C     C_R   0.070181 0.446595 0.633690 0.160638
C234  C     C_R   0.070103 0.400400 0.640721 -0.088627
C235  C     C_R   0.104943 0.375128 0.581886 -0.126535
C236  C     C_R   0.140096 0.395772 0.515906 -0.098313
C237  C     C_R   0.140454 0.441725 0.508638 -0.134030
C238  C     C_R   0.105532 0.467031 0.567084 -0.121898
H69   H     H_    0.043142 0.383800 0.691190 0.175682
H70   H     H_    0.104696 0.339516 0.587473 0.149504
H71   H     H_    0.167078 0.376183 0.470506 0.139319
H72   H     H_    0.167828 0.457729 0.457798 0.138303
H73   H     H_    0.106206 0.502555 0.560858 0.175440
C239  C     C_R   0.929865 0.446499 0.366178 0.160974
C240  C     C_R   0.929811 0.400336 0.358800 -0.088709
C241  C     C_R   0.894938 0.375031 0.417504 -0.126417
C242  C     C_R   0.859885 0.395613 0.483703 -0.098335
C243  C     C_R   0.859661 0.441534 0.491322 -0.133738
C244  C     C_R   0.894612 0.466870 0.432997 -0.121998
H74   H     H_    0.956681 0.383783 0.308145 0.176020
H75   H     H_    0.895076 0.339444 0.411636 0.149534
H76   H     H_    0.832876 0.375999 0.528999 0.139314
H77   H     H_    0.832360 0.457492 0.542328 0.138310
H78   H     H_    0.894037 0.502372 0.439477 0.174871
C245  C     C_R   0.570113 0.946473 0.633831 0.160955
C246  C     C_R   0.570132 0.900308 0.641195 -0.088693
C247  C     C_R   0.604986 0.874990 0.582484 -0.126425
C248  C     C_R   0.640054 0.895558 0.516291 -0.098354
C249  C     C_R   0.640314 0.941480 0.508687 -0.133756
C250  C     C_R   0.605382 0.966830 0.567020 -0.121965
H79   H     H_    0.543247 0.883766 0.691844 0.176004
H80   H     H_    0.604819 0.839402 0.588339 0.149546
H81   H     H_    0.667049 0.875934 0.470989 0.139316
H82   H     H_    0.667626 0.957428 0.457685 0.138324
H83   H     H_    0.605983 0.002332 0.560548 0.174893
C251  C     C_R   0.429854 0.946503 0.366163 0.161026
C252  C     C_R   0.429756 0.900349 0.358723 -0.088765
C253  C     C_R   0.394863 0.875050 0.417400 -0.126381
C254  C     C_R   0.359837 0.895627 0.483636 -0.098340
C255  C     C_R   0.359658 0.941539 0.491318 -0.133716
C256  C     C_R   0.394627 0.966870 0.433018 -0.122034
H84   H     H_    0.456602 0.883800 0.308034 0.176026
H85   H     H_    0.394965 0.839470 0.411480 0.149531
H86   H     H_    0.332811 0.876018 0.528910 0.139316
H87   H     H_    0.332376 0.957495 0.542351 0.138297
H88   H     H_    0.394087 0.002364 0.439543 0.174769
N17   N     N_R   0.406261 0.298174 0.204493 0.177820
O81   O     O_R   0.365058 0.301476 0.228918 -0.441761
O82   O     O_R   0.419288 0.316657 0.243217 -0.394213
N18   N     N_R   0.593738 0.298172 0.795505 0.177820
O83   O     O_R   0.634942 0.301474 0.771081 -0.441767
O84   O     O_R   0.580711 0.316655 0.756782 -0.394215
N19   N     N_R   0.906257 0.798176 0.204497 0.177821
O85   O     O_R   0.865053 0.801475 0.228921 -0.441763
O86   O     O_R   0.919283 0.816662 0.243220 -0.394211
N20   N     N_R   0.093749 0.798170 0.795517 0.177815
O87   O     O_R   0.134952 0.801468 0.771097 -0.441780
O88   O     O_R   0.080726 0.816653 0.756787 -0.394209
C257  C     C_R   0.889920 0.707218 0.188514 0.185426
C258  C     C_R   0.871197 0.706856 0.267402 0.038727
C259  C     C_R   0.828507 0.690173 0.319071 -0.142047
C260  C     C_R   0.804810 0.672657 0.292498 -0.086073
C261  C     C_R   0.823412 0.672391 0.214146 -0.088090
C262  C     C_R   0.865600 0.689932 0.162372 -0.116711
H89   H     H_    0.889223 0.720251 0.288806 0.150579
H90   H     H_    0.813379 0.691266 0.379891 0.119419
H91   H     H_    0.771880 0.659625 0.332713 0.132601
H92   H     H_    0.804937 0.659080 0.193583 0.138101
H93   H     H_    0.879247 0.690376 0.101876 0.125371
C263  C     C_R   0.110084 0.707212 0.811515 0.185404
C264  C     C_R   0.128814 0.706847 0.732625 0.038786
C265  C     C_R   0.171503 0.690157 0.680966 -0.142057
C266  C     C_R   0.195192 0.672637 0.707553 -0.086088
C267  C     C_R   0.176584 0.672373 0.785907 -0.088094
C268  C     C_R   0.134396 0.689921 0.837670 -0.116755
H94   H     H_    0.110794 0.720244 0.711210 0.150587
H95   H     H_    0.186636 0.691247 0.620144 0.119415
H96   H     H_    0.228121 0.659599 0.667346 0.132604
H97   H     H_    0.195052 0.659059 0.806481 0.138111
H98   H     H_    0.120744 0.690366 0.898168 0.125379
C269  C     C_R   0.389923 0.207218 0.188510 0.185418
C270  C     C_R   0.371201 0.206855 0.267397 0.038732
C271  C     C_R   0.328512 0.190171 0.319069 -0.142027
C272  C     C_R   0.304813 0.172656 0.292499 -0.086070
C273  C     C_R   0.323412 0.172391 0.214148 -0.088090
C274  C     C_R   0.365601 0.189933 0.162372 -0.116711
H99   H     H_    0.389229 0.220249 0.288799 0.150584
H100  H     H_    0.313386 0.191264 0.379888 0.119419
H101  H     H_    0.271884 0.159624 0.332717 0.132604
H102  H     H_    0.304936 0.159081 0.193587 0.138110
H103  H     H_    0.379245 0.190377 0.101877 0.125374
C275  C     C_R   0.610078 0.207215 0.811491 0.185424
C276  C     C_R   0.628802 0.206854 0.732603 0.038715
C277  C     C_R   0.671493 0.190171 0.680934 -0.142061
C278  C     C_R   0.695190 0.172655 0.707508 -0.086071
C279  C     C_R   0.676588 0.172389 0.785860 -0.088087
C280  C     C_R   0.634398 0.189930 0.837634 -0.116711
H104  H     H_    0.610776 0.220248 0.711199 0.150580
H105  H     H_    0.686621 0.191265 0.620114 0.119421
H106  H     H_    0.728121 0.159623 0.667292 0.132604
H107  H     H_    0.695063 0.159079 0.806423 0.138108
H108  H     H_    0.620752 0.190374 0.898129 0.125373
N21   N     N_R   0.949355 0.634930 0.140807 0.205077
O89   O     O_R   0.961602 0.642786 0.185802 -0.381047
O90   O     O_R   0.914793 0.610315 0.165327 -0.335620
N22   N     N_R   0.050638 0.634934 0.859206 0.205100
O91   O     O_R   0.038390 0.642805 0.814215 -0.380906
O92   O     O_R   0.085199 0.610316 0.834674 -0.335556
N23   N     N_R   0.449358 0.134930 0.140799 0.205075
O93   O     O_R   0.461609 0.142786 0.185790 -0.381047
O94   O     O_R   0.414795 0.110317 0.165325 -0.335616
N24   N     N_R   0.550644 0.134929 0.859199 0.205076
O95   O     O_R   0.538394 0.142783 0.814206 -0.381069
O96   O     O_R   0.585207 0.110316 0.834675 -0.335624
N25   N     N_R   0.081109 0.531940 0.711219 0.228929
O97   O     O_R   0.092921 0.572475 0.687966 -0.350967
O98   O     O_R   0.108319 0.505456 0.712554 -0.364188
N26   N     N_R   0.918839 0.531816 0.288838 0.229109
O99   O     O_R   0.906971 0.572338 0.312121 -0.351008
O100  O     O_R   0.891665 0.505287 0.287482 -0.364153
N27   N     N_R   0.581172 0.031784 0.711153 0.229093
O101  O     O_R   0.593050 0.072306 0.687872 -0.351014
O102  O     O_R   0.608337 0.005244 0.712512 -0.364157
N28   N     N_R   0.418841 0.031823 0.288839 0.229147
O103  O     O_R   0.406975 0.072345 0.312125 -0.351000
O104  O     O_R   0.391665 0.005296 0.287484 -0.364140
N29   N     N_R   0.919109 0.469508 0.790372 0.221374
O105  O     O_R   0.889918 0.457255 0.860720 -0.317852
O106  O     O_R   0.909354 0.467817 0.740975 -0.414764
N30   N     N_R   0.080934 0.469632 0.209591 0.221380
O107  O     O_R   0.110149 0.457433 0.139221 -0.318009
O108  O     O_R   0.090682 0.467939 0.258997 -0.414772
N31   N     N_R   0.419056 0.969661 0.790419 0.221379
O109  O     O_R   0.389836 0.957474 0.860794 -0.318031
O110  O     O_R   0.409309 0.967969 0.741012 -0.414751
N32   N     N_R   0.580932 0.969626 0.209590 0.221384
O111  O     O_R   0.610147 0.957428 0.139219 -0.317996
O112  O     O_R   0.590679 0.967929 0.258997 -0.414746
C281  C     C_R   0.367319 0.425128 0.078972 0.086542
C282  C     C_R   0.391235 0.427580 0.998694 -0.086083
C283  C     C_R   0.412867 0.390273 0.953494 -0.105181
C284  C     C_R   0.409981 0.349974 0.987982 -0.116107
C285  C     C_R   0.385811 0.347061 0.067643 -0.130110
C286  C     C_R   0.365308 0.384637 0.113090 -0.147464
H109  H     H_    0.392078 0.458068 0.971288 0.150594
H110  H     H_    0.431134 0.392417 0.891808 0.139628
H111  H     H_    0.426182 0.320913 0.953073 0.146982
H112  H     H_    0.382866 0.315524 0.093961 0.174630
H113  H     H_    0.346637 0.381908 0.174807 0.177636
C287  C     C_R   0.632683 0.425128 0.921027 0.086544
C288  C     C_R   0.608765 0.427579 0.001306 -0.086080
C289  C     C_R   0.587133 0.390271 0.046503 -0.105181
C290  C     C_R   0.590021 0.349973 0.012011 -0.116114
C291  C     C_R   0.614193 0.347061 0.932350 -0.130116
C292  C     C_R   0.634696 0.384638 0.886906 -0.147463
H114  H     H_    0.607920 0.458066 0.028715 0.150592
H115  H     H_    0.568865 0.392414 0.108189 0.139627
H116  H     H_    0.573821 0.320911 0.046918 0.146981
H117  H     H_    0.617138 0.315525 0.906030 0.174639
H118  H     H_    0.653367 0.381910 0.825188 0.177630
C293  C     C_R   0.867318 0.925128 0.078970 0.086539
C294  C     C_R   0.891237 0.927579 0.998691 -0.086080
C295  C     C_R   0.912869 0.890270 0.953495 -0.105178
C296  C     C_R   0.909979 0.849972 0.987988 -0.116123
C297  C     C_R   0.885805 0.847061 0.067649 -0.130123
C298  C     C_R   0.865302 0.884638 0.113093 -0.147458
H119  H     H_    0.892084 0.958066 0.971282 0.150595
H120  H     H_    0.931138 0.892413 0.891809 0.139630
H121  H     H_    0.926178 0.820910 0.953082 0.146983
H122  H     H_    0.882857 0.815524 0.093971 0.174639
H123  H     H_    0.846629 0.881910 0.174811 0.177635
C299  C     C_R   0.132682 0.925130 0.921036 0.086544
C300  C     C_R   0.108766 0.927585 0.001315 -0.086080
C301  C     C_R   0.087133 0.890278 0.046517 -0.105180
C302  C     C_R   0.090019 0.849979 0.012031 -0.116108
C303  C     C_R   0.114189 0.847064 0.932370 -0.130109
C304  C     C_R   0.134693 0.884639 0.886921 -0.147470
H124  H     H_    0.107923 0.958073 0.028719 0.150593
H125  H     H_    0.068867 0.892424 0.108202 0.139626
H126  H     H_    0.073818 0.820919 0.046942 0.146979
H127  H     H_    0.117134 0.815526 0.906054 0.174637
H128  H     H_    0.153363 0.881908 0.825204 0.177637
N33   N     N_R   0.368088 0.574664 0.171543 0.199247
O113  O     O_R   0.359676 0.609909 0.147141 -0.360260
O114  O     O_R   0.396819 0.576792 0.187973 -0.371705
N34   N     N_R   0.631907 0.574664 0.828462 0.199242
O115  O     O_R   0.640312 0.609909 0.852873 -0.360276
O116  O     O_R   0.603179 0.576790 0.812022 -0.371703
N35   N     N_R   0.868092 0.074664 0.171539 0.199228
O117  O     O_R   0.859693 0.109906 0.147114 -0.360274
O118  O     O_R   0.896818 0.076790 0.187982 -0.371693
N36   N     N_R   0.131905 0.074664 0.828469 0.199226
O119  O     O_R   0.140300 0.109906 0.852900 -0.360265
O120  O     O_R   0.103181 0.076791 0.812022 -0.371694
C305  C     C_R   0.299728 0.589176 0.323659 0.135540
C306  C     C_R   0.315315 0.566438 0.360922 -0.131224
C307  C     C_R   0.336975 0.589358 0.387066 -0.090203
C308  C     C_R   0.343116 0.635080 0.376375 -0.087483
C309  C     C_R   0.327612 0.657969 0.339504 -0.111086
C310  C     C_R   0.305925 0.635189 0.313298 -0.045024
H129  H     H_    0.310527 0.531043 0.369863 0.131937
H130  H     H_    0.348945 0.571681 0.415719 0.140941
H131  H     H_    0.359894 0.652770 0.396644 0.139618
H132  H     H_    0.332444 0.693363 0.331150 0.142494
H133  H     H_    0.294411 0.653244 0.284258 0.143817
C311  C     C_R   0.700273 0.589185 0.676356 0.135527
C312  C     C_R   0.684693 0.566448 0.639081 -0.131214
C313  C     C_R   0.663035 0.589368 0.612932 -0.090207
C314  C     C_R   0.656890 0.635090 0.623630 -0.087488
C315  C     C_R   0.672385 0.657978 0.660512 -0.111076
C316  C     C_R   0.694070 0.635197 0.686724 -0.045027
H134  H     H_    0.689485 0.531054 0.630134 0.131954
H135  H     H_    0.651071 0.571692 0.584270 0.140944
H136  H     H_    0.640113 0.652779 0.603357 0.139616
H137  H     H_    0.667550 0.693371 0.668872 0.142512
H138  H     H_    0.705578 0.653251 0.715773 0.143824
C317  C     C_R   0.799726 0.089187 0.323643 0.135523
C318  C     C_R   0.815306 0.066454 0.360922 -0.131208
C319  C     C_R   0.836965 0.089377 0.387066 -0.090202
C320  C     C_R   0.843110 0.135098 0.376360 -0.087477
C321  C     C_R   0.827615 0.157982 0.339474 -0.111071
C322  C     C_R   0.805929 0.135199 0.313268 -0.045035
H139  H     H_    0.810514 0.031060 0.369875 0.131960
H140  H     H_    0.848929 0.071704 0.415731 0.140948
H141  H     H_    0.859888 0.152790 0.396630 0.139620
H142  H     H_    0.832450 0.193375 0.331108 0.142505
H143  H     H_    0.794420 0.153250 0.284216 0.143820
C323  C     C_R   0.200273 0.089195 0.676371 0.135525
C324  C     C_R   0.184697 0.066463 0.639087 -0.131206
C325  C     C_R   0.163040 0.089388 0.612940 -0.090212
C326  C     C_R   0.156892 0.135109 0.623650 -0.087468
C327  C     C_R   0.172385 0.157991 0.660542 -0.111044
C328  C     C_R   0.194069 0.135207 0.686751 -0.045049
H144  H     H_    0.189491 0.031069 0.630131 0.131954
H145  H     H_    0.151078 0.071716 0.584271 0.140947
H146  H     H_    0.140116 0.152802 0.603379 0.139632
H147  H     H_    0.167548 0.193384 0.668911 0.142553
H148  H     H_    0.205575 0.153256 0.715807 0.143829

loop_
_geom_bond_atom_site_label_1
_geom_bond_atom_site_label_2
_geom_bond_distance
_ccdc_geom_bond_type
C67   C71   1.407195 A    
C293  C294  1.407247 A    
C101  H13   1.085678 S    
C327  C328  1.397733 A    
C31   C35   1.536643 S    
C87   H19   1.086594 S    
O44   Zn11  2.034237 S    
C14   C18   1.541830 S    
C41   C61   1.417589 A    
C104  H16   1.085678 S    
C29   H9    1.110164 S    
C267  C268  1.396949 A    
C133  C139  1.387663 A    
C143  C146  1.418832 A    
C43   C63   1.417587 A    
C306  H129  1.083127 S    
C288  C289  1.397527 A    
C179  C183  1.406877 A    
N8    O63   1.301133 A    
C193  H35   1.082210 S    
C173  C177  1.417665 A    
C239  C240  1.404190 A    
N15   O78   1.301284 A    
C61   C89   1.428758 A    
C319  C320  1.397637 A    
C55   C59   1.417692 A    
C217  H55   1.082179 S    
N13   O74   1.301292 A    
N32   O111  1.300197 A    
N20   O88   1.300811 A    
C276  C277  1.399452 A    
C141  C145  1.418822 A    
C119  C125  1.453454 S    
C106  C152  1.440513 S    
C294  C295  1.397527 A    
N28   O103  1.299316 A    
C279  C280  1.396949 A    
C154  H26   1.083050 S    
C208  H48   1.083142 S    
C219  H57   1.081967 S    
C214  H53   1.083088 S    
C51   N35   1.438968 S    
C187  C188  1.396266 A    
C301  C302  1.395510 A    
C32   H12   1.110168 S    
C88   H20   1.086594 S    
C199  H40   1.082207 S    
C123  C130  1.397859 A    
C111  C183  1.455379 S    
N4    O55   1.301249 A    
O40   Zn12  2.034021 S    
O4    C4    1.284160 A    
C48   C52   1.397656 A    
C285  C286  1.399451 A    
C81   C101  1.379469 A    
C293  C298  1.404417 A    
C179  N21   1.438587 S    
C281  C286  1.404417 A    
C165  N17   1.437327 S    
C284  H111  1.082304 S    
C98   C102  1.384096 A    
C150  N16   1.436411 S    
C133  H21   1.082503 S    
C315  C316  1.397734 A    
C320  C321  1.397466 A    
C171  C175  1.421146 A    
C137  C141  1.416737 A    
C243  H77   1.082169 S    
C65   C305  1.491304 S    
C210  C211  1.398374 A    
C89   C209  1.480476 S    
N3    O53   1.301252 A    
C192  H34   1.083106 S    
C23   N27   1.456893 S    
Zn6   O30   2.032853 S    
O19   C106  1.286238 A    
C215  C216  1.404417 A    
C54   C58   1.417694 A    
N21   O90   1.301038 A    
N36   O119  1.300674 A    
O29   C111  1.290440 A    
O16   Zn4   2.024319 S    
C213  C214  1.398199 A    
O33   Zn9   2.032566 S    
O13   C5    1.282834 A    
O7    Zn4   2.033794 S    
C9    C21   1.530162 S    
O44   C118  1.279164 A    
O15   C7    1.282810 A    
C271  H100  1.079136 S    
C247  C248  1.397822 A    
C46   C50   1.397661 A    
O4    Zn2   2.034040 S    
C225  C226  1.398036 A    
C30   H10   1.110165 S    
C238  H73   1.080366 S    
C216  H54   1.083139 S    
C222  C223  1.398375 A    
C203  C204  1.404665 A    
O42   Zn9   2.034237 S    
O9    C5    1.277147 A    
C302  H126  1.082306 S    
N30   O107  1.300197 A    
C150  C152  1.402353 A    
O34   C113  1.282846 A    
C290  H116  1.082305 S    
C97   C101  1.384099 A    
C132  C145  1.405289 A    
C62   C90   1.428757 A    
N14   O76   1.301283 A    
C291  C292  1.399454 A    
C298  H123  1.082781 S    
C165  C171  1.405523 A    
N29   O106  1.299855 A    
C326  C327  1.397466 A    
O8    Zn4   2.033786 S    
N16   O80   1.301287 A    
C16   C20   1.541820 S    
C200  C201  1.398867 A    
C176  C182  1.408003 A    
C242  C243  1.396846 A    
C240  H74   1.081275 S    
C74   C94   1.420832 A    
C289  C290  1.395510 A    
C191  C192  1.404661 A    
C4    C100  1.453377 S    
C153  C160  1.395344 A    
C173  C179  1.408012 A    
O3    Zn2   2.034026 S    
C174  C180  1.407985 A    
C281  C282  1.407247 A    
C185  C190  1.403036 A    
C170  C263  1.486873 S    
C33   C37   1.525038 S    
N24   O95   1.300805 A    
C87   C91   1.385280 A    
C141  C147  1.402777 A    
C35   C39   1.525060 S    
C257  C262  1.406793 A    
C160  C163  1.416447 A    
C73   C93   1.420840 A    
C36   C40   1.525072 S    
C187  H30   1.082210 S    
C75   C95   1.420843 A    
C286  H113  1.082782 S    
C112  C184  1.455373 S    
C134  C140  1.387664 A    
C230  C231  1.397798 A    
C44   C64   1.417586 A    
C182  N24   1.438592 S    
C318  H139  1.083127 S    
C25   C29   1.556748 S    
C304  H128  1.082782 S    
C264  H94   1.082790 S    
C303  C304  1.399453 A    
C270  C271  1.399453 A    
C121  C128  1.397862 A    
C263  C268  1.406790 A    
C283  H110  1.082076 S    
C27   C31   1.556757 S    
C254  C255  1.396824 A    
C95   C99   1.411810 A    
O3    C3    1.284169 A    
C205  H45   1.082209 S    
C199  C200  1.396271 A    
C93   C97   1.411798 A    
C24   C28   1.538180 S    
O37   Zn9   2.034023 S    
C258  C259  1.399456 A    
C47   C117  1.445374 S    
C161  C164  1.416444 A    
C14   C34   1.535922 S    
C41   C45   1.409646 A    
C71   C75   1.423098 A    
C21   C25   1.538197 S    
O40   C118  1.286245 A    
C305  C306  1.404272 A    
C43   C47   1.409641 A    
C231  H67   1.082030 S    
O35   Zn11  2.032566 S    
C148  C151  1.402342 A    
C31   H11   1.110170 S    
C20   C24   1.526678 S    
O28   Zn7   2.025459 S    
O21   C107  1.283999 A    
O36   C114  1.282846 A    
N9    O66   1.301379 A    
C202  H43   1.083142 S    
C147  C151  1.402339 A    
C189  H32   1.080747 S    
C309  C310  1.397733 A    
C9    C13   1.552292 S    
C122  N6    1.437696 S    
C228  H64   1.083136 S    
C221  C222  1.404420 A    
C68   C72   1.407190 A    
C138  N10   1.436106 S    
C295  H120  1.082078 S    
N19   O86   1.300811 A    
C311  C316  1.406011 A    
C129  C135  1.399464 A    
C155  C162  1.395343 A    
C12   C16   1.552306 S    
C9    C233  1.506080 S    
C236  C237  1.396668 A    
C136  C138  1.387662 A    
C186  C187  1.396416 A    
C149  C152  1.402348 A    
C262  H93   1.083321 S    
C148  N14   1.436397 S    
C227  C228  1.404420 A    
C321  C322  1.397733 A    
C60   C64   1.433218 A    
C229  C230  1.397839 A    
N1    O50   1.301218 A    
C300  H124  1.082669 S    
C86   C90   1.385282 A    
C204  C205  1.396419 A    
C323  C328  1.406011 A    
C328  H148  1.082224 S    
O19   Zn7   2.032613 S    
C256  H88   1.080452 S    
C326  H146  1.082271 S    
C53   C57   1.417688 A    
O30   C111  1.290444 A    
C245  C246  1.404090 A    
N10   O67   1.301212 A    
C244  H78   1.080480 S    
C95   N3    1.434158 S    
C15   C19   1.541840 S    
C211  H50   1.082180 S    
C78   C82   1.409801 A    
C12   C251  1.506077 S    
C142  C148  1.402782 A    
C171  C269  1.486866 S    
C241  H75   1.082485 S    
C278  C279  1.395756 A    
C127  C131  1.410961 A    
C239  C244  1.403925 A    
C302  C303  1.396140 A    
O39   C117  1.286245 A    
O46   C119  1.285668 A    
C261  C262  1.396948 A    
C318  C319  1.398038 A    
N6    O60   1.300373 A    
C308  H131  1.082268 S    
C185  C186  1.404660 A    
C209  C214  1.405175 A    
O45   C119  1.285668 A    
C166  C172  1.405524 A    
C9    C37   1.534138 S    
C10   C14   1.552303 S    
C248  H81   1.082335 S    
O25   C107  1.279874 A    
C186  H29   1.083108 S    
O13   Zn3   2.024320 S    
C11   C39   1.534160 S    
O26   C108  1.279878 A    
C53   C65   1.419440 A    
C212  C213  1.397837 A    
C12   C40   1.534168 S    
C49   N33   1.438967 S    
N12   O71   1.301214 A    
C266  H96   1.082358 S    
C11   C245  1.506078 S    
O17   Zn5   2.032613 S    
C142  C145  1.418830 A    
C301  H125  1.082078 S    
O18   Zn6   2.032624 S    
C154  C159  1.395343 A    
C122  C125  1.410275 A    
C84   C88   1.386051 A    
C253  C254  1.397838 A    
N3    O54   1.301221 A    
C24   N28   1.456888 S    
C229  H65   1.082179 S    
O5    C1    1.294589 A    
N35   O117  1.300674 A    
C100  C104  1.384099 A    
C82   C102  1.379469 A    
C137  N9    1.436111 S    
C27   H7    1.110261 S    
C76   C96   1.420826 A    
O15   Zn4   2.024320 S    
N25   O98   1.300412 A    
C17   C29   1.540733 S    
C234  C235  1.398845 A    
C232  H68   1.083089 S    
C182  C184  1.406874 A    
C81   C85   1.386054 A    
C230  H66   1.082201 S    
C19   C31   1.540738 S    
C243  C244  1.397629 A    
N26   O100  1.300411 A    
Zn8   O32   2.032853 S    
C130  C132  1.410959 A    
C122  C127  1.397860 A    
C227  C232  1.405176 A    
C241  C242  1.397853 A    
C215  C220  1.405176 A    
N23   O93   1.300808 A    
C80   C84   1.409801 A    
C139  N11   1.436107 S    
C63   C91   1.428751 A    
C312  H134  1.083127 S    
N11   O70   1.301383 A    
C73   C77   1.423183 A    
C123  N7    1.437693 S    
C17   C21   1.526690 S    
C166  N18   1.437328 S    
C235  H70   1.082333 S    
O14   C6    1.282808 A    
C75   C79   1.423189 A    
C10   C22   1.530134 S    
C18   C108  1.441647 S    
C44   C48   1.409644 A    
N34   O115  1.300673 A    
C212  H51   1.082202 S    
C253  H85   1.082462 S    
O48   C120  1.285671 A    
O43   C117  1.279167 A    
C85   C89   1.385285 A    
C172  C275  1.486868 S    
C66   C311  1.491305 S    
C275  C280  1.406789 A    
C290  C291  1.396141 A    
C153  C157  1.388616 A    
C190  H33   1.083143 S    
O10   C6    1.277172 A    
C21   N25   1.456878 S    
C233  C234  1.404018 A    
N13   O73   1.300846 A    
N32   O112  1.299855 A    
C324  H144  1.083126 S    
Zn12  O48   2.032526 S    
C52   C56   1.404222 A    
C19   C23   1.526695 S    
C180  C183  1.406864 A    
C45   C115  1.445383 S    
C172  C176  1.421146 A    
N28   O104  1.300416 A    
C200  H41   1.081728 S    
C57   C61   1.433215 A    
C265  C266  1.396467 A    
Zn9   O45   2.032523 S    
C250  H83   1.080412 S    
C59   C63   1.433218 A    
C169  C173  1.421146 A    
C188  H31   1.081724 S    
C121  N5    1.437694 S    
C188  C189  1.398870 A    
C276  H104  1.082794 S    
C305  C310  1.406011 A    
N31   O109  1.300201 A    
C121  C125  1.410273 A    
C194  H36   1.081726 S    
N4    O56   1.301220 A    
C291  H117  1.079864 S    
C251  C252  1.404166 A    
C309  H132  1.082253 S    
C49   C53   1.404225 A    
C317  C322  1.406009 A    
O34   Zn10  2.032563 S    
C34   C38   1.525060 S    
C51   C55   1.404230 A    
C316  H138  1.082223 S    
C237  C238  1.397609 A    
C159  C165  1.407479 A    
C268  H98   1.083322 S    
C265  H95   1.079137 S    
O20   Zn8   2.032624 S    
C273  H102  1.082272 S    
C42   C62   1.417586 A    
C113  C157  1.438110 S    
C266  C267  1.395753 A    
C140  C144  1.416741 A    
O43   Zn12  2.034243 S    
C278  H106  1.082355 S    
C92   C227  1.480476 S    
O41   Zn10  2.034243 S    
C248  C249  1.396749 A    
N7    O61   1.300371 A    
C223  C224  1.397838 A    
C280  H108  1.083322 S    
N6    O59   1.301136 A    
C260  C261  1.395754 A    
C154  C157  1.388617 A    
C26   C30   1.556754 S    
Zn10  O46   2.032526 S    
C69   C185  1.483449 S    
C34   N30   1.457501 S    
N5    O58   1.301136 A    
C74   C78   1.423182 A    
N21   O89   1.300805 A    
N36   O120  1.301054 A    
O37   C115  1.286243 A    
C94   C98   1.411814 A    
C258  H89   1.082790 S    
C129  C132  1.410962 A    
C15   C35   1.535925 S    
C282  C283  1.397527 A    
C18   C22   1.526686 S    
C233  C238  1.403873 A    
N17   O82   1.300811 A    
C86   H18   1.086596 S    
C231  C232  1.398146 A    
C93   N1    1.434150 S    
O38   C116  1.286240 A    
C307  H130  1.082237 S    
C25   H5    1.110256 S    
C91   C221  1.480477 S    
C254  H86   1.082339 S    
N15   O77   1.300844 A    
O26   Zn5   2.025459 S    
C131  C146  1.405292 A    
N22   O92   1.301037 A    
C124  C129  1.397864 A    
C120  C126  1.453466 S    
C228  C229  1.398374 A    
C269  C274  1.406792 A    
O8    C4    1.294615 A    
C124  N8    1.437689 S    
C5    C37   1.438193 S    
O6    Zn3   2.033786 S    
C279  H107  1.082273 S    
O23   Zn7   2.024623 S    
C7    C39   1.438186 S    
C259  H90   1.079137 S    
C161  C167  1.407484 A    
C297  C298  1.399453 A    
C8    C40   1.438185 S    
C11   C23   1.530137 S    
N29   O105  1.300196 A    
Zn7   O31   2.032865 S    
C12   C24   1.530131 S    
C134  H22   1.082502 S    
C20   C110  1.441634 S    
N17   O81   1.300993 A    
C201  H42   1.080745 S    
C263  C264  1.405364 A    
O24   C110  1.283984 A    
C58   C62   1.433216 A    
O35   C114  1.282843 A    
C207  H47   1.080747 S    
N33   O114  1.301054 A    
O12   Zn2   2.024533 S    
C123  C126  1.410275 A    
N8    O64   1.300372 A    
C25   C37   1.545681 S    
C277  H105  1.079138 S    
C300  C301  1.397525 A    
C105  C151  1.440507 S    
C70   C191  1.483455 S    
N11   O69   1.301214 A    
C138  C142  1.416739 A    
O1    C1    1.284185 A    
C22   N26   1.456886 S    
C322  H143  1.082227 S    
C197  C198  1.404663 A    
C240  C241  1.398853 A    
C29   C33   1.536634 S    
N20   O87   1.300995 A    
C60   C80   1.409044 A    
C23   C27   1.538187 S    
C168  N20   1.437328 S    
C296  C297  1.396141 A    
C50   C54   1.404223 A    
C180  N22   1.438581 S    
C72   C203  1.483457 S    
C76   C80   1.423175 A    
C83   C87   1.386054 A    
C144  C146  1.418828 A    
C217  C218  1.397835 A    
N2    O52   1.301220 A    
C274  H103  1.083322 S    
O47   C120  1.285671 A    
C15   H3    1.101743 S    
C211  C212  1.397839 A    
C2    C98   1.453374 S    
C192  C193  1.396419 A    
O41   C115  1.279173 A    
O18   C105  1.286224 A    
C20   C32   1.540737 S    
C194  C195  1.398867 A    
C10   C239  1.506078 S    
C67   C317  1.491302 S    
O20   C106  1.286230 A    
C176  C178  1.417665 A    
C297  H122  1.079867 S    
C197  C202  1.403038 A    
C27   C39   1.545689 S    
C56   C60   1.417699 A    
C195  H37   1.080747 S    
C71   C197  1.483455 S    
C252  H84   1.081257 S    
C56   C68   1.419440 A    
C160  C166  1.407478 A    
N35   O118  1.301052 A    
C191  C196  1.403038 A    
C159  C163  1.416449 A    
C10   C38   1.534152 S    
C28   C40   1.545687 S    
C136  H24   1.082503 S    
C11   C15   1.552312 S    
O27   C109  1.279873 A    
C72   C76   1.423091 A    
C287  C288  1.407247 A    
C168  C170  1.405520 A    
C164  C177  1.401342 A    
N27   O102  1.300418 A    
C207  C208  1.397762 A    
C128  C134  1.399463 A    
C221  C226  1.405175 A    
C203  C208  1.403038 A    
N30   O108  1.299854 A    
N23   O94   1.301038 A    
O6    C2    1.294607 A    
N24   O96   1.301040 A    
C206  H46   1.081728 S    
C245  C250  1.403900 A    
C84   C104  1.379471 A    
C103  H15   1.085682 S    
C99   C103  1.384089 A    
C196  H38   1.083141 S    
C198  C199  1.396419 A    
C43   C293  1.492474 S    
C234  H69   1.081242 S    
C66   C70   1.407193 A    
C267  H97   1.082272 S    
C18   C30   1.540737 S    
C94   N2    1.434158 S    
C306  C307  1.398036 A    
C315  H137  1.082255 S    
O32   C112  1.290440 A    
C213  H52   1.081937 S    
C128  C131  1.410962 A    
C130  C136  1.399462 A    
C308  C309  1.397467 A    
C283  C284  1.395509 A    
C325  H145  1.082240 S    
O2    Zn1   2.034040 S    
C68   C323  1.491306 S    
O10   Zn1   2.024533 S    
C54   C66   1.419439 A    
C13   H1    1.101711 S    
N7    O62   1.301134 A    
C139  C143  1.416741 A    
C32   C36   1.536635 S    
N10   O68   1.301380 A    
C42   C46   1.409641 A    
O23   C109  1.283993 A    
C314  C315  1.397465 A    
N16   O79   1.300844 A    
O24   Zn8   2.024627 S    
C153  H25   1.083050 S    
O36   Zn12  2.032563 S    
C237  H72   1.082124 S    
O17   C105  1.286242 A    
C292  H118  1.082781 S    
C114  C158  1.438110 S    
C287  C292  1.404415 A    
C218  C219  1.397826 A    
O22   C108  1.283989 A    
C255  C256  1.397632 A    
C288  H114  1.082670 S    
N31   O110  1.299855 A    
C209  C210  1.404419 A    
C85   H17   1.086595 S    
C317  C318  1.404271 A    
C127  C133  1.399462 A    
C201  C202  1.397763 A    
C175  C178  1.417666 A    
C324  C325  1.398035 A    
C162  C168  1.407484 A    
C206  C207  1.398867 A    
C277  C278  1.396467 A    
O7    C3    1.294600 A    
C264  C265  1.399458 A    
C83   C103  1.379467 A    
C327  H147  1.082255 S    
C284  C285  1.396143 A    
C52   N36   1.438966 S    
C204  H44   1.083105 S    
C144  C150  1.402786 A    
C135  C137  1.387664 A    
C193  C194  1.396271 A    
Zn11  O47   2.032523 S    
C167  C169  1.405527 A    
C260  H91   1.082355 S    
C170  C174  1.421138 A    
C59   C79   1.409052 A    
C224  H61   1.082202 S    
C57   C77   1.409051 A    
C220  H58   1.083087 S    
C143  C149  1.402780 A    
C251  C256  1.403909 A    
C35   N31   1.457499 S    
C169  C257  1.486868 S    
C235  C236  1.397782 A    
C195  C196  1.397763 A    
C17   C107  1.441666 S    
C299  C304  1.404414 A    
C47   C51   1.397660 A    
C247  H80   1.082402 S    
C273  C274  1.396947 A    
C314  H136  1.082270 S    
C45   C49   1.397666 A    
N25   O97   1.299313 A    
C223  H60   1.082179 S    
C28   H8    1.110261 S    
C77   C81   1.409798 A    
C272  H101  1.082355 S    
O11   C7    1.277171 A    
C299  C300  1.407248 A    
C312  C313  1.398039 A    
O12   C8    1.277185 A    
O5    Zn3   2.033794 S    
C222  H59   1.083138 S    
N22   O91   1.300806 A    
O1    Zn1   2.034026 S    
O9    Zn1   2.024528 S    
N1    O49   1.301250 A    
C44   C299  1.492471 S    
C41   C281  1.492470 S    
C96   C100  1.411820 A    
C36   N32   1.457499 S    
C275  C276  1.405365 A    
C55   C67   1.419441 A    
C69   C73   1.423089 A    
C246  H79   1.081243 S    
C162  C164  1.416453 A    
C64   C92   1.428759 A    
C282  H109  1.082667 S    
O16   C8    1.282800 A    
C16   H4    1.101744 S    
C135  H23   1.082498 S    
C13   C17   1.541863 S    
N34   O116  1.301056 A    
O38   Zn10  2.034021 S    
C307  C308  1.397637 A    
N18   O83   1.300994 A    
O11   Zn2   2.024528 S    
C289  H115  1.082077 S    
C147  N13   1.436404 S    
N33   O113  1.300675 A    
O42   C116  1.279170 A    
C33   N29   1.457499 S    
Zn5   O29   2.032865 S    
C175  C181  1.408000 A    
C149  N15   1.436407 S    
C6    C38   1.438181 S    
C42   C287  1.492475 S    
C259  C260  1.396468 A    
O33   C113  1.282846 A    
C156  C158  1.388620 A    
C257  C258  1.405363 A    
C285  H112  1.079867 S    
C313  H135  1.082237 S    
C219  C220  1.398181 A    
C218  H56   1.082202 S    
C26   H6    1.110257 S    
C167  N19   1.437327 S    
C82   C86   1.386052 A    
N12   O72   1.301381 A    
C255  H87   1.082156 S    
C19   C109  1.441649 S    
C16   C36   1.535933 S    
C124  C126  1.410277 A    
C236  H71   1.082327 S    
C224  C225  1.397719 A    
O21   Zn5   2.024623 S    
C181  N23   1.438591 S    
C270  H99   1.082788 S    
C26   C38   1.545685 S    
O31   C112  1.290441 A    
C174  C177  1.417654 A    
C46   C116  1.445371 S    
C58   C78   1.409047 A    
O2    C2    1.284167 A    
C269  C270  1.405365 A    
C205  C206  1.396270 A    
C30   C34   1.536635 S    
C296  H121  1.082303 S    
C246  C247  1.398845 A    
C13   C33   1.535900 S    
C14   H2    1.101731 S    
C48   C118  1.445365 S    
O14   Zn3   2.024319 S    
C320  H141  1.082268 S    
C319  H140  1.082239 S    
O22   Zn6   2.024627 S    
C3    C99   1.453373 S    
O27   Zn8   2.025459 S    
C102  H14   1.085681 S    
C261  H92   1.082275 S    
C249  H82   1.082150 S    
C242  H76   1.082342 S    
C1    C97   1.453379 S    
O25   Zn6   2.025459 S    
N27   O101  1.299318 A    
C22   C26   1.538183 S    
N14   O75   1.300843 A    
N18   O84   1.300810 A    
C155  H27   1.083050 S    
C271  C272  1.396470 A    
C140  N12   1.436112 S    
N2    O51   1.301248 A    
C156  H28   1.083051 S    
C252  C253  1.398852 A    
N5    O57   1.300374 A    
C198  H39   1.083105 S    
C295  C296  1.395510 A    
C156  C161  1.395343 A    
C310  H133  1.082224 S    
C226  H63   1.083089 S    
C50   N34   1.438966 S    
C311  C312  1.404272 A    
N19   O85   1.300995 A    
C70   C74   1.423091 A    
C155  C158  1.388614 A    
C96   N4    1.434160 S    
C313  C314  1.397638 A    
C181  C184  1.406872 A    
C90   C215  1.480476 S    
C163  C178  1.401345 A    
O28   C110  1.279878 A    
C249  C250  1.397620 A    
C88   C92   1.385284 A    
C210  H49   1.083138 S    
N26   O99   1.299313 A    
N9    O65   1.301212 A    
C321  H142  1.082254 S    
C272  C273  1.395755 A    
C303  H127  1.079866 S    
C294  H119  1.082668 S    
C216  C217  1.398374 A    
C79   C83   1.409807 A    
O39   Zn11  2.034023 S    
C323  C324  1.404268 A    
C189  C190  1.397763 A    
C65   C69   1.407197 A    
C28   C32   1.556755 S    
C225  H62   1.082218 S    
C325  C326  1.397637 A    
