data_mof_unit_9355.cif
_audit_creation_date              2012-12-10T17:43:23-0500
_audit_creation_method            fapswitch 2.2
_symmetry_space_group_name_H-M    P1
_symmetry_Int_Tables_number       1
_space_group_crystal_system       triclinic
_cell_length_a                    15.081119
_cell_length_b                    13.699765
_cell_length_c                    10.629306
_cell_angle_alpha                 89.615945
_cell_angle_beta                  90.101777
_cell_angle_gamma                 90.032113
_cell_volume                      2196.04425102

loop_
_atom_site_label
_atom_site_type_symbol
_atom_type_description
_atom_site_fract_x
_atom_site_fract_y
_atom_site_fract_z
_atom_type_partial_charge
C1    C     C_R   0.328479 0.499962 0.500315 0.826162
C2    C     C_R   0.671521 0.499999 0.499681 0.826024
C3    C     C_R   0.953524 0.499836 0.499744 0.063369
C4    C     C_R   0.046476 0.499820 0.500259 0.063246
C5    C     C_R   0.907033 0.410439 0.498493 0.106338
C6    C     C_R   0.092945 0.589233 0.501339 0.102861
C7    C     C_R   0.953891 0.677716 0.501613 -0.206616
C8    C     C_R   0.046122 0.321940 0.498553 -0.213754
C9    C     C_R   0.046326 0.677702 0.502027 -0.208366
C10   C     C_R   0.953661 0.321958 0.497819 -0.215838
C11   C     C_R   0.452331 0.792666 0.588555 0.062015
C12   C     C_R   0.548451 0.207362 0.412308 0.068229
C13   C     C_R   0.547521 0.793646 0.411280 0.053228
C14   C     C_R   0.451516 0.206388 0.587646 0.053705
C15   C     C_R   0.548366 0.896857 0.408268 -0.126547
C16   C     C_R   0.450206 0.103188 0.590155 -0.124660
C17   C     C_R   0.451534 0.895825 0.591615 -0.131987
C18   C     C_R   0.549712 0.104201 0.409716 -0.130239
C19   C     C_R   0.500010 0.948230 0.500000 -0.057237
C20   C     C_R   0.500015 0.051801 0.499998 -0.058052
C21   C     C_R   0.595867 0.949471 0.315529 0.387174
C22   C     C_R   0.400159 0.050604 0.680134 0.385497
C23   C     C_R   0.403728 0.947400 0.684028 0.383033
C24   C     C_R   0.599402 0.052657 0.319299 0.387094
C25   C     C_R   0.499964 0.500363 0.259221 0.856420
C26   C     C_R   0.500097 0.499652 0.740791 0.856221
C27   C     C_3   0.504671 0.593919 0.039531 -0.278250
C28   C     C_3   0.495488 0.406102 0.960500 -0.267156
C29   C     C_3   0.575765 0.542678 0.957849 -0.313042
C30   C     C_3   0.424401 0.457350 0.042232 -0.307221
C31   C     C_3   0.430894 0.549037 0.958121 0.579168
C32   C     C_3   0.569284 0.451014 0.041967 0.580434
C33   C     C_3   0.500622 0.498845 0.877367 -0.117896
C34   C     C_3   0.499535 0.501226 0.122665 -0.107838
C35   C     C_R   0.814653 0.411102 0.498126 -0.240145
C36   C     C_R   0.185305 0.588632 0.501568 -0.232999
C37   C     C_R   0.768364 0.499931 0.499283 -0.068963
C38   C     C_R   0.231636 0.499866 0.500714 -0.069508
C39   C     C_R   0.814797 0.588685 0.500234 -0.241444
C40   C     C_R   0.185245 0.411043 0.500070 -0.248664
C41   C     C_R   0.907162 0.589262 0.500485 0.105804
C42   C     C_R   0.092860 0.410406 0.499688 0.108750
Cu1   Cu    Cu3+1 0.500000 0.597420 0.500000 0.946478
Cu2   Cu    Cu3+1 0.500000 0.402580 0.500000 0.948073
H1    H     H_    0.507199 0.670111 0.074220 0.148827
H2    H     H_    0.492548 0.329999 0.925480 0.171712
H3    H     H_    0.637516 0.575964 0.920370 0.153613
H4    H     H_    0.362829 0.423811 0.079922 0.154738
H5    H     H_    0.778944 0.342377 0.497103 0.152160
H6    H     H_    0.220977 0.657377 0.502306 0.161352
H7    H     H_    0.779200 0.657430 0.500944 0.160809
H8    H     H_    0.220879 0.342311 0.499645 0.152851
H9    H     H_    0.918958 0.746818 0.502181 0.145660
H10   H     H_    0.081071 0.252840 0.498151 0.137389
H11   H     H_    0.081345 0.746792 0.502872 0.145724
H12   H     H_    0.918625 0.252873 0.496812 0.136697
H13   H     H_    0.414856 0.750816 0.656850 0.189537
H14   H     H_    0.586143 0.249269 0.344314 0.188244
H15   H     H_    0.584775 0.752532 0.342766 0.169616
H16   H     H_    0.413830 0.247554 0.655629 0.167433
N1    N     N_R   0.500000 0.743810 0.500000 -0.210291
N2    N     N_R   0.500000 0.256190 0.500000 -0.210511
O1    O     O_R   0.370260 0.582280 0.500030 -0.587080
O2    O     O_R   0.629740 0.417720 0.499970 -0.590194
O3    O     O_R   0.629740 0.582280 0.499970 -0.593318
O4    O     O_R   0.370260 0.417720 0.500030 -0.595511
O5    O     O_R   0.499980 0.582260 0.316850 -0.605503
O6    O     O_R   0.500020 0.417740 0.683150 -0.602848
O7    O     O_R   0.500020 0.582260 0.683150 -0.572861
O8    O     O_R   0.499980 0.417740 0.316850 -0.568195
O9    O     O_3   0.359500 0.600488 0.903231 -0.576963
C43   C     C_3   0.303466 0.635008 0.998952 -0.312725
H17   H     H_    0.339729 0.682544 0.066149 0.144085
H18   H     H_    0.271010 0.573518 0.049826 0.159073
H19   H     H_    0.250372 0.679754 0.955022 0.203796
O10   O     O_3   0.641250 0.400844 0.097359 -0.577071
C44   C     C_3   0.692295 0.357184 0.002319 -0.287829
H20   H     H_    0.718089 0.412399 0.934416 0.147541
H21   H     H_    0.653815 0.300017 0.952348 0.167373
H22   H     H_    0.750283 0.320973 0.046812 0.189291
O11   O     O_3   0.642885 0.900244 0.224157 -0.573023
C45   C     C_3   0.588544 0.891685 0.116667 -0.314278
H23   H     H_    0.573856 0.964478 0.074533 0.193930
H24   H     H_    0.525689 0.852373 0.138387 0.127303
H25   H     H_    0.624466 0.848466 0.045106 0.186427
O12   O     O_3   0.351476 0.099786 0.769766 -0.575875
C46   C     C_3   0.263854 0.110056 0.725100 -0.296408
H26   H     H_    0.231404 0.037763 0.712692 0.190042
H27   H     H_    0.261578 0.152546 0.635460 0.131864
H28   H     H_    0.224984 0.150987 0.795798 0.188863
O13   O     O_3   0.356014 0.897297 0.774797 -0.569942
C47   C     C_3   0.409981 0.886574 0.882486 -0.283488
H29   H     H_    0.429340 0.958651 0.921731 0.179505
H30   H     H_    0.470057 0.842279 0.862004 0.143002
H31   H     H_    0.371652 0.847365 0.956009 0.185477
O14   O     O_3   0.647217 0.102889 0.228755 -0.569270
C48   C     C_3   0.735104 0.113469 0.272038 -0.284925
H32   H     H_    0.767993 0.041312 0.284259 0.185994
H33   H     H_    0.737847 0.155285 0.361447 0.130809
H34   H     H_    0.773208 0.155251 0.200561 0.184475

loop_
_geom_bond_atom_site_label_1
_geom_bond_atom_site_label_2
_ccdc_geom_bond_type
C39   H7    S    
C46   H26   S    
C27   C29   S    
Cu2   O4    S    
C19   C20   A    
C25   O5    A    
C2    O3    A    
C6    C9    A    
C48   H32   S    
Cu1   O1    S    
C39   C41   A    
C44   H20   S    
Cu2   O2    S    
C15   C19   A    
C28   H2    S    
C17   C23   A    
C29   H3    S    
C18   C24   A    
C30   H4    S    
C35   C37   A    
C8    C42   A    
C29   C32   S    
C24   O14   S    
C30   C31   S    
C14   N2    A    
C29   C33   S    
C46   H28   S    
C11   C17   A    
C7    C41   A    
C35   H5    S    
C31   C33   S    
Cu2   O8    S    
C9    H11   S    
C10   H12   S    
C18   C20   A    
Cu1   O3    S    
C25   C34   S    
C12   H14   S    
C27   H1    S    
C40   C42   A    
Cu1   O7    S    
C43   H19   S    
C1    O1    A    
C48   H33   S    
C2    O2    A    
O11   C45   S    
C44   H21   S    
C27   C34   S    
C30   C34   S    
C27   C31   S    
C28   C32   S    
O10   C44   S    
C43   H18   S    
C8    H10   S    
O13   C47   S    
O12   C46   S    
Cu2   N2    S    
C40   H8    S    
C47   H31   S    
C32   C34   S    
Cu1   Cu2   S    
C12   N2    A    
C26   C33   S    
C15   C21   A    
C16   C20   A    
O14   C48   S    
C47   H30   S    
C1    O4    A    
C1    C38   S    
C4    C6    A    
C21   O11   S    
C28   C33   S    
C45   H24   S    
C13   C15   A    
C14   C16   A    
Cu2   O6    S    
C7    H9    S    
C3    C4    A    
C3    C5    A    
C48   H34   S    
C36   H6    S    
Cu1   N1    S    
C44   H22   S    
C7    C9    A    
C3    C41   A    
C16   C22   A    
C8    C10   A    
C43   H17   S    
C11   N1    A    
C32   O10   S    
C13   H15   S    
C45   H25   S    
C14   H16   S    
C26   O6    A    
C46   H27   S    
C5    C10   A    
C37   C39   A    
C36   C38   A    
C38   C40   A    
C2    C37   S    
C4    C42   A    
C5    C35   A    
C28   C30   S    
C47   H29   S    
C17   C19   A    
C6    C36   A    
C23   O13   S    
C22   O12   S    
O9    C43   S    
C13   N1    A    
Cu1   O5    S    
C45   H23   S    
C21   C24   A    
C12   C18   A    
C26   O7    A    
C22   C23   A    
C25   O8    A    
C11   H13   S    
C31   O9    S    
