data_mof_unit_41699.cif
_audit_creation_date              2012-12-11T14:36:17-0500
_audit_creation_method            fapswitch 2.2
_symmetry_space_group_name_H-M    P1
_symmetry_Int_Tables_number       1
_space_group_crystal_system       triclinic
_cell_length_a                    13.519722
_cell_length_b                    13.552508
_cell_length_c                    27.455811
_cell_angle_alpha                 90.42314
_cell_angle_beta                  89.165703
_cell_angle_gamma                 60.060613
_cell_volume                      4358.21978602

loop_
_atom_site_label
_atom_site_type_symbol
_atom_type_description
_atom_site_fract_x
_atom_site_fract_y
_atom_site_fract_z
_atom_type_partial_charge
C1    C     C_R   0.619704 0.101218 0.570159 0.547183
C2    C     C_1   0.628664 0.726714 0.614625 0.033968
C3    C     C_3   0.642949 0.570527 0.767453 -0.040734
C4    C     C_3   0.691372 0.627154 0.801341 0.000619
C5    C     C_3   0.564712 0.688303 0.745231 0.160872
C6    C     C_3   0.658545 0.665898 0.707368 0.056190
C7    C     C_3   0.612190 0.744653 0.779734 -0.105802
C8    C     C_3   0.707145 0.720517 0.741502 0.154070
C9    C     C_1   0.700610 0.611131 0.854272 0.013269
C10   C     C_1   0.643788 0.694137 0.655808 0.028118
C11   C     C_3   0.101416 0.125279 0.743763 -0.089881
C12   C     C_R   0.599034 0.778850 0.568212 0.543570
C13   C     C_3   0.204372 0.050913 0.776871 -0.087924
C14   C     C_1   0.112780 0.192449 0.904820 0.031956
C15   C     C_1   0.225441 0.141209 0.617957 -0.003965
C16   C     C_3   0.067732 0.229380 0.778050 0.177927
C17   C     C_3   0.169827 0.155388 0.810385 0.036436
C18   C     C_3   0.143211 0.262832 0.748012 0.015759
C19   C     C_3   0.177146 0.159807 0.713829 0.038304
C20   C     C_3   0.244837 0.190254 0.780969 -0.107123
C21   C     C_3   0.278498 0.086964 0.746685 0.005571
C22   C     C_1   0.148757 0.167674 0.863402 0.003222
C23   C     C_R   0.277034 0.122267 0.569870 0.544728
C24   C     C_1   0.195855 0.153069 0.660447 -0.038425
C25   C     C_3   0.600279 0.287629 0.737932 0.169579
C26   C     C_3   0.559651 0.239715 0.779395 -0.012294
C27   C     C_1   0.698190 0.214741 0.901197 0.035329
C28   C     C_1   0.635184 0.133979 0.617922 0.029341
C29   C     C_3   0.712897 0.251444 0.764763 -0.133308
C30   C     C_3   0.671413 0.202717 0.805787 0.031290
C31   C     C_3   0.768708 0.134077 0.737874 -0.095423
C32   C     C_3   0.655433 0.171287 0.711820 0.023360
C33   C     C_3   0.726604 0.086793 0.779407 0.215222
C34   C     C_R   0.623176 0.099310 0.431277 0.538626
C35   C     C_3   0.613556 0.122671 0.752952 -0.083392
C36   C     C_1   0.683189 0.210392 0.858356 0.014058
C37   C     C_1   0.645510 0.153395 0.659849 0.016065
C38   C     C_R   0.751673 0.666924 0.364308 -0.018687
C39   C     C_R   0.763143 0.647970 0.313217 0.016948
C40   C     C_R   0.779232 0.625077 0.210894 0.050722
C41   C     C_R   0.877501 0.597877 0.238078 0.029698
C42   C     C_R   0.867078 0.614609 0.288505 -0.098874
C43   C     C_R   0.785340 0.613010 0.160212 -0.102112
C44   C     C_R   0.690335 0.629477 0.134174 -0.010813
C45   C     C_R   0.604256 0.771914 0.431604 0.537717
C46   C     C_R   0.560021 0.694729 0.360371 -0.117536
C47   C     C_R   0.566092 0.684384 0.310124 0.009416
C48   C     C_R   0.667398 0.664328 0.286102 0.011561
C49   C     C_R   0.469845 0.701596 0.283756 0.158777
C50   C     C_R   0.471845 0.707824 0.232704 0.023046
C51   C     C_R   0.575364 0.681894 0.208376 0.000173
C52   C     C_R   0.673751 0.658058 0.235137 0.026119
C53   C     C_R   0.584847 0.671466 0.157637 -0.136577
C54   C     C_R   0.643844 0.703474 0.386291 -0.001902
C55   C     C_R   0.203484 0.069258 0.358092 -0.123313
C56   C     C_R   0.284191 0.118410 0.429514 0.544796
C57   C     C_R   0.181194 0.077506 0.308162 0.009697
C58   C     C_R   0.137587 0.093440 0.207157 0.038072
C59   C     C_R   0.106455 0.027892 0.237815 -0.018191
C60   C     C_R   0.132582 0.018082 0.287397 -0.090386
C61   C     C_R   0.120749 0.102765 0.156097 -0.008548
C62   C     C_R   0.118072 0.196323 0.131753 0.002553
C63   C     C_R   0.268035 0.206530 0.349974 -0.126160
C64   C     C_R   0.249248 0.213102 0.300291 0.010828
C65   C     C_R   0.204808 0.148838 0.279057 0.056582
C66   C     C_R   0.274827 0.282789 0.271651 -0.129202
C67   C     C_3   0.737032 0.549389 0.729030 -0.002798
C68   C     C_R   0.251925 0.292733 0.222243 -0.132836
C69   C     C_R   0.203445 0.232934 0.200990 0.004546
C70   C     C_R   0.182674 0.157514 0.228955 0.039363
C71   C     C_R   0.166971 0.254821 0.153250 -0.158377
C72   C     C_R   0.246098 0.134351 0.379133 -0.002706
C73   C     C_R   0.587027 0.242140 0.365135 -0.022514
C74   C     C_R   0.585335 0.258875 0.314118 0.030225
C75   C     C_R   0.580704 0.289364 0.212133 0.022829
C76   C     C_R   0.519510 0.382578 0.244391 -0.129123
C77   C     C_R   0.521779 0.367619 0.294314 -0.137586
C78   C     C_3   0.787491 0.603244 0.763613 -0.043178
C79   C     C_R   0.582002 0.305411 0.161649 -0.023975
C80   C     C_R   0.662626 0.213652 0.132082 0.007497
C81   C     C_R   0.709535 0.038127 0.350401 -0.135942
C82   C     C_R   0.710743 0.054411 0.300795 -0.031030
C83   C     C_R   0.647464 0.164101 0.281972 0.041858
C84   C     C_R   0.773110 0.960616 0.270003 -0.101593
C85   C     C_R   0.775482 0.973099 0.219956 0.149381
C86   C     C_R   0.709758 0.082509 0.199163 0.033110
C87   C     C_R   0.646551 0.178655 0.231024 0.008642
C88   C     C_R   0.708502 0.101587 0.148440 -0.013536
C89   C     C_1   0.705386 0.594049 0.897485 0.031943
C90   C     C_R   0.644417 0.129521 0.382551 0.017869
C91   C     C_R   0.052627 0.234522 0.950672 0.555541
C92   C     C_R   0.713469 0.559979 0.947360 0.553134
C93   C     C_R   0.723915 0.226646 0.950432 0.549304
C94   C     C_R   0.050304 0.242873 0.087557 0.539860
C95   C     C_R   0.708091 0.574210 0.086584 0.543219
C96   C     C_R   0.715425 0.234214 0.088609 0.544722
Cr1   Cr    Cr6+3 0.417550 0.169090 0.500530 1.036499
Cr2   Cr    Cr6+3 0.669180 0.913420 0.499920 1.037697
Cr3   Cr    Cr6+3 0.413260 0.917540 0.499520 1.057204
Cr4   Cr    Cr6+3 0.909170 0.177380 0.020380 1.030866
Cr5   Cr    Cr6+3 0.912710 0.429210 0.018220 1.045483
Cr6   Cr    Cr6+3 0.657170 0.432570 0.019030 1.019839
H1    H     H_    0.878691 0.569644 0.771929 0.168452
H2    H     H_    0.304758 0.212650 0.797618 0.106364
H3    H     H_    0.573593 0.069250 0.748471 0.145948
H4    H     H_    0.854975 0.089474 0.720398 0.145116
H5    H     H_    0.750136 0.306844 0.769449 0.171553
H6    H     H_    0.866146 0.581980 0.141033 0.147503
H7    H     H_    0.942042 0.599016 0.308215 0.118984
H8    H     H_    0.513201 0.684327 0.136083 0.129234
H9    H     H_    0.482615 0.711020 0.379140 0.200767
H10   H     H_    0.188044 0.012493 0.380457 0.140466
H11   H     H_    0.110342 0.967261 0.310561 0.150898
H12   H     H_    0.171863 0.321390 0.133541 0.127649
H13   H     H_    0.268888 0.349902 0.200931 0.114630
H14   H     H_    0.310409 0.331331 0.287654 0.122960
H15   H     H_    0.304326 0.254952 0.365527 0.139772
H16   H     H_    0.471824 0.469069 0.231703 0.142052
H17   H     H_    0.472252 0.442608 0.316999 0.161718
H18   H     H_    0.563406 0.822542 0.802640 0.132045
H19   H     H_    0.823559 0.876524 0.285202 0.151823
H20   H     H_    0.754439 0.951557 0.363597 0.138031
H21   H     H_    0.616480 0.509205 0.779673 0.172817
H22   H     H_    0.231705 0.963472 0.789341 0.173796
H23   H     H_    0.040845 0.101108 0.728419 0.131154
O1    O     O_R   0.301710 0.195650 0.554160 -0.499529
O2    O     O_R   0.658900 0.818120 0.449760 -0.502924
O3    O     O_R   0.503220 0.801620 0.445520 -0.516069
O4    O     O_R   0.319370 0.022040 0.450020 -0.492219
O5    O     O_3   0.499990 0.000010 0.499990 -0.256677
O6    O     O_R   0.818720 0.150820 0.967160 -0.489792
O7    O     O_R   0.006410 0.181720 0.970200 -0.490140
O8    O     O_R   0.027890 0.334070 0.964920 -0.496256
O9    O     O_R   0.809600 0.521790 0.967960 -0.480950
O10   O     O_R   0.635520 0.542770 0.964420 -0.507392
O11   O     O_R   0.665950 0.325030 0.970100 -0.503008
O12   O     O_R   0.522390 0.158990 0.550460 -0.492729
O13   O     O_R   0.816620 0.158530 0.074540 -0.519374
O14   O     O_R   0.004460 0.188870 0.069750 -0.506334
O15   O     O_R   0.025800 0.341780 0.072300 -0.524030
O16   O     O_R   0.807650 0.528950 0.067500 -0.502167
O17   O     O_R   0.633420 0.550490 0.071810 -0.526232
O18   O     O_R   0.664000 0.332180 0.069640 -0.506018
O19   O     O_3   0.826350 0.346390 0.019210 -0.247403
O20   O     O_R   0.694390 0.003530 0.554040 -0.491994
O21   O     O_R   0.657700 0.819660 0.549320 -0.491171
O22   O     O_R   0.501930 0.803280 0.552920 -0.495106
O23   O     O_R   0.318170 0.023580 0.549580 -0.486480
O24   O     O_R   0.303010 0.193990 0.446760 -0.522166
O25   O     O_R   0.523600 0.157450 0.450900 -0.501625
O26   O     O_R   0.695690 0.001860 0.446640 -0.519508
C97   C     C_3   0.109795 0.382270 0.731888 -0.370365
H24   H     H_    0.090593 0.438616 0.764362 0.164249
H25   H     H_    0.181439 0.379934 0.710660 0.154623
H26   H     H_    0.033513 0.416019 0.708792 0.145396
Br1   Br    Br    0.921754 0.331304 0.809539 -0.632691
C98   C     C_3   0.442601 0.305712 0.803805 -0.375401
H27   H     H_    0.375915 0.328286 0.776171 0.159890
H28   H     H_    0.434587 0.253557 0.832863 0.118849
H29   H     H_    0.432056 0.385377 0.820443 0.172979
Br2   Br    Br    0.507213 0.430708 0.705640 -0.494202
Br3   Br    Br    0.822075 0.945651 0.812864 -0.432239
C99   C     C_3   0.800231 0.445542 0.695241 -0.384672
H30   H     H_    0.854207 0.367403 0.715539 0.171092
H31   H     H_    0.737394 0.432941 0.674546 0.175547
H32   H     H_    0.854992 0.459697 0.669042 0.130985
C100  C     C_3   0.852890 0.645546 0.394760 -0.380447
H33   H     H_    0.835719 0.646017 0.434361 0.151809
H34   H     H_    0.925851 0.559075 0.386600 0.121254
H35   H     H_    0.878002 0.710409 0.386905 0.136250
C101  C     C_3   0.995307 0.544203 0.214833 -0.386156
H36   H     H_    0.000201 0.599214 0.186473 0.188124
H37   H     H_    0.062072 0.527416 0.241842 0.138752
H38   H     H_    0.015290 0.461892 0.197746 0.130077
C102  C     C_3   0.364963 0.741737 0.203952 -0.377368
H39   H     H_    0.286092 0.774917 0.226433 0.196483
H40   H     H_    0.350999 0.811725 0.179289 0.121548
H41   H     H_    0.374693 0.667807 0.182331 0.113496
Br4   Br    Br    0.336023 0.714797 0.317300 -0.645739
C103  C     C_3   0.124920 0.006120 0.126295 -0.364122
H42   H     H_    0.164654 0.999603 0.089843 0.137807
H43   H     H_    0.181007 0.923044 0.143023 0.110377
H44   H     H_    0.038154 0.018341 0.121623 0.170952
C104  C     C_3   0.030685 0.981950 0.221692 -0.375588
H45   H     H_    0.959705 0.045866 0.199674 0.159149
H46   H     H_    0.080410 0.900343 0.201345 0.166898
H47   H     H_    0.990103 0.964395 0.253374 0.158756
Br5   Br    Br    0.753921 0.824997 0.717406 -0.499806
C105  C     C_3   0.494955 0.417167 0.139554 -0.374634
H48   H     H_    0.410886 0.452344 0.158656 0.104632
H49   H     H_    0.525120 0.479656 0.141521 0.157261
H50   H     H_    0.476713 0.405095 0.101405 0.151285
C106  C     C_3   0.530718 0.343035 0.400244 -0.380127
H51   H     H_    0.559645 0.404704 0.391665 0.136310
H52   H     H_    0.436457 0.385407 0.397416 0.143220
H53   H     H_    0.554400 0.318969 0.438589 0.148343
C107  C     C_3   0.740502 0.008789 0.110254 -0.336552
H54   H     H_    0.709549 0.950243 0.121560 0.174637
H55   H     H_    0.698210 0.044886 0.075220 0.117848
H56   H     H_    0.833980 0.962390 0.102948 0.196598
Br6   Br    Br    0.886570 0.837049 0.186181 -0.672363
Br7   Br    Br    0.405670 0.741776 0.732228 -0.485103
C108  C     C_3   0.399559 0.012148 0.727103 -0.369591
H57   H     H_    0.404318 0.943619 0.703281 0.194109
H58   H     H_    0.425166 0.064468 0.705152 0.134179
H59   H     H_    0.458049 0.975912 0.757858 0.140757

loop_
_geom_bond_atom_site_label_1
_geom_bond_atom_site_label_2
_ccdc_geom_bond_type
C53   H8    S    
C66   C68   A    
Cr3   O23   S    
C40   C41   A    
C98   H27   S    
C30   C36   S    
C73   C106  S    
C55   H10   S    
C107  H56   S    
C94   O15   A    
C41   C42   A    
C21   C108  S    
C1    O20   A    
C99   H30   S    
C74   C83   A    
C101  H36   S    
C93   O11   A    
C2    C12   S    
C49   C50   A    
C81   C82   A    
C34   O25   A    
Cr4   O6    S    
C7    C8    S    
C100  H34   S    
C85   C86   A    
C8    Br5   S    
C41   C101  S    
C11   C19   S    
C25   C32   S    
C66   H14   S    
C12   O22   A    
C99   H31   S    
C42   H7    S    
C73   C90   A    
C96   O13   A    
C5    C6    S    
C63   H15   S    
Cr5   O19   S    
C86   C88   A    
C11   H23   S    
C45   O3    A    
C65   C70   A    
C17   C20   S    
C58   C70   A    
C104  H45   S    
C26   C98   S    
C105  H49   S    
C18   C19   S    
C73   C74   A    
C12   O21   A    
C107  H55   S    
Cr6   O10   S    
Cr5   O16   S    
C44   C53   A    
C40   C43   A    
C31   C32   S    
C25   Br2   S    
C16   C17   S    
C56   C72   S    
C74   C77   A    
C91   O8    A    
C16   Br1   S    
C1    C28   S    
Cr1   O25   S    
C31   C33   S    
C100  H35   S    
C55   C72   A    
C30   C33   S    
C103  H44   S    
C85   Br6   S    
C61   C62   A    
C58   C61   A    
C15   C23   S    
C59   C60   A    
C98   H28   S    
C46   H9    S    
C8    C78   S    
C94   O14   A    
C46   C54   A    
C60   H11   S    
C107  H54   S    
C67   C78   S    
Cr6   O19   S    
C4    C7    S    
C18   C97   S    
Cr1   O12   S    
C108  H59   S    
Cr5   O15   S    
C3    H21   S    
C39   C42   A    
Cr2   O26   S    
C25   C29   S    
C38   C100  S    
C101  H38   S    
C3    C67   S    
C69   C71   A    
Cr3   O4    S    
C51   C52   A    
Cr5   O9    S    
C32   C35   S    
C47   C48   A    
C99   H32   S    
C76   C77   A    
C102  H40   S    
Cr4   O19   S    
C9    C89   T    
C100  H33   S    
C5    C7    S    
C13   H22   S    
C102  H41   S    
C68   C69   A    
C57   C60   A    
C6    C8    S    
C91   O7    A    
Cr2   O21   S    
C106  H52   S    
C58   C59   A    
C40   C52   A    
C59   C104  S    
C76   H16   S    
C63   C64   A    
C71   H12   S    
C50   C102  S    
C51   C53   A    
C64   C66   A    
C88   C107  S    
C105  H50   S    
C75   C76   A    
C34   C90   S    
C4    C78   S    
C29   C30   S    
C35   H3    S    
Cr4   O14   S    
C108  H58   S    
C11   C16   S    
C102  H39   S    
C38   C54   A    
C97   H26   S    
C106  H53   S    
Cr2   O5    S    
C50   C51   A    
C13   C21   S    
C16   C18   S    
C32   C37   S    
C84   C85   A    
C89   C92   S    
Cr4   O13   S    
C61   C103  S    
C23   O1    A    
C81   C90   A    
C75   C87   A    
Cr2   O2    S    
C97   H25   S    
C45   C54   S    
C82   C83   A    
C98   H29   S    
C82   C84   A    
C62   C94   S    
C43   C44   A    
C31   H4    S    
C27   C93   S    
C92   O10   A    
C80   C96   S    
Cr6   O18   S    
C3    C4    S    
C2    C10   T    
C3    C5    S    
C5    Br7   S    
C1    O12   A    
C103  H42   S    
C105  H48   S    
C56   O24   A    
Cr1   O5    S    
Cr3   O22   S    
C46   C47   A    
C15   C24   T    
C103  H43   S    
Cr3   O5    S    
C19   C21   S    
C78   H1    S    
C86   C87   A    
C7    H18   S    
C92   O9    A    
C56   O4    A    
C57   C65   A    
Cr1   O1    S    
C77   H17   S    
C83   C87   A    
C6    C10   S    
C34   O26   A    
Cr4   O7    S    
C95   O16   A    
Cr3   O3    S    
C20   H2    S    
Cr2   O20   S    
Cr5   O8    S    
C27   C36   T    
C101  H37   S    
C23   O23   A    
C17   C22   S    
C104  H47   S    
C13   C17   S    
C81   H20   S    
C64   C65   A    
C14   C22   T    
C55   C57   A    
C33   Br3   S    
C25   C26   S    
C80   C88   A    
C44   C95   S    
C6    C67   S    
C47   C49   A    
C96   O18   A    
C11   C13   S    
C38   C39   A    
C28   C37   T    
C45   O2    A    
C63   C72   A    
C33   C35   S    
C104  H46   S    
C62   C71   A    
C19   C24   S    
C18   C20   S    
C43   H6    S    
C69   C70   A    
Cr6   O11   S    
C14   C91   S    
C68   H13   S    
C79   C80   A    
C67   C99   S    
C26   C35   S    
C48   C52   A    
C20   C21   S    
C95   O17   A    
C29   C31   S    
C106  H51   S    
C79   C105  S    
Cr1   O24   S    
C29   H5    S    
C97   H24   S    
Cr6   O17   S    
C108  H57   S    
C49   Br4   S    
C4    C9    S    
C93   O6    A    
C75   C79   A    
C39   C48   A    
C84   H19   S    
C26   C30   S    
