data_mof_unit_39911.cif
_audit_creation_date              2012-12-10T18:45:03-0500
_audit_creation_method            fapswitch 2.2
_symmetry_space_group_name_H-M    P1
_symmetry_Int_Tables_number       1
_space_group_crystal_system       triclinic
_cell_length_a                    10.626314
_cell_length_b                    9.943262
_cell_length_c                    10.62787
_cell_angle_alpha                 90.109523
_cell_angle_beta                  91.560168
_cell_angle_gamma                 89.45122
_cell_volume                      1122.47381492

loop_
_atom_site_label
_atom_site_type_symbol
_atom_type_description
_atom_site_fract_x
_atom_site_fract_y
_atom_site_fract_z
_atom_type_partial_charge
C1    C     C_R   0.260411 0.500615 0.500030 0.828074
C2    C     C_R   0.739609 0.499782 0.500354 0.855009
C3    C     C_R   0.932292 0.590036 0.421861 -0.189913
C4    C     C_R   0.061492 0.591798 0.423203 -0.199550
C5    C     C_R   0.583325 0.068456 0.576075 0.212585
C6    C     C_R   0.415772 0.070320 0.424802 0.198818
C7    C     C_R   0.579948 0.925698 0.576991 -0.088459
C8    C     C_R   0.418373 0.927378 0.424366 -0.091939
C9    C     C_R   0.496761 0.499939 0.260624 0.859226
C10   C     C_R   0.496971 0.500105 0.739180 0.856067
C11   C     C_R   0.285645 0.624868 0.125411 -0.196684
C12   C     C_R   0.284795 0.623659 0.863153 -0.183173
C13   C     C_R   0.186268 0.684947 0.057273 -0.145885
C14   C     C_R   0.185762 0.684173 0.926320 -0.130505
C15   C     C_R   0.387132 0.563751 0.930985 0.093004
C16   C     C_R   0.387317 0.563980 0.062877 0.098995
C17   C     C_R   0.488305 0.499500 0.127995 -0.099592
C18   C     C_R   0.488446 0.499797 0.871255 -0.089001
C19   C     C_R   0.583932 0.431998 0.066413 -0.206991
C20   C     C_R   0.584092 0.432273 0.937822 -0.221781
C21   C     C_R   0.067847 0.415861 0.583273 -0.195885
C22   C     C_R   0.938690 0.417018 0.584266 -0.209670
C23   C     C_R   0.872152 0.500840 0.501011 0.002462
C24   C     C_R   0.127994 0.502423 0.501795 0.008767
H1    H     H_    0.660008 0.381697 0.118300 0.153283
H2    H     H_    0.660301 0.382151 0.889925 0.138446
H3    H     H_    0.281125 0.624942 0.226756 0.135198
H4    H     H_    0.279207 0.622662 0.761480 0.152177
H5    H     H_    0.108883 0.731028 0.106222 0.131221
H6    H     H_    0.107929 0.729565 0.873474 0.139632
H7    H     H_    0.120700 0.350276 0.647140 0.144078
H8    H     H_    0.890588 0.356150 0.651398 0.145520
H9    H     H_    0.879421 0.656817 0.359106 0.145517
H10   H     H_    0.109140 0.660540 0.362038 0.129297
H11   H     H_    0.642431 0.868639 0.639337 0.149708
H12   H     H_    0.353596 0.871926 0.363847 0.141723
N1    N     N_R   0.500000 0.857200 0.500000 -0.113501
N2    N     N_R   0.500000 0.142810 0.500000 -0.120815
O1    O     O_R   0.316770 0.614620 0.499990 -0.631154
O2    O     O_R   0.683230 0.614620 0.500010 -0.616373
O3    O     O_R   0.316800 0.385290 0.500000 -0.621819
O4    O     O_R   0.683200 0.385290 0.500000 -0.624717
O5    O     O_R   0.500010 0.614690 0.316770 -0.614753
O6    O     O_R   0.499990 0.614690 0.683230 -0.615605
O7    O     O_R   0.500040 0.385360 0.316770 -0.635887
O8    O     O_R   0.499960 0.385360 0.683230 -0.636316
Zn1   Zn    Zn3+2 0.500000 0.653120 0.500000 0.936491
Zn2   Zn    Zn3+2 0.500000 0.346880 0.500000 0.926425
C25   C     C_3   0.680728 0.130857 0.663443 -0.391610
C26   C     C_3   0.814406 0.095168 0.623406 -0.907974
H13   H     H_    0.833463 0.141632 0.530968 0.282861
H14   H     H_    0.883607 0.132201 0.695125 0.243386
H15   H     H_    0.828813 0.984820 0.615869 0.255867
H16   H     H_    0.671792 0.240188 0.669949 0.259878
H17   H     H_    0.667317 0.092281 0.760220 0.182109
C27   C     C_3   0.316604 0.135873 0.340356 -0.380988
C28   C     C_3   0.185057 0.117895 0.392305 -0.865989
H18   H     H_    0.181801 0.155244 0.490694 0.277548
H19   H     H_    0.115277 0.175572 0.333803 0.253531
H20   H     H_    0.158231 0.010203 0.390354 0.243870
H21   H     H_    0.332465 0.243039 0.326181 0.266738
H22   H     H_    0.319611 0.089794 0.245044 0.179019

loop_
_geom_bond_atom_site_label_1
_geom_bond_atom_site_label_2
_ccdc_geom_bond_type
C10   O8    A    
C15   C18   A    
C26   H14   S    
C6    N2    A    
C9    O7    A    
N1    Zn1   S    
O6    Zn1   S    
C11   C13   A    
C11   C16   A    
C3    C23   A    
C19   C20   A    
C12   C15   A    
C11   H3    S    
C25   H17   S    
C26   H13   S    
C7    N1    A    
C25   H16   S    
O4    Zn2   S    
C13   C14   A    
C6    C27   S    
C1    O3    A    
C21   H7    S    
C5    C25   S    
C28   H18   S    
C22   H8    S    
C14   H6    S    
C19   H1    S    
C10   C18   S    
C9    C17   S    
C17   C19   A    
O3    Zn2   S    
C2    O4    A    
C18   C20   A    
C22   C23   A    
C4    H10   S    
C4    C24   A    
C27   H22   S    
C9    O5    A    
C26   H15   S    
C28   H19   S    
C8    N1    A    
C3    H9    S    
C10   O6    A    
C15   C16   A    
O8    Zn2   S    
C2    O2    A    
C7    H11   S    
N2    Zn2   S    
C5    N2    A    
C27   C28   S    
C12   H4    S    
C1    C24   S    
O1    Zn1   S    
C25   C26   S    
C8    H12   S    
C21   C24   A    
C13   H5    S    
C2    C23   S    
C5    C7    A    
C1    O1    A    
C27   H21   S    
C28   H20   S    
C6    C8    A    
O7    Zn2   S    
C21   C22   A    
O2    Zn1   S    
O5    Zn1   S    
C3    C4    A    
C12   C14   A    
C16   C17   A    
C20   H2    S    
