data_mof_unit_41659.cif
_audit_creation_date              2012-12-10T21:07:04-0500
_audit_creation_method            fapswitch 2.2
_symmetry_space_group_name_H-M    P1
_symmetry_Int_Tables_number       1
_space_group_crystal_system       triclinic
_cell_length_a                    10.814452
_cell_length_b                    15.833241
_cell_length_c                    15.051981
_cell_angle_alpha                 88.195967
_cell_angle_beta                  90.830717
_cell_angle_gamma                 89.844326
_cell_volume                      2575.75676966

loop_
_atom_site_label
_atom_site_type_symbol
_atom_type_description
_atom_site_fract_x
_atom_site_fract_y
_atom_site_fract_z
_atom_type_partial_charge
C1    C     C_R   0.498916 0.338756 0.501461 0.925907
C2    C     C_R   0.521043 0.086450 0.511600 -0.264845
C3    C     C_R   0.604779 0.960734 0.447939 0.354578
C4    C     C_R   0.455253 0.037788 0.574475 0.357800
C5    C     C_1   0.525434 0.823628 0.499145 0.056280
C6    C     C_1   0.510148 0.175447 0.509809 0.067109
C7    C     C_1   0.503334 0.250279 0.505741 -0.175870
C8    C     C_1   0.515101 0.749161 0.497011 -0.211388
C9    C     C_R   0.486375 0.424006 0.955917 0.559139
C10   C     C_R   0.498349 0.578175 0.044289 0.571955
C11   C     C_R   0.493021 0.500057 0.904965 -0.099831
C12   C     C_R   0.502405 0.661152 0.498822 0.937745
C13   C     C_R   0.494795 0.501554 0.094836 -0.059959
C14   C     C_R   0.495440 0.576612 0.949744 -0.414458
C15   C     C_R   0.489567 0.425159 0.049884 -0.335439
C16   C     C_R   0.259693 0.500309 0.498862 0.986166
C17   C     C_R   0.740821 0.499988 0.500571 0.990791
C18   C     C_1   0.496679 0.500019 0.807108 0.136184
C19   C     C_1   0.497645 0.500676 0.192785 0.138257
C20   C     C_R   0.220034 0.665304 0.244253 0.436702
C21   C     C_R   0.760863 0.349910 0.756859 0.419798
C22   C     C_R   0.178075 0.636183 0.328048 0.317048
C23   C     C_R   0.873485 0.499218 0.500703 -0.291978
C24   C     C_R   0.812022 0.370914 0.673150 0.363382
C25   C     C_R   0.120779 0.556394 0.335907 -0.157194
C26   C     C_R   0.885812 0.443892 0.663187 -0.114752
C27   C     C_R   0.112572 0.504392 0.261518 0.487739
C28   C     C_R   0.914878 0.492834 0.737401 0.402318
C29   C     C_R   0.152117 0.533848 0.177656 0.402541
C30   C     C_R   0.858495 0.473883 0.819746 0.379591
C31   C     C_R   0.204844 0.615310 0.169965 -0.479105
C32   C     C_R   0.784430 0.402166 0.829053 -0.430183
C33   C     C_R   0.933492 0.528137 0.422680 0.420013
C34   C     C_R   0.127955 0.497187 0.495965 -0.293100
C35   C     C_R   0.068115 0.460448 0.569454 0.430736
C36   C     C_3   0.356796 0.321153 0.912060 -0.320667
C37   C     C_3   0.588456 0.708557 0.060370 -0.360099
C38   C     C_3   0.389334 0.748444 0.264405 -0.168964
C39   C     C_3   0.718322 0.224728 0.830538 -0.325814
C40   C     C_3   0.116727 0.743410 0.416276 0.060228
C41   C     C_3   0.168557 0.807133 0.480459 -0.704378
C42   C     C_3   0.816853 0.240730 0.607256 0.094708
C43   C     C_3   0.854784 0.209987 0.516866 -0.776581
C44   C     C_3   0.147272 0.364774 0.290313 -0.240575
C45   C     C_R   0.941321 0.467655 0.575747 0.025666
C46   C     C_3   0.098659 0.553993 0.780362 -0.180053
C47   C     C_3   0.137123 0.518587 0.023295 -0.256059
C48   C     C_3   0.815919 0.600629 0.880401 -0.293942
C49   C     C_3   0.843464 0.635185 0.337717 0.103996
C50   C     C_3   0.748167 0.651869 0.264093 -0.764710
C51   C     C_3   0.159038 0.336153 0.612827 0.095962
C52   C     C_3   0.231190 0.290467 0.686990 -0.830048
C53   C     C_3   0.456147 0.103816 0.707564 0.124706
C54   C     C_3   0.386134 0.093274 0.794217 -0.839922
C55   C     C_3   0.638094 0.892799 0.317901 0.118974
C56   C     C_R   0.061424 0.528200 0.420532 -0.018939
C57   C     C_3   0.727924 0.904653 0.241667 -0.836897
C58   C     C_3   0.456519 0.868940 0.699041 0.136277
C59   C     C_3   0.375610 0.813042 0.757986 -0.825305
C60   C     C_3   0.598838 0.123677 0.316668 0.100616
C61   C     C_3   0.669769 0.191555 0.265188 -0.790833
C62   C     C_R   0.459273 0.950003 0.571078 0.351505
C63   C     C_R   0.596366 0.048586 0.448695 0.351832
C64   C     C_R   0.531443 0.912220 0.506303 -0.261535
H1    H     H_    0.237487 0.640531 0.107039 0.229495
H2    H     H_    0.598760 0.758551 0.109732 0.185121
H3    H     H_    0.442000 0.688801 0.255409 0.186011
H4    H     H_    0.389753 0.764689 0.335393 0.179243
H5    H     H_    0.438517 0.799395 0.227332 0.150412
H6    H     H_    0.696150 0.246645 0.897835 0.212929
H7    H     H_    0.818966 0.210452 0.825793 0.131737
H8    H     H_    0.668245 0.164604 0.821370 0.169523
H9    H     H_    0.033362 0.714332 0.446648 0.132277
H10   H     H_    0.090151 0.778224 0.353273 0.163125
H11   H     H_    0.250181 0.839271 0.451094 0.249254
H12   H     H_    0.741642 0.388921 0.892464 0.228937
H13   H     H_    0.097113 0.855354 0.494050 0.213587
H14   H     H_    0.196805 0.774690 0.544100 0.266656
H15   H     H_    0.736431 0.202591 0.629697 0.193662
H16   H     H_    0.895505 0.229356 0.654975 0.110323
H17   H     H_    0.938652 0.243819 0.493695 0.227334
H18   H     H_    0.874386 0.141092 0.521229 0.234033
H19   H     H_    0.779185 0.222486 0.467606 0.296857
H20   H     H_    0.186538 0.373378 0.358027 0.136647
H21   H     H_    0.222425 0.365014 0.240473 0.168036
H22   H     H_    0.103359 0.301553 0.290141 0.180406
H23   H     H_    0.487190 0.365858 0.087763 0.167940
H24   H     H_    0.125258 0.487178 0.797102 0.160510
H25   H     H_    0.086350 0.589033 0.842254 0.159533
H26   H     H_    0.177390 0.583321 0.744532 0.184256
H27   H     H_    0.230642 0.539518 0.002804 0.144813
H28   H     H_    0.069820 0.571977 0.020565 0.185008
H29   H     H_    0.105385 0.472013 0.974470 0.204582
H30   H     H_    0.718457 0.592423 0.857972 0.161986
H31   H     H_    0.864916 0.642985 0.832599 0.198196
H32   H     H_    0.814827 0.632693 0.944713 0.169068
H33   H     H_    0.928339 0.669580 0.318372 0.109677
H34   H     H_    0.494010 0.635158 0.910677 0.162885
H35   H     H_    0.807226 0.660435 0.400637 0.111748
H36   H     H_    0.656990 0.627254 0.284769 0.265653
H37   H     H_    0.739620 0.720662 0.249770 0.184403
H38   H     H_    0.776748 0.620693 0.202551 0.260270
H39   H     H_    0.215196 0.335050 0.551434 0.113866
H40   H     H_    0.071771 0.301215 0.601607 0.141354
H41   H     H_    0.251627 0.225246 0.666772 0.244456
H42   H     H_    0.319576 0.323712 0.700131 0.285740
H43   H     H_    0.175702 0.287709 0.748517 0.227916
H44   H     H_    0.476618 0.171970 0.695917 0.193885
H45   H     H_    0.295913 0.368797 0.877107 0.156768
H46   H     H_    0.545942 0.069226 0.716175 0.091196
H47   H     H_    0.365078 0.025579 0.807832 0.259282
H48   H     H_    0.443198 0.116918 0.850017 0.210797
H49   H     H_    0.297883 0.129146 0.790233 0.250750
H50   H     H_    0.549144 0.924632 0.298239 0.097044
H51   H     H_    0.620238 0.824235 0.328006 0.137119
H52   H     H_    0.815101 0.869541 0.256985 0.254776
H53   H     H_    0.686173 0.880776 0.179611 0.187477
H54   H     H_    0.749784 0.972678 0.231236 0.268684
H55   H     H_    0.494267 0.920646 0.739562 0.126956
H56   H     H_    0.322551 0.307023 0.980274 0.169865
H57   H     H_    0.534909 0.829762 0.676428 0.135845
H58   H     H_    0.338407 0.759813 0.719445 0.257632
H59   H     H_    0.431015 0.786978 0.815258 0.192089
H60   H     H_    0.297423 0.850456 0.783432 0.260574
H61   H     H_    0.507594 0.150831 0.334236 0.129913
H62   H     H_    0.582656 0.069900 0.272480 0.140463
H63   H     H_    0.760877 0.166461 0.245153 0.259451
H64   H     H_    0.616383 0.211833 0.204594 0.201005
H65   H     H_    0.684516 0.247201 0.307183 0.265543
H66   H     H_    0.351007 0.262090 0.874759 0.199713
H67   H     H_    0.563959 0.740536 0.995790 0.168618
H68   H     H_    0.679213 0.675675 0.057030 0.159308
N1    N     N_1   0.499960 0.500020 0.270550 -0.119327
N2    N     N_1   0.500040 0.499980 0.729450 -0.098543
O1    O     O_R   0.500000 0.378020 0.573650 -0.579228
O2    O     O_3   0.493553 0.653540 0.088725 -0.618709
O3    O     O_3   0.266782 0.745844 0.231681 -0.595401
O4    O     O_3   0.677499 0.283822 0.764177 -0.570145
O5    O     O_3   0.206635 0.680481 0.403467 -0.603255
O6    O     O_3   0.781568 0.326601 0.597844 -0.598822
O7    O     O_3   0.056076 0.426251 0.269069 -0.539503
O8    O     O_3   0.991510 0.562426 0.725736 -0.608065
O9    O     O_3   0.142017 0.478015 0.107979 -0.570171
O10   O     O_3   0.878195 0.522678 0.893194 -0.601906
O11   O     O_3   0.867331 0.547511 0.344824 -0.551972
O12   O     O_R   0.500000 0.621980 0.426350 -0.638007
O13   O     O_3   0.134116 0.419565 0.637843 -0.601048
O14   O     O_3   0.381381 0.074859 0.636803 -0.575091
O15   O     O_3   0.693219 0.923868 0.395928 -0.562482
O16   O     O_3   0.384541 0.901848 0.626770 -0.559911
O17   O     O_3   0.669431 0.097164 0.392341 -0.572763
O18   O     O_R   0.500060 0.378020 0.426320 -0.631934
O19   O     O_R   0.499940 0.621980 0.573680 -0.624075
O20   O     O_R   0.316730 0.500010 0.573660 -0.573753
O21   O     O_R   0.683270 0.499990 0.426340 -0.558387
O22   O     O_R   0.316790 0.500010 0.426330 -0.644175
O23   O     O_R   0.683210 0.499990 0.573670 -0.628401
O24   O     O_3   0.481030 0.347799 0.913941 -0.596312
Zn1   Zn    Zn3+2 0.499960 0.500000 0.598370 1.003431
Zn2   Zn    Zn3+2 0.500040 0.500000 0.401630 0.970911

loop_
_geom_bond_atom_site_label_1
_geom_bond_atom_site_label_2
_ccdc_geom_bond_type
C53   H46   S    
O18   Zn2   S    
C11   C18   S    
C42   H16   S    
C23   C45   A    
C48   H31   S    
C4    C62   A    
C54   H49   S    
C27   C29   A    
C43   H19   S    
C47   H28   S    
C25   C56   S    
C62   O16   S    
C12   O19   A    
C46   O8    S    
C46   H25   S    
C53   C54   S    
C24   O6    S    
C34   C56   A    
C17   C23   S    
C48   H30   S    
C15   H23   S    
C60   H61   S    
C10   O2    S    
C41   H13   S    
C11   C14   A    
C41   H11   S    
C51   H39   S    
C29   O9    S    
C40   O5    S    
C47   O9    S    
C30   O10   S    
C40   H9    S    
C48   O10   S    
C1    O18   A    
C34   C35   A    
C12   O12   A    
C62   C64   A    
C26   C45   S    
C16   C34   S    
C38   O3    S    
C52   H43   S    
C40   H10   S    
C44   O7    S    
C23   C33   A    
C22   C25   A    
C16   O22   A    
C39   H8    S    
C55   O15   S    
C17   O23   A    
C61   H65   S    
C33   C56   A    
N2    Zn1   S    
C39   O4    S    
C52   H42   S    
C42   H15   S    
O23   Zn1   S    
C2    C6    S    
C21   O4    S    
C44   H22   S    
C14   H34   S    
C57   H52   S    
C46   H24   S    
C59   H59   S    
C21   C32   A    
C3    O15   S    
O1    Zn1   S    
C13   C19   S    
C42   O6    S    
C51   C52   S    
O22   Zn2   S    
C17   O21   A    
C10   C14   A    
C41   H14   S    
C51   H40   S    
C3    C64   A    
C22   O5    S    
C53   O14   S    
C37   H67   S    
C5    C64   S    
C60   C61   S    
C60   O17   S    
C20   O3    S    
O19   Zn1   S    
C2    C4    A    
C36   H66   S    
C49   H35   S    
C51   O13   S    
C8    C12   S    
C37   H2    S    
C47   H29   S    
C37   O2    S    
C49   O11   S    
C61   H63   S    
C35   O13   S    
C9    C11   A    
C63   O17   S    
C33   O11   S    
C19   N1    T    
C40   C41   S    
C38   H4    S    
C52   H41   S    
C50   H38   S    
C3    C63   A    
C13   C15   A    
C16   O20   A    
C43   H17   S    
C28   O8    S    
C42   C43   S    
C44   H21   S    
C35   C45   A    
C2    C63   A    
C57   H53   S    
C59   H60   S    
C31   H1    S    
C58   H57   S    
C48   H32   S    
O21   Zn2   S    
C1    C7    S    
C47   H27   S    
C24   C26   A    
C20   C22   A    
C44   H20   S    
C10   C13   A    
C32   H12   S    
C5    C8    T    
C6    C7    T    
C46   H26   S    
C55   H50   S    
C36   O24   S    
C25   C27   A    
C26   C28   A    
C37   H68   S    
N1    Zn2   S    
C55   C57   S    
C58   C59   S    
O20   Zn1   S    
C29   C31   A    
C30   C32   A    
C53   H44   S    
C55   H51   S    
C9    O24   S    
C59   H58   S    
C60   H62   S    
C58   H55   S    
C27   O7    S    
C39   H6    S    
C28   C30   A    
C54   H47   S    
C18   N2    T    
C61   H64   S    
C9    C15   A    
C36   H56   S    
C50   H36   S    
C38   H5    S    
C49   H33   S    
O12   Zn2   S    
C38   H3    S    
C50   H37   S    
C49   C50   S    
C21   C24   A    
C36   H45   S    
C43   H18   S    
C39   H7    S    
C54   H48   S    
C1    O1    A    
C58   O16   S    
C57   H54   S    
C20   C31   A    
C4    O14   S    
