data_mof_unit_7882.cif
_audit_creation_date              2012-12-10T16:57:42-0500
_audit_creation_method            fapswitch 2.2
_symmetry_space_group_name_H-M    P1
_symmetry_Int_Tables_number       1
_space_group_crystal_system       triclinic
_cell_length_a                    7.795691
_cell_length_b                    8.591074
_cell_length_c                    19.104364
_cell_angle_alpha                 91.65199
_cell_angle_beta                  85.406087
_cell_angle_gamma                 93.135953
_cell_volume                      1273.07890088

loop_
_atom_site_label
_atom_site_type_symbol
_atom_type_description
_atom_site_fract_x
_atom_site_fract_y
_atom_site_fract_z
_atom_type_partial_charge
C1    C     C_R   0.544668 0.794185 0.499663 0.885977
C2    C     C_R   0.533351 0.373151 0.177089 0.121058
C3    C     C_R   0.498919 0.512386 0.854648 -0.062009
C4    C     C_R   0.485120 0.509598 0.146196 -0.061016
C5    C     C_R   0.549834 0.377035 0.816869 0.121342
C6    C     C_R   0.440580 0.641863 0.187564 0.056377
C7    C     C_R   0.553634 0.373294 0.743925 0.046461
C8    C     C_R   0.444596 0.637338 0.260358 0.075504
C9    C     C_R   0.504963 0.504396 0.709267 -0.136775
C10   C     C_R   0.494644 0.501957 0.290843 -0.138861
C11   C     C_R   0.484633 0.514611 0.070799 0.277029
C12   C     C_R   0.455335 0.205820 0.500325 0.833652
C13   C     C_R   0.492369 0.515128 0.930332 0.276122
C14   C     C_2   0.564021 0.957228 0.509564 0.182894
C15   C     C_2   0.435989 0.042786 0.490416 0.183975
C16   C     C_R   0.501411 0.499854 0.633968 0.881871
C17   C     C_R   0.498387 0.499101 0.366036 0.882262
C18   C     C_R   0.455254 0.639690 0.746704 0.083469
C19   C     C_R   0.538707 0.369556 0.249610 0.062294
C20   C     C_R   0.452863 0.644350 0.819826 0.062988
H1    H     H_    0.283295 0.798582 0.727441 0.208886
H2    H     H_    0.494858 0.199177 0.884032 0.198445
H3    H     H_    0.284650 0.751084 0.126896 0.198872
H4    H     H_    0.491379 0.825720 0.123441 0.209760
H5    H     H_    0.712418 0.259848 0.672740 0.236468
H6    H     H_    0.502310 0.194913 0.675461 0.182382
H7    H     H_    0.484208 0.865212 0.287900 0.207973
H8    H     H_    0.275302 0.797973 0.295644 0.226048
H9    H     H_    0.770951 0.938744 0.560236 0.364563
H10   H     H_    0.229182 0.061300 0.439673 0.360280
H11   H     H_    0.936619 0.301775 0.412543 0.334821
H12   H     H_    0.491621 0.867694 0.722303 0.216086
H13   H     H_    0.063367 0.698043 0.587544 0.341137
H14   H     H_    0.697176 0.253449 0.306597 0.198217
H15   H     H_    0.485967 0.192699 0.317486 0.173371
H16   H     H_    0.502122 0.827834 0.885758 0.207094
H17   H     H_    0.295741 0.752232 0.893562 0.198933
H18   H     H_    0.474705 0.196147 0.109030 0.198575
H19   H     H_    0.681268 0.270748 0.098444 0.191378
H20   H     H_    0.700015 0.277116 0.883038 0.191328
N1    N     N_R   0.371153 0.425687 0.967462 -0.177265
N2    N     N_3   0.580690 0.238046 0.135496 -0.425009
N3    N     N_3   0.599965 0.242764 0.851702 -0.425100
N4    N     N_3   0.388899 0.780636 0.156735 -0.460973
N5    N     N_3   0.602318 0.233676 0.706050 -0.417216
N6    N     N_3   0.401187 0.770878 0.303805 -0.411735
N7    N     N_R   0.605352 0.604621 0.033682 -0.175035
N8    N     N_R   0.367387 0.425339 0.036973 -0.177499
N9    N     N_R   0.609109 0.604987 0.964164 -0.175278
N10   N     N_2   0.950330 0.457950 0.481240 0.192225
N11   N     N_2   0.049670 0.542050 0.518760 0.192112
N12   N     N_3   0.409176 0.772613 0.709781 -0.452330
N13   N     N_3   0.585429 0.229174 0.280634 -0.429105
N14   N     N_3   0.400033 0.782528 0.857821 -0.462089
O1    O     O_R   0.389250 0.738570 0.504600 -0.572717
O2    O     O_3   0.299972 0.977666 0.454616 -0.761414
O3    O     O_3   0.030405 0.357145 0.436870 -0.661323
O4    O     O_3   0.969590 0.642775 0.563169 -0.657766
O5    O     O_R   0.610750 0.261430 0.495400 -0.585404
O6    O     O_R   0.678400 0.711620 0.492580 -0.593361
O7    O     O_R   0.321600 0.288380 0.507420 -0.597196
O8    O     O_R   0.355380 0.513500 0.607880 -0.625170
O9    O     O_R   0.644620 0.486500 0.392120 -0.648378
O10   O     O_R   0.644530 0.486550 0.595850 -0.581089
O11   O     O_R   0.355470 0.513450 0.404150 -0.554248
O12   O     O_3   0.700053 0.022358 0.545354 -0.773359
Zn1   Zn    Zn3+2 0.306930 0.517990 0.508030 1.076507
Zn2   Zn    Zn3+2 0.693070 0.482010 0.491970 1.059984

loop_
_geom_bond_atom_site_label_1
_geom_bond_atom_site_label_2
_ccdc_geom_bond_type
O1    Zn1   S    
C8    C10   A    
C7    C9    A    
H13   O4    S    
H5    N5    S    
O5    Zn2   S    
H15   N13   S    
O7    Zn1   S    
C11   N7    A    
H2    N3    S    
C3    C13   S    
C12   C15   S    
C10   C19   A    
C3    C5    A    
C15   O2    S    
C19   N13   S    
C13   N1    A    
N10   N11   D    
C5    N3    S    
C18   N12   S    
C3    C20   A    
N7    N9    A    
N11   O4    S    
N11   Zn1   S    
C17   O9    A    
C4    C11   S    
C12   O7    A    
N10   O3    S    
H8    N6    S    
C11   N8    A    
C16   O8    A    
O8    Zn1   S    
C2    N2    S    
C13   N9    A    
C2    C4    A    
C7    N5    S    
H7    N6    S    
C4    C6    A    
C17   O11   A    
N1    N8    A    
H18   N2    S    
H19   N2    S    
C18   C20   A    
H1    N12   S    
C14   O12   S    
H4    N4    S    
C8    N6    S    
C1    O1    A    
H16   N14   S    
H17   N14   S    
C10   C17   S    
H9    O12   S    
O10   Zn2   S    
C9    C18   A    
C6    C8    A    
O6    Zn2   S    
H14   N13   S    
C20   N14   S    
C1    O6    A    
C5    C7    A    
O9    Zn2   S    
H12   N12   S    
C6    N4    S    
C1    C14   S    
C16   O10   A    
H6    N5    S    
N10   Zn2   S    
C2    C19   A    
C14   C15   D    
C12   O5    A    
H10   O2    S    
H3    N4    S    
C9    C16   S    
H20   N3    S    
H11   O3    S    
O11   Zn1   S    
