data_mof_unit_23223.cif
_audit_creation_date              2012-12-11T15:49:07-0500
_audit_creation_method            fapswitch 2.2
_symmetry_space_group_name_H-M    P1
_symmetry_Int_Tables_number       1
_space_group_crystal_system       triclinic
_cell_length_a                    21.721094
_cell_length_b                    7.192639
_cell_length_c                    14.719657
_cell_angle_alpha                 89.99936
_cell_angle_beta                  106.466023
_cell_angle_gamma                 89.999954
_cell_volume                      2205.36672253

loop_
_atom_site_label
_atom_site_type_symbol
_atom_type_description
_atom_site_fract_x
_atom_site_fract_y
_atom_site_fract_z
_atom_type_partial_charge
O1    O     O_R   0.335860 0.638190 0.002110 -0.537383
O2    O     O_R   0.664140 0.361810 0.997890 -0.537385
O3    O     O_R   0.164140 0.138190 0.997890 -0.537381
O4    O     O_R   0.835860 0.861810 0.002110 -0.537381
O5    O     O_R   0.217530 0.305920 0.861960 -0.528551
O6    O     O_R   0.782470 0.694080 0.138040 -0.528551
O7    O     O_R   0.282470 0.805920 0.138040 -0.528551
O8    O     O_R   0.717530 0.194080 0.861960 -0.528553
C1    C     C_R   0.207630 0.477210 0.824129 0.707463
C2    C     C_R   0.792373 0.522790 0.175871 0.707481
C3    C     C_R   0.292370 0.977208 0.175872 0.707466
C4    C     C_R   0.707627 0.022792 0.824129 0.707474
O9    O     O_R   0.338690 0.308320 0.993240 -0.526747
O10   O     O_R   0.661310 0.691680 0.006760 -0.526743
O11   O     O_R   0.161310 0.808320 0.006760 -0.526745
O12   O     O_R   0.838690 0.191680 0.993240 -0.526746
O13   O     O_R   0.286170 0.140430 0.130100 -0.531664
O14   O     O_R   0.713830 0.859570 0.869900 -0.531667
O15   O     O_R   0.213830 0.640430 0.869900 -0.531668
O16   O     O_R   0.786170 0.359570 0.130100 -0.531671
C5    C     C_R   0.365642 0.476170 0.001531 0.712044
C6    C     C_R   0.634358 0.523830 0.998469 0.712047
C7    C     C_R   0.134358 0.976171 0.998468 0.712050
C8    C     C_R   0.865642 0.023829 0.001532 0.712053
O17   O     O_3   0.232630 0.472410 0.044750 -0.367976
O18   O     O_3   0.767370 0.527590 0.955250 -0.367978
O19   O     O_3   0.267370 0.972410 0.955250 -0.367979
O20   O     O_3   0.732630 0.027590 0.044750 -0.367981
V1    V     V_3+5 0.253220 0.196620 0.991700 1.532744
V2    V     V_3+5 0.746780 0.803380 0.008300 1.532736
V3    V     V_3+5 0.246780 0.696620 0.008300 1.532743
V4    V     V_3+5 0.753220 0.303380 0.991700 1.532728
C9    C     C_R   0.021039 0.839237 0.963795 0.220104
C10   C     C_R   0.978960 0.160764 0.036204 0.220103
C11   C     C_R   0.478959 0.339232 0.036201 0.220103
C12   C     C_R   0.521041 0.660769 0.963800 0.220103
C13   C     C_R   0.957250 0.854809 0.966730 -0.163107
C14   C     C_R   0.042750 0.145191 0.033268 -0.163112
C15   C     C_R   0.542749 0.354805 0.033265 -0.163114
C16   C     C_R   0.457251 0.645195 0.966736 -0.163117
H1    H     H_    0.924510 0.741576 0.938746 0.180257
H2    H     H_    0.075489 0.258425 0.061252 0.180257
H3    H     H_    0.575488 0.241567 0.061245 0.180251
H4    H     H_    0.424512 0.758432 0.938755 0.180258
C17   C     C_R   0.934731 0.014630 0.002095 -0.113946
C18   C     C_R   0.065268 0.985370 0.997905 -0.113947
C19   C     C_R   0.565268 0.514632 0.997906 -0.113938
C20   C     C_R   0.434732 0.485369 0.002095 -0.113943
C21   C     C_R   0.681424 0.014428 0.719039 -0.037430
C22   C     C_R   0.318570 0.985574 0.280963 -0.037421
C23   C     C_R   0.818576 0.514424 0.280961 -0.037421
C24   C     C_R   0.181430 0.485582 0.719038 -0.037428
C25   C     C_R   0.687460 0.994318 0.556312 -0.172172
C26   C     C_R   0.312532 0.005732 0.443687 -0.172198
C27   C     C_R   0.812544 0.494336 0.443686 -0.172202
C28   C     C_R   0.187463 0.505756 0.556317 -0.172218
C29   C     C_R   0.719060 0.001272 0.653860 0.117868
C30   C     C_R   0.280934 0.998768 0.346139 0.117885
C31   C     C_R   0.780944 0.501252 0.346137 0.117858
C32   C     C_R   0.219063 0.498782 0.653864 0.117857
C33   C     C_R   0.614338 0.018849 0.682663 -0.168078
C34   C     C_R   0.385654 0.981133 0.317344 -0.168077
C35   C     C_R   0.885659 0.518863 0.317339 -0.168086
C36   C     C_R   0.114347 0.481158 0.682657 -0.168077
C37   C     C_R   0.582924 0.018783 0.584394 0.080938
C38   C     C_R   0.417066 0.981203 0.415615 0.080954
C39   C     C_R   0.917074 0.518812 0.415608 0.080953
C40   C     C_R   0.082933 0.481234 0.584388 0.080953
C41   C     C_R   0.620425 0.995511 0.521017 0.034896
C42   C     C_R   0.379565 0.004494 0.478987 0.034894
C43   C     C_R   0.879576 0.495557 0.478984 0.034890
C44   C     C_R   0.120432 0.504518 0.521016 0.034895
C45   C     C_R   0.514788 0.028393 0.547718 -0.042053
C46   C     C_R   0.485201 0.971579 0.452295 -0.042058
C47   C     C_R   0.985211 0.528424 0.452284 -0.042056
C48   C     C_R   0.014798 0.471620 0.547709 -0.042056
C49   C     C_R   0.524930 0.911879 0.396503 0.170804
C50   C     C_R   0.475059 0.088082 0.603512 0.170830
C51   C     C_R   0.975069 0.411944 0.603505 0.170811
C52   C     C_R   0.024939 0.588100 0.396487 0.170823
C53   C     C_R   0.590310 0.955792 0.424909 0.134038
C54   C     C_R   0.409679 0.044180 0.575100 0.133993
C55   C     C_R   0.909690 0.455869 0.575097 0.134019
C56   C     C_R   0.090319 0.544196 0.424901 0.134006
H5    H     H_    0.413371 0.987151 0.267357 0.171067
H6    H     H_    0.586623 0.012805 0.732653 0.171072
H7    H     H_    0.086632 0.487181 0.732644 0.171067
H8    H     H_    0.913373 0.512820 0.267350 0.171069
H9    H     H_    0.716461 0.976506 0.508099 0.153498
H10   H     H_    0.283534 0.023586 0.491897 0.153500
H11   H     H_    0.783550 0.476516 0.491899 0.153504
H12   H     H_    0.216458 0.523613 0.508109 0.153504
I1    I     I_    0.042901 0.593887 0.899713 -0.340664
I2    I     I_    0.957098 0.406113 0.100286 -0.340670
I3    I     I_    0.457099 0.093875 0.100283 -0.340672
I4    I     I_    0.542901 0.906126 0.899718 -0.340681
I5    I     I_    0.640387 0.961916 0.319046 -0.444141
I6    I     I_    0.359603 0.037975 0.680966 -0.444171
I7    I     I_    0.859616 0.462076 0.680968 -0.444147
I8    I     I_    0.140396 0.537960 0.319034 -0.444152
C57   C     C_3   0.208532 0.021110 0.323546 -0.352158
C58   C     C_3   0.168563 0.006548 0.221373 -0.679909
H13   H     H_    0.179528 0.125009 0.180503 0.216057
H14   H     H_    0.176657 0.870565 0.191305 0.236383
H15   H     H_    0.116977 0.015288 0.218302 0.257431
H16   H     H_    0.190338 0.916127 0.364740 0.223957
H17   H     H_    0.198716 0.158460 0.350689 0.218469
C59   C     C_3   0.791462 0.978901 0.676451 -0.352129
C60   C     C_3   0.831433 0.993476 0.778626 -0.679879
H18   H     H_    0.823337 0.129462 0.808691 0.236385
H19   H     H_    0.820470 0.875016 0.819503 0.216038
H20   H     H_    0.883018 0.984740 0.781695 0.257423
H21   H     H_    0.801270 0.841526 0.649320 0.218461
H22   H     H_    0.809662 0.083861 0.635245 0.223941
C61   C     C_3   0.291466 0.521123 0.676451 -0.351975
C62   C     C_3   0.331434 0.506578 0.778637 -0.679830
H23   H     H_    0.320468 0.625051 0.819506 0.216040
H24   H     H_    0.323344 0.370587 0.808709 0.236350
H25   H     H_    0.383020 0.515321 0.781709 0.257406
H26   H     H_    0.309662 0.416108 0.635249 0.223914
H27   H     H_    0.301283 0.658497 0.649295 0.218421
C63   C     C_3   0.708550 0.478769 0.323543 -0.352125
C64   C     C_3   0.668572 0.493397 0.221369 -0.679871
H28   H     H_    0.676662 0.629407 0.191320 0.236387
H29   H     H_    0.679532 0.374966 0.180474 0.216027
H30   H     H_    0.616989 0.484637 0.218306 0.257413
H31   H     H_    0.698772 0.341340 0.350645 0.218444
H32   H     H_    0.690332 0.583634 0.364775 0.223942
I9    I     I_    0.496772 0.687499 0.296561 -0.361999
I10   I     I_    0.503213 0.312438 0.703471 -0.362021
I11   I     I_    0.003219 0.187558 0.703446 -0.362019
I12   I     I_    0.996785 0.812450 0.296524 -0.362029

loop_
_geom_bond_atom_site_label_1
_geom_bond_atom_site_label_2
_ccdc_geom_bond_type
C57   H17   S    
O1    C5    A    
C57   C58   S    
C61   H27   S    
C27   C31   A    
C35   H8    S    
O19   V1    S    
O13   V1    S    
C45   C46   A    
O3    C7    A    
C48   C51   A    
C52   C56   A    
O15   V3    S    
C4    C21   S    
C21   C29   A    
C64   H28   S    
C62   H23   S    
O7    C3    A    
C58   H15   S    
C52   I12   S    
C8    C17   S    
C36   C40   A    
O9    V1    S    
C26   H10   S    
C60   H19   S    
O16   V4    S    
O4    C8    A    
C64   H29   S    
C2    C23   S    
C61   C62   S    
C38   C46   A    
O1    V3    S    
C37   C45   A    
C59   C60   S    
C12   C19   A    
O2    V4    S    
C59   H22   S    
C63   H31   S    
O3    V1    S    
C12   I4    S    
C27   H11   S    
C24   C32   A    
C1    O15   A    
C2    O16   A    
C28   C44   A    
C46   C49   A    
O2    C6    A    
C45   C50   A    
O14   V2    S    
C47   C52   A    
C36   H7    S    
O5    V1    S    
C40   C44   A    
C5    C20   S    
C31   C63   S    
O11   C7    A    
C6    C19   S    
C25   C41   A    
O12   C8    A    
C7    C18   S    
C55   I7    S    
C63   H32   S    
C9    C18   A    
C54   I6    S    
C1    C24   S    
O10   V2    S    
C11   C20   A    
C43   C55   A    
C34   H5    S    
C35   C39   A    
O7    V3    S    
C34   C38   A    
O8    V4    S    
C12   C16   A    
C23   C35   A    
C24   C36   A    
C60   H20   S    
C10   C17   A    
C25   C29   A    
O18   V4    S    
C64   H30   S    
C15   H3    S    
C9    C13   A    
C28   C32   A    
C56   I8    S    
C59   H21   S    
C11   C15   A    
C47   C48   A    
O5    C1    A    
C50   C54   A    
C26   C42   A    
C49   C53   A    
O8    C4    A    
C51   I11   S    
C22   C30   A    
O9    C5    A    
C30   C57   S    
C49   I9    S    
C40   C48   A    
C58   H14   S    
C44   C56   A    
O6    V2    S    
C25   H9    S    
C22   C34   A    
C23   C31   A    
C13   C17   A    
C15   C19   A    
C26   C30   A    
C57   H16   S    
C16   C20   A    
C3    O13   A    
C10   C14   A    
O17   V3    S    
C10   I2    S    
C9    I1    S    
O6    C2    A    
O11   V3    S    
C11   I3    S    
O12   V4    S    
C62   H25   S    
O10   C6    A    
O20   V2    S    
C50   I10   S    
C3    C22   S    
C60   H18   S    
C51   C55   A    
C21   C33   A    
C38   C42   A    
C53   I5    S    
C37   C41   A    
C62   H24   S    
C39   C43   A    
C13   H1    S    
C58   H13   S    
C42   C54   A    
O4    V2    S    
C14   C18   A    
C41   C53   A    
C33   H6    S    
C14   H2    S    
C33   C37   A    
C16   H4    S    
C29   C59   S    
C39   C47   A    
C61   H26   S    
C4    O14   A    
C32   C61   S    
C63   C64   S    
C28   H12   S    
C27   C43   A    
