data_mof_unit_42619.cif
_audit_creation_date              2012-10-26T21:00:19-0400
_audit_creation_method            fapswitch 2.2
_symmetry_space_group_name_H-M    P1
_symmetry_Int_Tables_number       1
_space_group_crystal_system       triclinic
_cell_length_a                    19.352362
_cell_length_b                    8.668783
_cell_length_c                    7.606058
_cell_angle_alpha                 102.210602
_cell_angle_beta                  95.970996
_cell_angle_gamma                 95.428507
_cell_volume                      1231.41337092

loop_
_atom_site_label
_atom_site_type_symbol
_atom_type_description
_atom_site_fract_x
_atom_site_fract_y
_atom_site_fract_z
_atom_type_partial_charge
C1    C     C_R   0.495609 0.200243 0.454694 0.539628
C2    C     C_R   0.808174 0.470526 0.328588 0.106348
C3    C     C_R   0.146369 0.495189 0.509972 0.041870
C4    C     C_R   0.852981 0.491205 0.493000 0.062599
C5    C     C_R   0.174650 0.478403 0.344788 -0.128403
C6    C     C_R   0.824503 0.512965 0.657824 -0.144605
C7    C     C_R   0.246500 0.479771 0.340437 -0.127280
C8    C     C_R   0.752853 0.516485 0.660843 -0.136958
C9    C     C_R   0.291759 0.498816 0.501622 -0.008200
C10   C     C_R   0.708112 0.497729 0.498825 0.005259
C11   C     C_R   0.929241 0.491001 0.496227 0.355787
C12   C     C_R   0.504392 0.799757 0.545307 0.540934
C13   C     C_R   0.069901 0.494307 0.506634 0.335723
C14   C     C_2   0.485158 0.031938 0.435681 -0.071614
C15   C     C_2   0.514843 0.968064 0.564321 -0.072232
C16   C     C_R   0.367771 0.499661 0.499720 0.536821
C17   C     C_R   0.632209 0.499877 0.500285 0.539332
C18   C     C_R   0.263988 0.517012 0.667138 -0.048628
C19   C     C_R   0.736187 0.475009 0.333482 -0.086111
C20   C     C_R   0.192207 0.515320 0.673384 0.097172
Cu1   Cu    Cu3+1 0.507710 0.517380 0.684380 1.190401
Cu2   Cu    Cu3+1 0.492290 0.482620 0.315620 1.192590
H1    H     H_    0.298069 0.533086 0.793676 0.177238
H2    H     H_    0.137705 0.633176 0.862717 0.260239
H3    H     H_    0.852092 0.327985 0.137339 0.243850
H4    H     H_    0.795975 0.436585 0.050915 0.215740
H5    H     H_    0.362261 0.107647 0.022756 0.351256
H6    H     H_    0.637775 0.892321 0.977287 0.348945
H7    H     H_    0.702034 0.458839 0.207116 0.151082
H8    H     H_    0.140957 0.462601 0.217791 0.153063
H9    H     H_    0.857940 0.529485 0.785358 0.160293
H10   H     H_    0.266464 0.465611 0.210813 0.175048
H11   H     H_    0.732590 0.534455 0.790175 0.159098
H12   H     H_    0.449594 0.961226 0.321260 0.160815
H13   H     H_    0.550406 0.038777 0.678743 0.158636
H14   H     H_    0.138641 0.435259 0.858451 0.261800
N1    N     N_R   0.032036 0.542755 0.372274 -0.219859
N2    N     N_R   0.967022 0.442312 0.630368 -0.225557
N3    N     N_R   0.963100 0.541549 0.367486 -0.167636
N4    N     N_R   0.035928 0.443350 0.634875 -0.229750
N5    N     N_2   0.480680 0.456420 0.038530 0.035188
N6    N     N_2   0.519320 0.543580 0.961470 0.034829
N7    N     N_3   0.168345 0.539307 0.848201 -0.637548
N8    N     N_3   0.835426 0.440955 0.157342 -0.591981
O1    O     O_R   0.505010 0.286130 0.619770 -0.470827
O2    O     O_2   0.484939 0.150579 0.914325 -0.293371
O3    O     O_3   0.377056 0.222925 0.069572 -0.506544
O4    O     O_2   0.515101 0.849425 0.085778 -0.292497
O5    O     O_2   0.607570 0.734995 0.244995 -0.290608
O6    O     O_3   0.622951 0.777060 0.930409 -0.507953
O7    O     O_R   0.494990 0.713870 0.380230 -0.469985
O8    O     O_R   0.491990 0.256780 0.308370 -0.442735
O9    O     O_R   0.508010 0.743220 0.691630 -0.441657
O10   O     O_R   0.406650 0.514660 0.655750 -0.488729
O11   O     O_R   0.593350 0.485340 0.344250 -0.487293
O12   O     O_R   0.393640 0.485310 0.344340 -0.485929
O13   O     O_R   0.606360 0.514690 0.655660 -0.489095
O14   O     O_2   0.392474 0.264910 0.754978 -0.291344
S1    S     S_3+6 0.434558 0.272359 0.933646 0.132169
S2    S     S_3+6 0.565466 0.727612 0.066368 0.131174

loop_
_geom_bond_atom_site_label_1
_geom_bond_atom_site_label_2
_ccdc_geom_bond_type
H5    O3    S    
C14   H12   S    
C11   N2    A    
C2    C4    A    
C16   O12   A    
Cu1   O13   S    
Cu2   O11   S    
C7    H10   S    
O2    S1    D    
C5    C7    A    
N5    N6    D    
C17   O11   A    
C13   N1    A    
C12   O9    A    
C3    C13   S    
C12   C15   S    
Cu2   O12   S    
C10   C19   A    
O6    S2    S    
C20   N7    S    
C17   O13   A    
C6    H9    S    
C2    C19   A    
H4    N8    S    
C3    C20   A    
N1    N3    A    
Cu1   Cu2   S    
C4    C11   S    
Cu1   O9    S    
C1    O1    A    
O5    S2    D    
Cu1   O1    S    
H3    N8    S    
C15   H13   S    
N2    N4    A    
C9    C16   S    
O4    S2    D    
Cu2   O8    S    
C18   C20   A    
C8    H11   S    
Cu1   O10   S    
C11   N3    A    
C1    O8    A    
C16   O10   A    
Cu2   N5    S    
C10   C17   S    
O3    S1    S    
Cu1   N6    S    
C19   H7    S    
C9    C18   A    
C12   O7    A    
N5    S1    S    
C4    C6    A    
C5    H8    S    
N6    S2    S    
C7    C9    A    
H2    N7    S    
C14   C15   D    
C13   N4    A    
C6    C8    A    
C1    C14   S    
C3    C5    A    
O14   S1    D    
H6    O6    S    
C8    C10   A    
C18   H1    S    
C2    N8    S    
Cu2   O7    S    
H14   N7    S    
