data_mof_unit_26285.cif
_audit_creation_date              2012-12-11T15:53:42-0500
_audit_creation_method            fapswitch 2.2
_symmetry_space_group_name_H-M    P1
_symmetry_Int_Tables_number       1
_space_group_crystal_system       triclinic
_cell_length_a                    6.916518
_cell_length_b                    14.484515
_cell_length_c                    16.105411
_cell_angle_alpha                 90.477408
_cell_angle_beta                  90.104579
_cell_angle_gamma                 89.780168
_cell_volume                      1613.40838745

loop_
_atom_site_label
_atom_site_type_symbol
_atom_type_description
_atom_site_fract_x
_atom_site_fract_y
_atom_site_fract_z
_atom_type_partial_charge
O1    O     O_R   0.361600 0.167310 0.164620 -0.551955
O2    O     O_R   0.638400 0.832690 0.835380 -0.547364
O3    O     O_R   0.691080 0.157570 0.338750 -0.507195
O4    O     O_R   0.308920 0.842430 0.661250 -0.558682
O5    O     O_R   0.861410 0.336420 0.339360 -0.548916
O6    O     O_R   0.138590 0.663580 0.660640 -0.547321
C1    C     C_R   0.523311 0.133515 0.366063 0.768897
C2    C     C_R   0.476902 0.867058 0.634345 0.736635
O7    O     O_R   0.691320 0.156280 0.165240 -0.528597
O8    O     O_R   0.308680 0.843720 0.834760 -0.529328
O9    O     O_R   0.861640 0.335130 0.164600 -0.551691
O10   O     O_R   0.138360 0.664870 0.835400 -0.546324
C3    C     C_R   0.522510 0.130789 0.138664 0.709200
C4    C     C_R   0.477268 0.868285 0.862358 0.715329
O11   O     O_R   0.361370 0.168600 0.339370 -0.525160
O12   O     O_R   0.638630 0.831400 0.660630 -0.522046
O13   O     O_3   0.527990 0.310540 0.251980 -0.386323
O14   O     O_3   0.472010 0.689460 0.748020 -0.374426
V1    V     V_3+5 0.802830 0.240980 0.251990 1.552316
V2    V     V_3+5 0.197170 0.759020 0.748010 1.470084
O15   O     O_R   0.191360 0.346160 0.165220 -0.560636
O16   O     O_R   0.808640 0.653840 0.834780 -0.557290
C5    C     C_R   0.022432 0.372285 0.139346 0.693092
C6    C     C_R   0.977566 0.627722 0.860660 0.708162
O17   O     O_R   0.191130 0.347440 0.338740 -0.521895
O18   O     O_R   0.808870 0.652560 0.661260 -0.517647
C7    C     C_R   0.022380 0.368379 0.368334 0.809287
C8    C     C_R   0.977621 0.631613 0.631671 0.802452
V3    V     V_3+5 0.302840 0.262750 0.251990 1.505889
V4    V     V_3+5 0.697160 0.737250 0.748010 1.483876
O19   O     O_3   0.027820 0.193180 0.251990 -0.341435
O20   O     O_3   0.972180 0.806820 0.748010 -0.368151
C9    C     C_3   0.828971 0.455777 0.491812 -0.287715
C10   C     C_3   0.171025 0.544228 0.508184 -0.296910
C11   C     C_3   0.958169 0.457557 0.570651 -0.004386
C12   C     C_3   0.041830 0.542443 0.429345 -0.005569
H1    H     H_    0.688200 0.419882 0.485600 0.151045
H2    H     H_    0.311801 0.580121 0.514393 0.153111
C13   C     C_3   0.988223 0.562357 0.561756 -0.038803
C14   C     C_3   0.011779 0.437644 0.438242 -0.040538
C15   C     C_3   0.861341 0.561096 0.482812 0.007967
C16   C     C_3   0.138662 0.438911 0.517186 0.003301
C17   C     C_R   0.839390 0.491808 0.945042 0.100751
C18   C     C_R   0.160588 0.508216 0.054974 0.100114
C19   C     C_R   0.852902 0.438240 0.017420 -0.210778
C20   C     C_R   0.147083 0.561780 0.982592 -0.212095
H3    H     H_    0.738341 0.390126 0.030985 0.120075
H4    H     H_    0.261644 0.609892 0.969025 0.121250
C21   C     C_R   0.012932 0.442147 0.071211 -0.077144
C22   C     C_R   0.987057 0.557869 0.928800 -0.081119
C23   C     C_R   0.661540 0.996509 0.447169 -0.008742
C24   C     C_R   0.338016 0.005045 0.553973 -0.050019
C25   C     C_R   0.642825 0.934187 0.512642 -0.124139
C26   C     C_R   0.356961 0.066970 0.487786 -0.047286
H5    H     H_    0.754097 0.882067 0.520888 0.146013
H6    H     H_    0.247311 0.119622 0.479001 0.210446
C27   C     C_R   0.484454 0.937152 0.567036 -0.137451
C28   C     C_R   0.516402 0.064622 0.434182 -0.134415
C29   C     C_R   0.660959 0.994020 0.055068 -0.004232
C30   C     C_R   0.336109 0.002282 0.948916 0.000965
C31   C     C_R   0.647918 0.936044 0.984880 -0.262532
C32   C     C_R   0.350255 0.060814 0.018383 -0.260484
H7    H     H_    0.761929 0.885799 0.973940 0.116294
H8    H     H_    0.235839 0.110865 0.029359 0.117568
C33   C     C_R   0.486744 0.937871 0.931475 -0.053500
C34   C     C_R   0.512103 0.059718 0.071107 -0.050740
C35   C     C_2   0.914467 0.406528 0.648748 0.286711
H9    H     H_    0.870393 0.334817 0.645486 0.095163
O21   O     O_2   0.931252 0.444661 0.716123 -0.561876
C36   C     C_2   0.085532 0.593452 0.351236 0.280983
H10   H     H_    0.129713 0.665147 0.354485 0.072112
O22   O     O_2   0.068620 0.555321 0.283866 -0.562175
C37   C     C_2   0.703437 0.626684 0.458458 0.288495
H11   H     H_    0.621446 0.613713 0.402169 0.058226
O23   O     O_2   0.666250 0.694424 0.501009 -0.551183
C38   C     C_2   0.296642 0.373373 0.541547 0.319560
H12   H     H_    0.378245 0.386229 0.597960 0.054777
O24   O     O_2   0.334372 0.305820 0.498849 -0.544636
C39   C     C_3   0.666130 0.474864 0.888038 -0.333518
C40   C     C_3   0.638365 0.372321 0.864911 -0.312150
C41   C     C_3   0.480628 0.360519 0.799156 -0.709242
H13   H     H_    0.340813 0.388305 0.822569 0.238863
H14   H     H_    0.520516 0.397205 0.741444 0.228858
H15   H     H_    0.462497 0.286078 0.784181 0.225332
H16   H     H_    0.776073 0.343055 0.840630 0.232759
H17   H     H_    0.594662 0.331958 0.919988 0.177749
H18   H     H_    0.533766 0.500914 0.919486 0.157673
H19   H     H_    0.679756 0.511298 0.828618 0.228061
C42   C     C_3   0.333825 0.525178 0.111988 -0.331562
C43   C     C_3   0.361556 0.627731 0.135101 -0.309692
C44   C     C_3   0.519348 0.639566 0.200827 -0.724348
H20   H     H_    0.479529 0.602889 0.258553 0.230246
H21   H     H_    0.659153 0.611789 0.177395 0.240001
H22   H     H_    0.537464 0.714014 0.215782 0.218731
H23   H     H_    0.405190 0.668097 0.080015 0.177387
H24   H     H_    0.223853 0.656983 0.159401 0.229514
H25   H     H_    0.320186 0.488745 0.171409 0.227142
H26   H     H_    0.466205 0.499133 0.080549 0.156903
C45   C     C_2   0.830388 0.982932 0.392275 0.449798
H27   H     H_    0.852276 0.916565 0.361896 0.043227
O25   O     O_2   0.953838 0.042323 0.385814 -0.501184
C46   C     C_2   0.167464 0.016575 0.609277 0.377938
H28   H     H_    0.164249 0.986605 0.670113 0.134303
O26   O     O_2   0.027025 0.061815 0.587599 -0.520656
C47   C     C_2   0.827664 0.978526 0.111290 0.353084
H29   H     H_    0.964559 0.954790 0.085851 0.033147
O27   O     O_2   0.811126 0.985943 0.186483 -0.529916
C48   C     C_2   0.164893 0.015911 0.895262 0.357942
H30   H     H_    0.026661 0.033982 0.922933 0.035947
O28   O     O_2   0.178832 0.013926 0.819901 -0.541633

loop_
_geom_bond_atom_site_label_1
_geom_bond_atom_site_label_2
_ccdc_geom_bond_type
C18   C21   A    
O13   V3    S    
C37   H11   S    
C10   C16   S    
O4    C2    A    
V1    O19   S    
C39   H18   S    
C41   H13   S    
C43   H23   S    
C13   C15   S    
C47   O27   D    
C24   C46   S    
C29   C47   S    
C38   O24   D    
O3    C1    A    
C29   C34   A    
V2    O20   S    
C5    C21   S    
O12   V4    S    
C48   H30   S    
O17   V3    S    
C30   C32   A    
C31   H7    S    
C11   C16   S    
O7    C3    A    
C40   H17   S    
C9    C11   S    
O5    C7    A    
O7    V1    S    
O6    C8    A    
O8    V2    S    
C32   H8    S    
O3    V1    S    
C36   H10   S    
O14   V4    S    
C19   C21   A    
C1    C28   S    
C10   C12   S    
C30   C48   S    
C25   H5    S    
C2    O12   A    
C6    C22   S    
C37   O23   D    
C12   C15   S    
C39   H19   S    
C41   H14   S    
C24   C26   A    
O11   V3    S    
C20   H4    S    
C3    C34   S    
C19   H3    S    
C23   C45   S    
C12   C36   S    
C26   H6    S    
C29   C31   A    
C9    C14   S    
C32   C34   A    
C10   C13   S    
C12   C14   S    
C38   H12   S    
O8    C4    A    
C44   H20   S    
C25   C27   A    
C1    O11   A    
C18   C20   A    
C8    C13   S    
O15   V3    S    
C9    H1    S    
C35   H9    S    
C42   H25   S    
C35   O21   D    
C11   C13   S    
C40   H16   S    
C2    C27   S    
C44   H21   S    
C14   C16   S    
C45   H27   S    
C11   C35   S    
C7    C14   S    
O9    V1    S    
O10   V2    S    
O1    V3    S    
C23   C28   A    
C46   O26   D    
C17   C19   A    
C45   O25   D    
C30   C33   A    
O18   V4    S    
O15   C5    A    
O16   C6    A    
O1    C3    A    
C41   H15   S    
C26   C28   A    
O10   C6    A    
O16   V4    S    
C10   H2    S    
C16   C38   S    
C40   C41   S    
C17   C22   A    
C43   H24   S    
O5    V1    S    
O17   C7    A    
O6    V2    S    
C47   H29   S    
C20   C22   A    
O18   C8    A    
C42   H26   S    
O2    V4    S    
C9    C15   S    
V3    O19   S    
C44   H22   S    
V4    O20   S    
C43   C44   S    
O9    C5    A    
O13   V1    S    
C4    C33   S    
C48   O28   D    
O14   V2    S    
C46   H28   S    
O2    C4    A    
C24   C27   A    
C15   C37   S    
C39   C40   S    
O4    V2    S    
C31   C33   A    
C36   O22   D    
C23   C25   A    
C42   C43   S    
C17   C39   S    
C18   C42   S    
