data_mof_unit_38979.cif
_audit_creation_date              2013-03-05T16:12:49-0500
_audit_creation_method            fapswitch 2.2
_symmetry_space_group_name_H-M    P1
_symmetry_Int_Tables_number       1
_space_group_crystal_system       triclinic
_cell_length_a                    10.760981
_cell_length_b                    9.965154
_cell_length_c                    27.663949
_cell_angle_alpha                 89.39291
_cell_angle_beta                  91.428368
_cell_angle_gamma                 88.239301
_cell_volume                      2964.0253827

loop_
_atom_site_label
_atom_site_type_symbol
_atom_site_description
_atom_site_fract_x
_atom_site_fract_y
_atom_site_fract_z
_atom_type_partial_charge
O1    O     O_R   0.316770 0.614620 0.500000 -0.575298
O2    O     O_R   0.683230 0.385380 0.500000 -0.586709
O3    O     O_R   0.683230 0.614620 0.500000 -0.605693
O4    O     O_R   0.316770 0.385380 0.500000 -0.590965
C1    C     C_R   0.260421 0.502429 0.504233 0.966260
C2    C     C_R   0.739372 0.498322 0.495272 0.975836
O5    O     O_R   0.500030 0.614650 0.428760 -0.601282
O6    O     O_R   0.499970 0.385350 0.571240 -0.606710
O7    O     O_R   0.499970 0.614650 0.571240 -0.592283
O8    O     O_R   0.500030 0.385350 0.428760 -0.608265
C3    C     C_R   0.497579 0.500247 0.406143 0.968686
C4    C     C_R   0.501728 0.499439 0.593736 0.964375
Zn1   Zn    Zn3+2 0.500000 0.653120 0.500000 1.077714
Zn2   Zn    Zn3+2 0.500000 0.346880 0.500000 1.060749
C5    C     C_R   0.432518 0.370208 0.176668 0.528802
C6    C     C_R   0.598970 0.553518 0.823413 0.521893
O9    O     O_2   0.367739 0.281635 0.202274 -0.529762
O10   O     O_2   0.633055 0.662887 0.798525 -0.545966
N1    N     N_R   0.487787 0.472158 0.200634 -0.354928
N2    N     N_R   0.548043 0.450379 0.798559 -0.350769
C7    C     C_R   0.559719 0.562018 0.177953 0.535306
C8    C     C_R   0.502922 0.340824 0.821321 0.536420
C9    C     C_R   0.586087 0.429392 0.278440 -0.144498
C10   C     C_R   0.420810 0.475012 0.724888 -0.147242
C11   C     C_R   0.593490 0.441047 0.328264 -0.057936
C12   C     C_R   0.406153 0.491507 0.674918 -0.078236
C13   C     C_R   0.381552 0.540043 0.326849 -0.129012
C14   C     C_R   0.633359 0.490926 0.668902 -0.124779
C15   C     C_R   0.378745 0.534100 0.275555 0.146519
C16   C     C_R   0.646101 0.464110 0.718904 0.147732
C17   C     C_R   0.482267 0.477436 0.252138 0.297148
C18   C     C_R   0.538621 0.459982 0.746826 0.279486
C19   C     C_R   0.523779 0.447677 0.102310 -0.089096
C20   C     C_R   0.561362 0.436443 0.898732 -0.089090
C21   C     C_R   0.443794 0.358600 0.126057 -0.035805
C22   C     C_R   0.612162 0.547192 0.874180 -0.034406
C23   C     C_R   0.378623 0.262816 0.098339 0.179517
C24   C     C_R   0.671908 0.648021 0.901307 0.171349
C25   C     C_R   0.588388 0.545274 0.129162 -0.086862
C26   C     C_R   0.510931 0.328789 0.872133 -0.089032
C27   C     C_R   0.491879 0.497960 0.353039 -0.171870
C28   C     C_R   0.513341 0.496955 0.646512 -0.205726
C29   C     C_R   0.497690 0.330941 0.974302 0.050889
C30   C     C_R   0.614240 0.533038 0.027964 0.050151
C31   C     C_R   0.615453 0.537173 0.976739 0.014266
C32   C     C_R   0.478274 0.340591 0.024721 0.014247
C33   C     C_R   0.558863 0.434478 0.949993 0.082541
C34   C     C_R   0.538913 0.440130 0.051622 0.082890
C35   C     C_R   0.459512 0.219462 0.947612 -0.262210
C36   C     C_R   0.688312 0.617424 0.056300 -0.263360
C37   C     C_R   0.467562 0.215467 0.897443 -0.010950
C38   C     C_R   0.678185 0.623094 0.106265 -0.011388
O11   O     O_2   0.446783 0.246987 0.794496 -0.495540
O12   O     O_2   0.600905 0.668336 0.202812 -0.501762
C39   C     C_R   0.396342 0.256293 0.048574 -0.193082
C40   C     C_R   0.669840 0.642870 0.951597 -0.195917
H1    H     H_    0.339934 0.475397 0.747488 0.186440
H2    H     H_    0.664448 0.387364 0.259134 0.175012
H3    H     H_    0.428847 0.130010 0.965540 0.162028
H4    H     H_    0.761008 0.674538 0.040563 0.162738
H5    H     H_    0.340233 0.187331 0.028480 0.155346
H6    H     H_    0.707511 0.727050 0.970498 0.154532
C41   C     C_R   0.066073 0.385618 0.515636 -0.112766
C42   C     C_R   0.932597 0.619833 0.483934 -0.106392
C43   C     C_R   0.943209 0.376003 0.499672 -0.143216
C44   C     C_R   0.057503 0.628323 0.497053 -0.148493
C45   C     C_R   0.873592 0.496075 0.489778 -0.196351
C46   C     C_R   0.126104 0.508029 0.508869 -0.208046
C47   C     C_R   0.548722 0.068769 0.538515 -0.071028
C48   C     C_R   0.452874 0.931453 0.461252 -0.068681
C49   C     C_R   0.450259 0.074592 0.461661 -0.050132
C50   C     C_R   0.549254 0.925589 0.538471 -0.036148
N3    N     N_R   0.500000 0.857200 0.500000 -0.157047
N4    N     N_R   0.500000 0.142800 0.500000 -0.167231
C51   C     C_2   0.266862 0.579812 0.352839 0.967490
O13   O     O_2   0.203025 0.677361 0.339312 -0.567231
O14   O     O_R   0.230154 0.503565 0.392294 -0.809902
H7    H     H_    0.147590 0.536660 0.405231 0.352242
C52   C     C_2   0.746222 0.516455 0.641019 0.946712
O15   O     O_2   0.813416 0.607980 0.652781 -0.561423
O16   O     O_R   0.778785 0.433369 0.602969 -0.759319
H8    H     H_    0.863141 0.455016 0.590032 0.349526
C53   C     C_2   0.603167 0.136722 0.580497 1.003301
O17   O     O_2   0.705275 0.185399 0.577721 -0.536271
O18   O     O_R   0.539498 0.140837 0.623919 -0.729910
H9    H     H_    0.587188 0.188317 0.650418 0.355871
C54   C     C_2   0.404215 0.863731 0.418291 0.971409
O19   O     O_2   0.312012 0.796689 0.421199 -0.578176
O20   O     O_R   0.463439 0.877533 0.374185 -0.728547
H10   H     H_    0.420471 0.828132 0.346995 0.360341
C55   C     C_2   0.385915 0.148500 0.421439 0.995914
O21   O     O_2   0.435387 0.157133 0.382250 -0.563190
O22   O     O_R   0.265673 0.201090 0.427408 -0.744354
H11   H     H_    0.228213 0.241773 0.396433 0.372729
C56   C     C_2   0.608595 0.851587 0.579716 0.991206
O23   O     O_2   0.707653 0.790939 0.574748 -0.552068
O24   O     O_R   0.552743 0.854544 0.624795 -0.732855
H12   H     H_    0.602823 0.801774 0.650481 0.362588
C57   C     C_3   0.265890 0.584758 0.246138 -0.736134
H13   H     H_    0.251846 0.694376 0.251355 0.266015
H14   H     H_    0.274650 0.569529 0.206764 0.223340
H15   H     H_    0.182150 0.531535 0.257542 0.255086
C58   C     C_3   0.773710 0.435376 0.741830 -0.727653
H16   H     H_    0.769238 0.390812 0.778617 0.223082
H17   H     H_    0.826184 0.361532 0.719780 0.247200
H18   H     H_    0.826013 0.529435 0.744187 0.280374
C59   C     C_3   0.286855 0.167932 0.119637 -0.723871
H19   H     H_    0.241156 0.105670 0.091703 0.209174
H20   H     H_    0.335498 0.097254 0.145556 0.277732
H21   H     H_    0.211744 0.225796 0.137691 0.263367
C60   C     C_3   0.743013 0.760344 0.878679 -0.716261
H22   H     H_    0.794188 0.819635 0.906047 0.210731
H23   H     H_    0.813551 0.718128 0.853958 0.261101
H24   H     H_    0.678388 0.831312 0.858949 0.290414
C61   C     C_2   0.277772 0.508399 0.654272 0.990704
O25   O     O_2   0.191392 0.455752 0.674360 -0.556203
O26   O     O_R   0.253950 0.588957 0.613313 -0.772675
H25   H     H_    0.161978 0.596754 0.604545 0.367739
C62   C     C_2   0.711980 0.397838 0.352537 0.987691
O27   O     O_2   0.762726 0.291073 0.341850 -0.545340
O28   O     O_R   0.770419 0.483522 0.384731 -0.780453
H26   H     H_    0.857965 0.450477 0.393821 0.361928
C63   C     C_2   0.433589 0.088152 0.873844 0.998789
O29   O     O_2   0.336911 0.034461 0.884189 -0.613367
O30   O     O_R   0.514516 0.026548 0.841492 -0.755116
H27   H     H_    0.480645 0.940601 0.827834 0.367754
C64   C     C_2   0.771233 0.702485 0.133149 1.004248
O31   O     O_2   0.795490 0.815102 0.118923 -0.615192
O32   O     O_R   0.835218 0.645963 0.173416 -0.755784
H28   H     H_    0.897340 0.709057 0.188237 0.361992
C65   C     C_2   0.130055 0.271518 0.542180 1.050613
O33   O     O_2   0.166151 0.286669 0.583938 -0.582555
O34   O     O_R   0.154131 0.150055 0.519032 -0.747789
H29   H     H_    0.201983 0.082667 0.540630 0.367884
C66   C     C_2   0.863941 0.740836 0.463805 1.052377
O35   O     O_2   0.818338 0.739011 0.422916 -0.543704
O36   O     O_R   0.847566 0.854103 0.492522 -0.719422
H30   H     H_    0.789526 0.924080 0.476613 0.336426
C67   C     C_2   0.891352 0.242176 0.489197 1.046702
O37   O     O_2   0.903196 0.149583 0.518419 -0.532294
O38   O     O_R   0.828375 0.223413 0.445107 -0.765653
H31   H     H_    0.794589 0.130309 0.441670 0.353131
C68   C     C_2   0.111801 0.764162 0.499962 1.061551
O39   O     O_2   0.166060 0.798294 0.536988 -0.565079
O40   O     O_R   0.096012 0.854527 0.461109 -0.732077
H32   H     H_    0.136694 0.943142 0.467251 0.386487

loop_
_geom_bond_atom_site_label_1
_geom_bond_atom_site_label_2
_geom_bond_distance
_ccdc_geom_bond_type
C9    H2    1.084980 S    
C44   C46   1.419186 A    
C54   O19   1.216900 D    
C41   C43   1.389897 A    
O22   H11   1.013145 S    
C13   C15   1.420445 A    
C37   C63   1.484479 S    
C56   O23   1.220608 D    
O3    C2    1.299739 A    
N1    C17   1.428972 S    
C35   C37   1.393631 A    
C64   O32   1.398861 S    
O24   H12   1.013616 S    
C66   O35   1.222267 D    
O14   H7    1.013201 S    
C5    N1    1.362784 A    
C19   C25   1.418515 A    
C53   O17   1.218475 D    
O1    C1    1.293735 A    
Zn2   N4    2.033689 S    
N1    C7    1.360010 A    
C10   C12   1.394817 A    
C23   C59   1.513593 S    
C7    O12   1.349437 S    
C63   O30   1.397815 S    
C68   O39   1.222905 D    
C23   C39   1.396465 A    
C68   O40   1.398588 S    
C14   C28   1.417676 A    
C14   C52   1.481994 S    
O7    Zn1   2.003736 S    
C12   C61   1.485744 S    
C4    C28   1.462104 S    
C50   C56   1.473238 S    
C60   H22   1.110967 S    
C31   C40   1.406538 A    
C10   H1    1.084107 S    
C61   O26   1.395596 S    
C32   C39   1.407546 A    
C36   C38   1.390829 A    
C59   H19   1.110820 S    
C48   C49   1.425979 A    
C41   C65   1.488316 S    
C60   H24   1.106498 S    
O3    Zn1   1.997109 S    
C6    N2    1.363903 A    
C31   C33   1.413320 A    
C25   C38   1.415094 A    
C42   C66   1.490117 S    
C66   O36   1.396414 S    
C59   H20   1.109990 S    
O2    C2    1.300547 A    
C1    C46   1.453660 S    
C13   C51   1.489112 S    
C48   C54   1.466205 S    
C11   C62   1.476319 S    
C5    C21   1.413993 A    
O7    C4    1.299505 A    
C38   C64   1.485133 S    
O40   H32   1.011703 S    
C8    O11   1.348015 S    
C62   O28   1.392462 S    
C67   O37   1.221862 D    
C32   C34   1.412344 A    
C15   C57   1.515368 S    
C42   C45   1.413945 A    
C63   O29   1.223236 D    
C60   H23   1.110506 S    
O8    Zn2   2.003741 S    
C11   C27   1.412259 A    
C55   O21   1.222985 D    
C52   O16   1.391164 S    
C29   C35   1.406547 A    
C44   C68   1.492923 S    
C43   C45   1.412654 A    
O18   H9    1.013962 S    
O16   H8    1.012534 S    
C9    C17   1.387809 A    
C16   C58   1.516066 S    
C47   C50   1.426667 A    
O5    C3    1.306908 A    
C51   O13   1.222844 D    
C10   C18   1.394989 A    
C47   C53   1.468930 S    
C55   O22   1.395341 S    
C13   C27   1.424918 A    
C57   H13   1.109597 S    
C7    C25   1.402567 A    
O6    C4    1.302297 A    
C8    C26   1.409763 A    
C48   N3    1.373580 A    
C24   C40   1.392397 A    
C47   N4    1.373344 A    
C58   H17   1.110656 S    
C51   O14   1.395354 S    
O28   H26   1.013193 S    
C2    C45   1.455598 S    
C53   O18   1.398001 S    
Zn1   N3    2.033689 S    
C54   O20   1.398013 S    
O30   H27   1.014063 S    
C59   H21   1.110329 S    
C40   H6    1.077521 S    
O1    Zn1   2.020252 S    
C65   O33   1.221931 D    
C30   C31   1.417645 A    
C12   C28   1.413878 A    
O32   H28   1.013872 S    
N2    C18   1.434197 S    
C30   C36   1.407469 A    
C5    O9    1.347578 S    
C41   C46   1.410666 A    
O6    Zn2   2.011706 S    
C21   C23   1.421521 A    
N2    C8    1.362854 A    
C50   N3    1.373842 A    
C65   O34   1.395599 S    
C49   N4    1.372127 A    
C62   O27   1.223339 D    
C56   O24   1.397962 S    
C26   C37   1.419588 A    
O36   H30   1.011480 S    
C35   H3    1.079968 S    
C36   H4    1.079132 S    
C22   C24   1.420447 A    
C24   C60   1.513880 S    
C15   C17   1.408750 A    
O26   H25   1.013556 S    
C6    C22   1.408605 A    
C16   C18   1.408125 A    
C67   O38   1.397627 S    
C61   O25   1.223780 D    
O34   H29   1.013916 S    
O4    C1    1.305709 A    
C39   H5    1.078281 S    
C14   C16   1.408576 A    
C19   C21   1.422381 A    
C3    C27   1.469265 S    
C58   H18   1.109713 S    
C20   C22   1.420505 A    
C9    C11   1.384970 A    
O4    Zn2   1.997109 S    
O2    Zn2   2.020252 S    
C29   C32   1.419321 A    
O8    C3    1.298169 A    
C52   O15   1.222965 D    
C43   C67   1.489879 S    
C30   C34   1.415031 A    
O5    Zn1   2.011712 S    
C57   H15   1.110329 S    
C49   C55   1.474069 S    
C6    O10   1.348200 S    
C58   H16   1.108771 S    
C19   C34   1.418182 A    
C20   C26   1.421066 A    
C20   C33   1.418954 A    
O20   H10   1.013115 S    
O38   H31   1.011382 S    
C29   C33   1.413943 A    
C57   H14   1.107288 S    
C64   O31   1.223200 D    
C42   C44   1.388823 A    
