data_mof_unit_43652.cif
_audit_creation_date              2012-12-11T14:34:08-0500
_audit_creation_method            fapswitch 2.2
_symmetry_space_group_name_H-M    P1
_symmetry_Int_Tables_number       1
_space_group_crystal_system       triclinic
_cell_length_a                    14.0029
_cell_length_b                    14.028215
_cell_length_c                    27.303526
_cell_angle_alpha                 90.128995
_cell_angle_beta                  89.922623
_cell_angle_gamma                 119.712986
_cell_volume                      4658.19261245

loop_
_atom_site_label
_atom_site_type_symbol
_atom_type_description
_atom_site_fract_x
_atom_site_fract_y
_atom_site_fract_z
_atom_type_partial_charge
C1    C     C_R   0.235112 0.785597 0.569625 0.535232
C2    C     C_1   0.710087 0.871224 0.859791 -0.080073
C3    C     C_3   0.877778 0.622136 0.319967 -0.263764
C4    C     C_3   0.844447 0.695117 0.348791 -0.289973
C5    C     C_3   0.753315 0.627263 0.385350 -0.447401
C6    C     C_3   0.409640 0.291045 0.314945 -0.263231
C7    C     C_3   0.348535 0.180720 0.341787 -0.285273
C8    C     C_3   0.428257 0.157586 0.370458 -0.456928
C9    C     C_3   0.533331 0.629069 0.094301 -0.000426
C10   C     C_3   0.494905 0.512855 0.075635 -0.251776
C11   C     C_3   0.387727 0.468106 0.046913 -0.475785
C12   C     C_3   0.367182 0.894882 0.095494 -0.000832
C13   C     C_1   0.128385 0.831551 0.861503 -0.078485
C14   C     C_3   0.479417 0.969565 0.072367 -0.246370
C15   C     C_3   0.522008 0.903249 0.044950 -0.483828
C16   C     C_3   0.092381 0.466880 0.096494 0.000620
C17   C     C_3   0.012973 0.499573 0.073953 -0.246792
C18   C     C_3   0.074585 0.608415 0.046652 -0.480792
C19   C     C_3   0.528262 0.995437 0.688553 -0.003393
C20   C     C_3   0.596632 0.083195 0.650552 -0.261704
C21   C     C_3   0.526101 0.115279 0.619960 -0.482679
C22   C     C_3   0.006432 0.527271 0.691543 -0.005154
C23   C     C_3   0.912096 0.499687 0.655856 -0.262950
C24   C     C_1   0.123364 0.221750 0.851448 -0.080232
C25   C     C_3   0.884279 0.397493 0.625726 -0.484916
C26   C     C_3   0.465881 0.450078 0.699785 -0.007388
C27   C     C_3   0.529836 0.406947 0.670657 -0.249527
C28   C     C_3   0.632849 0.500341 0.647686 -0.496447
C29   C     C_3   0.824400 0.043921 0.693449 -0.250787
C30   C     C_3   0.867130 0.039431 0.641935 -0.327649
C31   C     C_3   0.903913 0.145739 0.613612 -0.465611
C32   C     C_3   0.950468 0.770695 0.695479 -0.248052
C33   C     C_3   0.959758 0.816873 0.643528 -0.323979
C34   C     C_3   0.848686 0.766863 0.617880 -0.465698
C35   C     C_1   0.623573 0.826295 0.659051 -0.084286
C36   C     C_3   0.205590 0.153550 0.680102 -0.237311
C37   C     C_3   0.215051 0.175545 0.624669 -0.298986
C38   C     C_3   0.237641 0.094337 0.596725 -0.461749
C39   C     C_1   0.173667 0.795111 0.660124 -0.082082
C40   C     C_1   0.198166 0.368240 0.657831 -0.083384
C41   C     C_1   0.596433 0.799494 0.617181 -0.054256
C42   C     C_1   0.201088 0.796135 0.618039 -0.058594
C43   C     C_1   0.201833 0.401884 0.616928 -0.058009
C44   C     C_R   0.107823 0.224463 0.086770 0.585433
C45   C     C_R   0.214542 0.449886 0.569566 0.538172
C46   C     C_R   0.776123 0.883932 0.087001 0.574329
C47   C     C_R   0.116060 0.892625 0.087111 0.574662
C48   C     C_R   0.069624 0.159407 0.943472 0.562813
C49   C     C_R   0.780667 0.887663 0.950564 0.535474
C50   C     C_R   0.112729 0.892533 0.950982 0.536341
C51   C     C_R   0.628359 0.892659 0.359735 -0.150357
C52   C     C_R   0.105367 0.742086 0.360950 -0.150379
C53   C     C_R   0.267121 0.372498 0.359461 -0.150189
C54   C     C_R   0.646834 0.909948 0.308957 0.011820
C55   C     C_R   0.087182 0.746355 0.310512 0.023083
C56   C     C_R   0.551100 0.765189 0.569283 0.538051
C57   C     C_R   0.264151 0.352607 0.308729 0.023002
C58   C     C_R   0.688128 0.936597 0.207663 -0.021042
C59   C     C_R   0.059492 0.760279 0.209250 -0.018388
C60   C     C_R   0.249223 0.312253 0.207153 -0.017266
C61   C     C_R   0.236182 0.786134 0.430275 0.543487
C62   C     C_R   0.213802 0.449450 0.430208 0.545094
C63   C     C_R   0.549435 0.763418 0.430003 0.541805
C64   C     C_R   0.708546 0.026839 0.236799 -0.107803
C65   C     C_R   0.968195 0.697248 0.239065 -0.117818
C66   C     C_R   0.321310 0.293814 0.235752 -0.119587
C67   C     C_3   0.657013 0.748953 0.788415 -0.242969
C68   C     C_R   0.688102 0.015613 0.287631 -0.005087
C69   C     C_R   0.980295 0.689720 0.289657 -0.002406
C70   C     C_R   0.330471 0.314047 0.286380 -0.005644
C71   C     C_R   0.721226 0.951660 0.158826 -0.190148
C72   C     C_R   0.045118 0.776574 0.160207 -0.187779
C73   C     C_R   0.231358 0.279812 0.158219 -0.189809
C74   C     C_R   0.710170 0.862729 0.131073 -0.010133
C75   C     C_R   0.135569 0.849107 0.131824 -0.009798
C76   C     C_R   0.151960 0.289800 0.131024 -0.011741
C77   C     C_R   0.564064 0.698455 0.348895 -0.131488
C78   C     C_3   0.245915 0.905853 0.789723 -0.240614
C79   C     C_R   0.301042 0.864279 0.349336 -0.129994
C80   C     C_R   0.126316 0.424243 0.350314 -0.124641
C81   C     C_R   0.580095 0.712445 0.299025 0.008080
C82   C     C_R   0.286315 0.867249 0.299634 0.006884
C83   C     C_R   0.125823 0.411073 0.300274 0.010929
C84   C     C_R   0.622249 0.818047 0.278702 0.052498
C85   C     C_R   0.179574 0.808755 0.279815 0.051300
C86   C     C_R   0.193285 0.373765 0.279153 0.054047
C87   C     C_R   0.553383 0.621292 0.269313 -0.152357
C88   C     C_R   0.377827 0.927391 0.269601 -0.151901
C89   C     C_3   0.072915 0.303057 0.784869 -0.239227
C90   C     C_R   0.059524 0.436679 0.271161 -0.154738
C91   C     C_R   0.572052 0.634458 0.219336 -0.119529
C92   C     C_R   0.364200 0.932712 0.219681 -0.119426
C93   C     C_R   0.055574 0.420739 0.220988 -0.124211
C94   C     C_R   0.618904 0.739410 0.198538 0.024023
C95   C     C_R   0.258486 0.878635 0.199246 0.023794
C96   C     C_R   0.116726 0.377324 0.199416 0.024546
C97   C     C_3   0.572796 0.884415 0.738459 0.191067
C98   C     C_3   0.119975 0.684979 0.739171 0.188783
C99   C     C_3   0.295842 0.388165 0.738981 0.188343
C100  C     C_3   0.624698 0.736728 0.733931 -0.281066
C101  C     C_R   0.641656 0.831243 0.228209 0.013705
C102  C     C_R   0.165862 0.814650 0.229351 0.014103
C103  C     C_R   0.187677 0.355860 0.228487 0.015768
C104  C     C_R   0.649527 0.755071 0.149201 0.237386
C105  C     C_R   0.243150 0.892613 0.149786 0.236689
C106  C     C_R   0.103161 0.348844 0.149830 0.236865
C107  C     C_R   0.587821 0.787647 0.379499 -0.005208
C108  C     C_R   0.211556 0.801460 0.380137 -0.005023
C109  C     C_R   0.198298 0.407863 0.380086 -0.005832
C110  C     C_3   0.773840 0.932870 0.721774 -0.057728
C111  C     C_3   0.259888 0.886387 0.735414 -0.280350
C112  C     C_3   0.060322 0.828867 0.724797 -0.047327
C113  C     C_3   0.143023 0.200332 0.710039 -0.053105
C114  C     C_3   0.790253 0.950908 0.778442 -0.202299
C115  C     C_3   0.040141 0.821219 0.781265 -0.201355
C116  C     C_3   0.128857 0.162449 0.764882 -0.211061
C117  C     C_1   0.736513 0.876272 0.902158 -0.028480
C118  C     C_1   0.124515 0.856406 0.903417 -0.026504
C119  C     C_1   0.098479 0.193986 0.893513 -0.021875
C120  C     C_3   0.649391 0.848369 0.711464 0.108803
C121  C     C_3   0.150362 0.796180 0.712886 0.111604
C122  C     C_3   0.101117 0.349980 0.732821 -0.281728
C123  C     C_3   0.187630 0.327144 0.708236 0.116735
C124  C     C_3   0.590057 0.884494 0.795060 -0.160569
C125  C     C_3   0.124168 0.701871 0.796086 -0.163682
C126  C     C_3   0.270114 0.351152 0.793759 -0.161312
C127  C     C_3   0.687043 0.864503 0.806835 0.030742
C128  C     C_3   0.133936 0.814327 0.808642 0.029875
C129  C     C_3   0.148876 0.258133 0.800039 0.030084
C130  C     C_3   0.711014 0.114235 0.319543 -0.259100
C131  C     C_3   0.750022 0.223117 0.292366 -0.303687
C132  C     C_3   0.767467 0.314747 0.327583 -0.463321
Cr1   Cr    Cr6+3 0.164410 0.584450 0.499910 0.999609
Cr2   Cr    Cr6+3 0.415550 0.579960 0.499910 0.999983
Cr3   Cr    Cr6+3 0.420040 0.835590 0.499910 0.996581
Cr4   Cr    Cr6+3 0.155170 0.075460 0.019960 1.024376
Cr5   Cr    Cr6+3 0.924540 0.079710 0.019960 1.020136
Cr6   Cr    Cr6+3 0.920290 0.844830 0.019960 1.020304
H1    H     H_    0.606012 0.963818 0.811432 0.148877
H2    H     H_    0.728439 0.735487 0.793187 0.122549
H3    H     H_    0.837571 0.484349 0.676691 0.170406
H4    H     H_    0.935370 0.570111 0.630749 0.162979
H5    H     H_    0.957422 0.409060 0.605002 0.187556
H6    H     H_    0.817527 0.381413 0.599411 0.138038
H7    H     H_    0.855647 0.325247 0.650177 0.133409
H8    H     H_    0.519493 0.504839 0.729343 0.134810
H9    H     H_    0.440951 0.496029 0.674388 0.137982
H10   H     H_    0.553881 0.359277 0.695223 0.170114
H11   H     H_    0.476678 0.351334 0.641174 0.163078
H12   H     H_    0.611111 0.551064 0.624000 0.172136
H13   H     H_    0.251021 0.987209 0.794133 0.123161
H14   H     H_    0.674390 0.466037 0.624884 0.139202
H15   H     H_    0.690615 0.552762 0.676724 0.136367
H16   H     H_    0.832600 0.157483 0.606086 0.147806
H17   H     H_    0.966505 0.217199 0.634506 0.152138
H18   H     H_    0.940454 0.141724 0.578086 0.150984
H19   H     H_    0.937793 0.025507 0.645186 0.149203
H20   H     H_    0.803753 0.971558 0.619890 0.179120
H21   H     H_    0.767792 0.076008 0.690325 0.218277
H22   H     H_    0.893772 0.107154 0.714985 0.114192
H23   H     H_    0.820090 0.679713 0.608820 0.152987
H24   H     H_    0.985482 0.236429 0.786396 0.119722
H25   H     H_    0.786987 0.772102 0.641317 0.155778
H26   H     H_    0.856869 0.811685 0.583260 0.149753
H27   H     H_    0.995872 0.906866 0.645490 0.144839
H28   H     H_    0.013304 0.799186 0.620121 0.176605
H29   H     H_    0.915224 0.681372 0.693347 0.210333
H30   H     H_    0.888685 0.782447 0.715873 0.111668
H31   H     H_    0.311421 0.095017 0.611690 0.152315
H32   H     H_    0.166430 0.009996 0.599539 0.149205
H33   H     H_    0.251994 0.117533 0.557443 0.150199
H34   H     H_    0.137559 0.168470 0.610344 0.161660
H35   H     H_    0.764659 0.034001 0.143825 0.142420
H36   H     H_    0.284401 0.259100 0.617337 0.187352
H37   H     H_    0.287142 0.176465 0.695746 0.200045
H38   H     H_    0.156589 0.064574 0.683805 0.106802
H39   H     H_    0.962516 0.740880 0.145454 0.146599
H40   H     H_    0.272005 0.238030 0.142666 0.141964
H41   H     H_    0.643306 0.959186 0.384319 0.110527
H42   H     H_    0.038753 0.692483 0.385703 0.119099
H43   H     H_    0.323337 0.362837 0.383255 0.118883
H44   H     H_    0.743160 0.106110 0.219279 0.112500
H45   H     H_    0.049419 0.634446 0.813636 0.146486
H46   H     H_    0.886626 0.656332 0.223005 0.114257
H47   H     H_    0.368564 0.260546 0.218706 0.112091
H48   H     H_    0.552957 0.562706 0.197432 0.152632
H49   H     H_    0.436419 0.981714 0.197488 0.153192
H50   H     H_    0.001531 0.438870 0.199527 0.152891
H51   H     H_    0.519803 0.539961 0.284896 0.111620
H52   H     H_    0.459940 0.971553 0.284852 0.116728
H53   H     H_    0.009645 0.467920 0.287298 0.113184
H54   H     H_    0.528135 0.615955 0.363560 0.133812
H55   H     H_    0.384291 0.907284 0.363613 0.135139
H56   H     H_    0.326573 0.322408 0.807172 0.147897
H57   H     H_    0.074625 0.454346 0.365571 0.134822
H58   H     H_    0.822426 0.894011 0.710369 0.119592
H59   H     H_    0.096546 0.916242 0.716686 0.107818
H60   H     H_    0.060634 0.161541 0.693657 0.118812
H61   H     H_    0.806484 0.034399 0.788865 0.128910
H62   H     H_    0.960062 0.747564 0.790472 0.137228
H63   H     H_    0.187193 0.133079 0.774372 0.117871
H64   H     H_    0.863520 0.944968 0.789640 0.088801
H65   H     H_    0.035164 0.894247 0.793859 0.087691
H66   H     H_    0.044682 0.091895 0.770319 0.087989
H67   H     H_    0.484797 0.822827 0.731255 0.066858
H68   H     H_    0.535224 0.677242 0.730446 0.090969
H69   H     H_    0.322693 0.860168 0.732349 0.098627
H70   H     H_    0.134597 0.440289 0.734766 0.096577
H71   H     H_    0.669683 0.701948 0.713885 0.107752
H72   H     H_    0.290091 0.965129 0.715238 0.104717
H73   H     H_    0.024219 0.313145 0.710800 0.103057
H74   H     H_    0.587405 0.684822 0.810052 0.119326
H75   H     H_    0.314496 0.908007 0.811232 0.125281
H76   H     H_    0.081883 0.368657 0.810654 0.126557
H77   H     H_    0.689973 0.293959 0.347141 0.149756
H78   H     H_    0.182358 0.660037 0.730116 0.064222
H79   H     H_    0.832634 0.329552 0.354627 0.152430
H80   H     H_    0.793576 0.390743 0.306254 0.131702
H81   H     H_    0.829379 0.247665 0.273616 0.174113
H82   H     H_    0.687412 0.213534 0.264819 0.155256
H83   H     H_    0.634018 0.094785 0.339322 0.129003
H84   H     H_    0.774671 0.126338 0.347000 0.149189
H85   H     H_    0.679404 0.563520 0.365912 0.144706
H86   H     H_    0.781745 0.586859 0.411961 0.145976
H87   H     H_    0.730972 0.681699 0.405937 0.164804
H88   H     H_    0.915645 0.760125 0.369159 0.163683
H89   H     H_    0.326032 0.478438 0.737903 0.062097
H90   H     H_    0.814885 0.735963 0.322907 0.177996
H91   H     H_    0.807653 0.567316 0.295925 0.131588
H92   H     H_    0.891227 0.567403 0.344860 0.131322
H93   H     H_    0.484278 0.147275 0.344922 0.144768
H94   H     H_    0.477520 0.225856 0.396292 0.145944
H95   H     H_    0.381420 0.080975 0.391908 0.160224
H96   H     H_    0.287176 0.180653 0.367607 0.162437
H97   H     H_    0.303976 0.113525 0.314760 0.179240
H98   H     H_    0.470716 0.288314 0.289705 0.135818
H99   H     H_    0.458403 0.359250 0.340882 0.124068
H100  H     H_    0.513516 0.819238 0.812437 0.066075
H101  H     H_    0.547975 0.683918 0.062423 0.133752
H102  H     H_    0.466420 0.626610 0.117586 0.114219
H103  H     H_    0.559264 0.513264 0.051613 0.175410
H104  H     H_    0.481843 0.457955 0.107292 0.162265
H105  H     H_    0.322340 0.466661 0.070439 0.130607
H106  H     H_    0.361003 0.383062 0.034556 0.161981
H107  H     H_    0.399462 0.519906 0.014265 0.144217
H108  H     H_    0.307287 0.847696 0.065998 0.128345
H109  H     H_    0.375436 0.836639 0.120627 0.116582
H110  H     H_    0.472777 0.027027 0.046462 0.175795
H111  H     H_    0.195922 0.698392 0.811527 0.065967
H112  H     H_    0.539177 0.018525 0.101555 0.164236
H113  H     H_    0.529872 0.846092 0.070449 0.129553
H114  H     H_    0.604194 0.959530 0.029156 0.154729
H115  H     H_    0.465003 0.855525 0.014772 0.140330
H116  H     H_    0.141383 0.457370 0.066695 0.133551
H117  H     H_    0.148770 0.534081 0.121751 0.116346
H118  H     H_    0.956913 0.434584 0.048076 0.177251
H119  H     H_    0.962599 0.507636 0.103459 0.164085
H120  H     H_    0.130524 0.674381 0.072049 0.130490
H121  H     H_    0.014920 0.630812 0.031347 0.155117
H122  H     H_    0.285291 0.422742 0.816914 0.071512
H123  H     H_    0.123374 0.601629 0.016109 0.141743
H124  H     H_    0.473966 0.020647 0.707055 0.148736
H125  H     H_    0.477064 0.916147 0.669032 0.127599
H126  H     H_    0.660693 0.158162 0.669291 0.167116
H127  H     H_    0.637502 0.051224 0.625896 0.164587
H128  H     H_    0.458558 0.041871 0.602003 0.185385
H129  H     H_    0.577551 0.174694 0.591283 0.139266
H130  H     H_    0.491089 0.154870 0.643622 0.133125
H131  H     H_    0.986506 0.451548 0.711634 0.148800
H132  H     H_    0.083489 0.555418 0.669987 0.129924
O1    O     O_R   0.137150 0.468200 0.553200 -0.525393
O2    O     O_R   0.140110 0.470540 0.446010 -0.524825
O3    O     O_R   0.529460 0.669570 0.446010 -0.530702
O4    O     O_R   0.330430 0.859890 0.446010 -0.528796
O5    O     O_R   0.176710 0.690910 0.450560 -0.502183
O6    O     O_R   0.309090 0.485800 0.450560 -0.504126
O7    O     O_R   0.514200 0.823290 0.450560 -0.502076
O8    O     O_3   0.333333 0.666667 0.499990 -0.263865
O9    O     O_R   0.176750 0.985260 0.074180 -0.462089
O10   O     O_R   0.014740 0.191490 0.074180 -0.458518
O11   O     O_R   0.808510 0.823250 0.074180 -0.461755
O12   O     O_R   0.531800 0.668950 0.553200 -0.518566
O13   O     O_R   0.146100 0.172630 0.068980 -0.509554
O14   O     O_R   0.827370 0.973470 0.068980 -0.513385
O15   O     O_R   0.026530 0.853900 0.068980 -0.514192
O16   O     O_3   0.000000 0.000000 0.020040 -0.246561
O17   O     O_R   0.148270 0.170520 0.969620 -0.499859
O18   O     O_R   0.829480 0.977750 0.969620 -0.523073
O19   O     O_R   0.022250 0.851730 0.969620 -0.504608
O20   O     O_3   0.632334 0.666231 0.120648 -0.565786
O21   O     O_3   0.332556 0.960338 0.120816 -0.565832
O22   O     O_3   0.031313 0.366362 0.121543 -0.566039
O23   O     O_R   0.331050 0.862850 0.553200 -0.524608
O24   O     O_3   0.598810 0.992152 0.724734 -0.598346
O25   O     O_3   0.011283 0.603708 0.726621 -0.595877
O26   O     O_3   0.374050 0.360242 0.721243 -0.592174
O27   O     O_R   0.179100 0.982980 0.967000 -0.520155
O28   O     O_R   0.017020 0.196120 0.967000 -0.511187
O29   O     O_R   0.803880 0.820900 0.967000 -0.510609
O30   O     O_R   0.173970 0.688730 0.549930 -0.499860
O31   O     O_R   0.311270 0.485240 0.549930 -0.500174
O32   O     O_R   0.514760 0.826030 0.549930 -0.500518

loop_
_geom_bond_atom_site_label_1
_geom_bond_atom_site_label_2
_ccdc_geom_bond_type
C98   C121  S    
C49   O18   A    
C28   H12   S    
Cr1   O5    S    
C19   O24   S    
C87   C91   A    
C125  H45   S    
Cr3   O8    S    
C11   H105  S    
C60   C73   A    
C124  H1    S    
C33   H28   S    
C10   H104  S    
C34   H23   S    
Cr4   O16   S    
C3    H91   S    
C37   H34   S    
C54   C84   A    
C13   C118  T    
Cr5   O28   S    
C92   H49   S    
C89   C129  S    
C7    C8    S    
C29   H21   S    
C66   C70   A    
C12   O21   S    
C88   H52   S    
C77   H54   S    
Cr6   O15   S    
C26   C27   S    
C29   C30   S    
C1    O30   A    
C90   C93   A    
C40   C123  S    
C64   C68   A    
C56   O12   A    
C36   C37   S    
C3    C69   S    
Cr6   O19   S    
C34   H26   S    
C72   C75   A    
C9    O20   S    
C48   O17   A    
C48   O28   A    
C58   C71   A    
Cr1   O1    S    
C54   C68   A    
C89   C122  S    
C22   O25   S    
C100  H71   S    
C46   O14   A    
C57   C86   A    
C78   H75   S    
C131  H81   S    
C132  H79   S    
C89   H24   S    
Cr6   O29   S    
C49   O29   A    
C61   C108  S    
C126  H56   S    
C96   C106  A    
C95   C105  A    
C21   H130  S    
C37   H36   S    
C13   C128  S    
C16   H116  S    
C24   C129  S    
C63   O3    A    
C98   C125  S    
C49   C117  S    
C116  C129  S    
C88   C92   A    
C94   C101  A    
C56   O32   A    
C16   C17   S    
C94   C104  A    
C115  H65   S    
C80   C109  A    
C9    H101  S    
C125  C128  S    
C61   O4    A    
C114  H64   S    
C23   H4    S    
C78   C111  S    
C100  C120  S    
Cr2   O31   S    
C45   O31   A    
C57   C70   A    
C48   C119  S    
C60   C103  A    
C9    C10   S    
C110  C114  S    
C82   C88   A    
C52   C55   A    
C59   C72   A    
C87   H51   S    
C113  C116  S    
C64   H44   S    
C2    C127  S    
C22   H132  S    
C23   C25   S    
C7    H96   S    
C60   C66   A    
C27   H11   S    
C50   C118  S    
C85   C102  A    
C16   O22   S    
C77   C107  A    
C58   C64   A    
C11   H106  S    
Cr4   O13   S    
C98   O25   S    
C26   O26   S    
C35   C120  S    
C25   H5    S    
C10   H103  S    
C72   H39   S    
C80   C83   A    
C51   H41   S    
C86   C103  A    
C3    H92   S    
C16   H117  S    
C116  H66   S    
C2    C117  T    
C47   O9    A    
C78   H13   S    
C38   H32   S    
C39   C42   T    
C14   H110  S    
C90   H53   S    
C40   C43   T    
C46   O11   A    
C104  O20   S    
C6    H99   S    
C7    H97   S    
C18   H120  S    
C1    O23   A    
C8    H95   S    
C33   H27   S    
C97   O24   S    
C11   H107  S    
C122  H70   S    
C99   C126  S    
C38   H33   S    
Cr4   O9    S    
Cr5   O14   S    
C18   H123  S    
C34   H25   S    
C47   O15   A    
C110  C120  S    
C58   C101  A    
C53   C57   A    
C27   H10   S    
Cr1   O2    S    
C62   O6    A    
C31   H16   S    
C126  C129  S    
C26   H8    S    
C44   O13   A    
C83   C90   A    
C92   C95   A    
Cr1   O8    S    
C71   H35   S    
C131  H82   S    
Cr2   O8    S    
C8    H93   S    
C55   C85   A    
C105  O21   S    
C41   C56   S    
C37   C38   S    
C67   C127  S    
C71   C74   A    
C124  H100  S    
C29   C110  S    
C12   H108  S    
C113  C123  S    
C130  H84   S    
C29   H22   S    
C113  H60   S    
C5    H86   S    
C9    H102  S    
C14   C15   S    
C33   C34   S    
C61   O5    A    
C84   C101  A    
C67   H74   S    
C132  H77   S    
C116  H63   S    
C50   O19   A    
C68   C130  S    
C67   H2    S    
C43   C45   S    
C18   H121  S    
C81   C87   A    
C66   H47   S    
C67   C100  S    
C124  C127  S    
C97   H67   S    
C73   H40   S    
C21   H128  S    
Cr5   O10   S    
C5    H85   S    
C91   H48   S    
C12   C14   S    
C99   O26   S    
C93   C96   A    
C4    H88   S    
C114  H61   S    
C32   H30   S    
C110  H58   S    
C28   H15   S    
C73   C76   A    
C111  C121  S    
C96   C103  A    
C36   H38   S    
C51   C54   A    
C63   C107  S    
C3    C4    S    
C82   C85   A    
Cr3   O32   S    
C111  H69   S    
C112  H59   S    
C46   C74   S    
C81   C84   A    
Cr4   O27   S    
C22   H131  S    
C38   H31   S    
C99   C123  S    
C15   H115  S    
C53   C109  A    
C45   O1    A    
C80   H57   S    
C98   H78   S    
C24   C119  T    
C76   C106  A    
C32   C112  S    
C6    H98   S    
C6    C70   S    
Cr3   O7    S    
C59   C102  A    
C130  H83   S    
C63   O7    A    
C30   H20   S    
C4    C5    S    
C39   C121  S    
C20   H127  S    
C79   C82   A    
C31   H17   S    
C95   C102  A    
C28   H14   S    
C6    C7    S    
C14   H112  S    
C97   C124  S    
C50   O27   A    
C12   H109  S    
C17   H118  S    
C115  H62   S    
Cr6   O16   S    
C79   H55   S    
C17   C18   S    
C126  H122  S    
Cr3   O4    S    
C10   C11   S    
C32   C33   S    
C55   C69   A    
C19   C20   S    
C125  H111  S    
C52   H42   S    
Cr3   O23   S    
C30   H19   S    
C47   C75   S    
C112  C121  S    
C122  H73   S    
C59   C65   A    
C19   H124  S    
C114  C127  S    
C8    H94   S    
C30   C31   S    
C44   O10   A    
C62   C109  S    
C15   H113  S    
Cr5   O16   S    
C97   C120  S    
C65   C69   A    
Cr6   O11   S    
C36   C113  S    
Cr1   O30   S    
C5    H87   S    
C79   C108  A    
C130  C131  S    
C132  H80   S    
C74   C104  A    
C4    H90   S    
C26   H9    S    
C35   C41   T    
C53   H43   S    
C99   H89   S    
C111  H72   S    
C100  H68   S    
C78   C128  S    
C21   H129  S    
C115  C128  S    
C19   H125  S    
C25   H6    S    
C93   H50   S    
C31   H18   S    
C1    C42   S    
C83   C86   A    
C20   C21   S    
C52   C108  A    
C36   H37   S    
C51   C107  A    
C77   C81   A    
C15   H114  S    
C32   H29   S    
C27   C28   S    
Cr2   O3    S    
Cr2   O12   S    
C22   C23   S    
C23   H3    S    
C25   H7    S    
C75   C105  A    
C44   C76   S    
C122  C123  S    
C106  O22   S    
Cr4   O17   S    
C17   H119  S    
C65   H46   S    
C112  C115  S    
C20   H126  S    
Cr2   O6    S    
C131  C132  S    
C62   O2    A    
C89   H76   S    
C91   C94   A    
Cr5   O18   S    
