data_mof_unit_53022.cif
_audit_creation_date              2012-10-26T19:46:51-0400
_audit_creation_method            fapswitch 2.2
_symmetry_space_group_name_H-M    P1
_symmetry_Int_Tables_number       1
_space_group_crystal_system       triclinic
_cell_length_a                    10.7717
_cell_length_b                    9.758697
_cell_length_c                    15.984134
_cell_angle_alpha                 88.466728
_cell_angle_beta                  93.589988
_cell_angle_gamma                 89.546514
_cell_volume                      1676.24133257

loop_
_atom_site_label
_atom_site_type_symbol
_atom_type_description
_atom_site_fract_x
_atom_site_fract_y
_atom_site_fract_z
_atom_type_partial_charge
C1    C     C_R   0.870710 0.497763 0.499814 0.023118
C2    C     C_R   0.481325 0.375021 0.961315 0.031801
C3    C     C_R   0.494131 0.498691 0.913896 0.023793
C4    C     C_R   0.472935 0.508575 0.087397 0.024714
C5    C     C_1   0.497901 0.494068 0.823448 -0.073203
C6    C     C_1   0.481877 0.509521 0.177666 -0.070259
C7    C     C_1   0.490379 0.506544 0.252809 -0.061974
C8    C     C_1   0.499506 0.494648 0.748099 -0.060913
C9    C     C_R   0.428483 0.075470 0.441219 0.123718
C10   C     C_R   0.591070 0.926094 0.544843 0.134951
C11   C     C_R   0.574973 0.070181 0.556170 0.118443
C12   C     C_R   0.128092 0.499123 0.499347 0.016595
C13   C     C_R   0.411729 0.931088 0.453176 0.116488
C14   C     C_R   0.068822 0.391722 0.540442 -0.140189
C15   C     C_R   0.929627 0.603044 0.457350 -0.140363
C16   C     C_R   0.940043 0.390825 0.540498 -0.142335
C17   C     C_R   0.057676 0.603038 0.456635 -0.152188
C18   C     C_3   0.380462 0.136197 0.355629 -0.218200
C19   C     C_3   0.259889 0.221006 0.355388 -0.383458
C20   C     C_3   0.720591 0.869381 0.570446 -0.208662
C21   C     C_3   0.730137 0.789780 0.654676 -0.386474
C22   C     C_3   0.631133 0.132055 0.635499 -0.234892
C23   C     C_R   0.262649 0.500167 0.499613 0.528090
C24   C     C_3   0.536053 0.127929 0.702142 -0.414952
C25   C     C_3   0.287249 0.875695 0.420171 -0.223946
C26   C     C_3   0.291405 0.796388 0.338684 -0.397538
C27   C     C_3   0.478332 0.768554 0.086540 -0.265801
C28   C     C_3   0.347518 0.797869 0.114291 -0.445551
C29   C     C_3   0.498055 0.237918 0.919866 -0.267973
C30   C     C_3   0.636206 0.208972 0.910159 -0.447113
C31   C     C_3   0.517788 0.758123 0.900487 -0.265419
C32   C     C_3   0.395588 0.833192 0.875666 -0.437555
C33   C     C_3   0.426773 0.254239 0.099296 -0.265917
C34   C     C_R   0.736964 0.499298 0.500419 0.532517
C35   C     C_3   0.539891 0.171402 0.134753 -0.441077
C36   C     C_R   0.498606 0.501790 0.341906 0.531918
C37   C     C_R   0.500358 0.498339 0.658456 0.534014
C38   C     C_R   0.496779 0.627833 0.952918 0.027850
C39   C     C_R   0.462906 0.381016 0.048068 0.029500
C40   C     C_R   0.483650 0.632895 0.040785 0.031767
Cu1   Cu    Cu3+1 0.500000 0.640660 0.500000 0.914587
Cu2   Cu    Cu3+1 0.500000 0.359340 0.500000 0.901391
H1    H     H_    0.122016 0.309777 0.573153 0.120178
H2    H     H_    0.657152 0.823287 0.695946 0.141791
H3    H     H_    0.723252 0.678044 0.646231 0.178973
H4    H     H_    0.822295 0.808057 0.687451 0.103419
H5    H     H_    0.763283 0.819022 0.518787 0.163054
H6    H     H_    0.788371 0.954276 0.575022 0.075212
H7    H     H_    0.561873 0.205856 0.748367 0.146283
H8    H     H_    0.440089 0.150488 0.675466 0.179242
H9    H     H_    0.536827 0.025361 0.733764 0.118209
H10   H     H_    0.714047 0.077650 0.664256 0.095550
H11   H     H_    0.667026 0.235359 0.623241 0.189960
H12   H     H_    0.876592 0.683555 0.423129 0.112756
H13   H     H_    0.378599 0.816284 0.307057 0.159537
H14   H     H_    0.281574 0.684900 0.349899 0.169017
H15   H     H_    0.212313 0.828918 0.294451 0.095808
H16   H     H_    0.240022 0.825054 0.471180 0.163463
H17   H     H_    0.220059 0.961098 0.406535 0.095173
H18   H     H_    0.278521 0.799037 0.059766 0.147027
H19   H     H_    0.319294 0.719330 0.160551 0.154009
H20   H     H_    0.345494 0.899462 0.143890 0.124203
H21   H     H_    0.545526 0.765549 0.142222 0.141981
H22   H     H_    0.505337 0.858408 0.048721 0.136345
H23   H     H_    0.894881 0.308331 0.573236 0.104709
H24   H     H_    0.675928 0.286440 0.867581 0.151279
H25   H     H_    0.689557 0.211818 0.971732 0.150966
H26   H     H_    0.648045 0.105668 0.884092 0.126061
H27   H     H_    0.461178 0.149921 0.954975 0.137806
H28   H     H_    0.444498 0.237847 0.858377 0.135606
H29   H     H_    0.413738 0.924381 0.835579 0.125539
H30   H     H_    0.331174 0.764628 0.839918 0.161270
H31   H     H_    0.350445 0.868924 0.931540 0.146244
H32   H     H_    0.585062 0.826979 0.933121 0.119249
H33   H     H_    0.563793 0.735605 0.842177 0.143023
H34   H     H_    0.099921 0.682214 0.420599 0.105495
H35   H     H_    0.587976 0.122025 0.084139 0.145234
H36   H     H_    0.606087 0.238224 0.170304 0.161663
H37   H     H_    0.509290 0.089162 0.177944 0.121255
H38   H     H_    0.371830 0.284217 0.152548 0.140579
H39   H     H_    0.361346 0.188393 0.062615 0.121909
H40   H     H_    0.209620 0.200428 0.412878 0.157943
H41   H     H_    0.278147 0.331960 0.348345 0.170562
H42   H     H_    0.196756 0.194152 0.300734 0.097535
H43   H     H_    0.454806 0.185006 0.321621 0.165831
H44   H     H_    0.360495 0.052658 0.311458 0.091678
N1    N     N_R   0.500000 0.852070 0.500000 -0.223722
N2    N     N_R   0.500000 0.147930 0.500000 -0.230470
O1    O     O_R   0.319640 0.618740 0.499990 -0.508680
O2    O     O_R   0.680360 0.381260 0.500010 -0.511153
O3    O     O_R   0.680360 0.618740 0.500010 -0.518138
O4    O     O_R   0.319640 0.381260 0.499990 -0.503932
O5    O     O_R   0.499970 0.618750 0.380310 -0.495535
O6    O     O_R   0.500030 0.381250 0.619690 -0.509657
O7    O     O_R   0.500030 0.618750 0.619690 -0.487243
O8    O     O_R   0.499970 0.381250 0.380310 -0.503399

loop_
_geom_bond_atom_site_label_1
_geom_bond_atom_site_label_2
_ccdc_geom_bond_type
Cu1   O1    S    
Cu1   Cu2   S    
C26   H13   S    
C32   H30   S    
C12   C23   S    
C20   H6    S    
C18   H44   S    
C2    C29   S    
Cu2   O8    S    
C22   C24   S    
C29   H28   S    
C9    N2    A    
C37   O7    A    
C18   C19   S    
C7    C36   S    
C9    C13   A    
C34   O3    A    
C36   O5    A    
Cu1   O5    S    
C4    C40   A    
C3    C38   A    
C10   C20   S    
C12   C17   A    
C17   H34   S    
C23   O1    A    
C1    C15   A    
C32   H29   S    
C19   H40   S    
C27   C40   S    
C21   H3    S    
C30   H25   S    
C28   H19   S    
C24   H9    S    
C13   C25   S    
C19   H41   S    
C2    C39   A    
C1    C34   S    
C22   H11   S    
C29   H27   S    
C28   H18   S    
C24   H8    S    
Cu1   N1    S    
C10   N1    A    
C18   H43   S    
C15   H12   S    
C4    C6    S    
C10   C11   A    
C32   H31   S    
C31   H32   S    
C25   C26   S    
C35   H35   S    
Cu2   O2    S    
C34   O2    A    
C29   C30   S    
C21   H2    S    
C36   O8    A    
C31   H33   S    
C31   C32   S    
C4    C39   A    
C11   N2    A    
C13   N1    A    
C1    C16   A    
C33   C39   S    
C30   H24   S    
C27   H21   S    
Cu1   O3    S    
C12   C14   A    
C14   C16   A    
Cu2   N2    S    
C25   H16   S    
C19   H42   S    
C22   H10   S    
C21   H4    S    
C24   H7    S    
C15   C17   A    
C11   C22   S    
Cu2   O6    S    
C3    C5    S    
C26   H14   S    
C5    C8    T    
C33   H38   S    
C6    C7    T    
C35   H36   S    
C31   C38   S    
C2    C3    A    
C38   C40   A    
Cu1   O7    S    
C35   H37   S    
C33   C35   S    
C37   O6    A    
Cu2   O4    S    
C26   H15   S    
C20   H5    S    
C27   H22   S    
C9    C18   S    
C20   C21   S    
C8    C37   S    
C27   C28   S    
C23   O4    A    
C16   H23   S    
C25   H17   S    
C33   H39   S    
C30   H26   S    
C14   H1    S    
C28   H20   S    
