data_mof_unit_22668.cif
_audit_creation_date              2012-10-26T19:26:44-0400
_audit_creation_method            fapswitch 2.2
_symmetry_space_group_name_H-M    P1
_symmetry_Int_Tables_number       1
_space_group_crystal_system       triclinic
_cell_length_a                    14.991031
_cell_length_b                    13.861731
_cell_length_c                    15.87378
_cell_angle_alpha                 88.867445
_cell_angle_beta                  88.715495
_cell_angle_gamma                 89.08286
_cell_volume                      3296.72465844

loop_
_atom_site_label
_atom_site_type_symbol
_atom_type_description
_atom_site_fract_x
_atom_site_fract_y
_atom_site_fract_z
_atom_type_partial_charge
C1    C     C_R   0.329381 0.500618 0.499506 0.572801
C2    C     C_R   0.905834 0.480342 0.569458 -0.015544
C3    C     C_R   0.953449 0.492186 0.491569 -0.075915
C4    C     C_R   0.500240 0.500764 0.340496 0.624767
C5    C     C_R   0.907239 0.499686 0.414209 -0.026374
C6    C     C_R   0.952422 0.467321 0.644613 -0.055154
C7    C     C_R   0.044863 0.465441 0.644537 0.269401
C8    C     C_R   0.092726 0.483560 0.568925 0.020804
C9    C     C_R   0.047653 0.495339 0.491644 -0.065784
C10   C     C_R   0.096895 0.510726 0.415113 -0.012808
C11   C     C_R   0.049951 0.522851 0.339132 0.310691
C12   C     C_3   0.572354 0.556698 0.949001 -0.288581
C13   C     C_R   0.958181 0.506270 0.337723 0.262624
C14   C     C_R   0.185114 0.489572 0.569713 -0.135551
C15   C     C_R   0.233435 0.501758 0.495143 -0.015850
C16   C     C_R   0.670694 0.499072 0.499045 0.655683
C17   C     C_R   0.191458 0.510303 0.417364 0.205743
C18   C     C_R   0.432390 0.796348 0.538891 0.414382
C19   C     C_R   0.451294 0.204056 0.559083 0.413728
C20   C     C_R   0.563404 0.793194 0.452428 0.343361
C21   C     C_R   0.558560 0.206908 0.447586 0.325605
C22   C     C_R   0.567572 0.896724 0.452279 -0.035681
C23   C     C_3   0.579976 0.542832 0.045542 -0.277604
C24   C     C_R   0.566642 0.104014 0.452667 -0.042331
C25   C     C_R   0.503645 0.948631 0.500941 -0.132083
C26   C     C_R   0.502566 0.051774 0.500129 -0.132705
C27   C     C_R   0.439555 0.897617 0.549527 -0.038158
C28   C     C_R   0.440087 0.103008 0.550308 -0.033113
C29   C     C_R   0.634573 0.950411 0.407391 0.263483
C30   C     C_R   0.637846 0.051860 0.414214 0.268310
C31   C     C_R   0.376156 0.051134 0.599021 0.240986
C32   C     C_R   0.379936 0.949720 0.603107 0.241606
C33   C     C_R   0.499083 0.499423 0.659677 0.564482
C34   C     C_1   0.492608 0.500959 0.824884 0.113975
C35   C     C_3   0.412858 0.575469 0.050903 0.460964
C36   C     C_3   0.481662 0.395807 0.053764 0.462047
C37   C     C_3   0.494638 0.395083 0.953899 0.402355
C38   C     C_3   0.403771 0.558686 0.952026 0.448331
C39   C     C_1   0.495843 0.499202 0.749349 0.092595
C40   C     C_3   0.490288 0.504052 0.083719 -0.002720
C41   C     C_3   0.489290 0.502096 0.917576 -0.013436
C42   C     C_3   0.116633 0.354030 0.728627 0.026352
C43   C     C_3   0.045188 0.293196 0.774039 -0.277122
C44   C     C_3   0.078450 0.189920 0.789668 -0.412127
C45   C     C_1   0.495040 0.503429 0.175879 0.062756
C46   C     C_3   0.103926 0.649436 0.259190 0.060626
C47   C     C_3   0.024625 0.699666 0.216421 -0.260158
C48   C     C_3   0.040949 0.807241 0.202566 -0.482259
C49   C     C_3   0.296080 0.761787 0.484372 0.038573
C50   C     C_3   0.246405 0.859241 0.475799 -0.280649
C51   C     C_3   0.174765 0.855964 0.409216 -0.486142
C52   C     C_3   0.501737 0.232724 0.691328 0.053464
C53   C     C_3   0.505173 0.132559 0.735115 -0.271639
C54   C     C_3   0.572826 0.127751 0.805449 -0.429128
C55   C     C_3   0.695110 0.918285 0.277492 0.045229
C56   C     C_1   0.498194 0.502334 0.251192 0.098039
C57   C     C_3   0.769714 0.862750 0.231428 -0.238536
C58   C     C_3   0.760109 0.870981 0.136054 -0.477638
C59   C     C_3   0.782076 0.089426 0.446179 0.047487
C60   C     C_3   0.792190 0.184795 0.492121 -0.246792
C61   C     C_3   0.869863 0.180239 0.552663 -0.480983
C62   C     C_3   0.543227 0.238422 0.087171 0.081239
C63   C     C_3   0.532709 0.192263 0.175038 -0.235033
C64   C     C_3   0.522409 0.083098 0.171000 -0.496248
C65   C     C_3   0.441262 0.707736 0.144428 0.033767
C66   C     C_3   0.407778 0.812369 0.146644 -0.232373
C67   C     C_R   0.812488 0.502987 0.417581 0.226848
C68   C     C_3   0.405406 0.850222 0.236429 -0.496020
C69   C     C_R   0.767247 0.495763 0.495856 0.035331
C70   C     C_R   0.812524 0.481590 0.571008 0.154288
Cl1   Cl    Cl    0.302748 0.498782 0.924743 -0.338502
Cl2   Cl    Cl    0.373569 0.350860 0.089948 -0.424372
Cl3   Cl    Cl    0.602312 0.344290 0.922734 -0.626389
Cl4   Cl    Cl    0.391918 0.673067 0.895908 -0.428282
Cl5   Cl    Cl    0.745713 0.523514 0.327778 -0.462433
Cl6   Cl    Cl    0.750256 0.467024 0.667006 -0.629043
Cl7   Cl    Cl    0.417737 0.315707 0.904813 -0.522663
Cl8   Cl    Cl    0.260995 0.510527 0.325365 -0.529283
Cl9   Cl    Cl    0.915688 0.485023 0.236636 -0.434110
Cl10  Cl    Cl    0.630783 0.727600 0.380947 -0.523001
Cl11  Cl    Cl    0.624719 0.271999 0.373520 -0.521419
Cl12  Cl    Cl    0.287046 0.111743 0.652131 -0.545084
Cl13  Cl    Cl    0.315445 0.890153 0.682758 -0.433561
Cl14  Cl    Cl    0.305336 0.558702 0.104722 -0.395434
Cu1   Cu    Cu3+1 0.499990 0.597420 0.500010 1.121339
Cu2   Cu    Cu3+1 0.499990 0.402580 0.500010 1.121171
H1    H     H_    0.220685 0.482823 0.628357 0.177140
H2    H     H_    0.984520 0.291190 0.735243 0.155812
H3    H     H_    0.094434 0.154637 0.728829 0.202364
H4    H     H_    0.025704 0.148039 0.823425 0.164435
H5    H     H_    0.138953 0.189339 0.828843 0.214672
H6    H     H_    0.165042 0.663640 0.220344 0.221275
H7    H     H_    0.115308 0.681802 0.321696 0.088219
H8    H     H_    0.013723 0.666177 0.154523 0.238660
H9    H     H_    0.963360 0.691022 0.256335 0.184173
H10   H     H_    0.048001 0.843004 0.263989 0.149708
H11   H     H_    0.983521 0.840949 0.169517 0.162970
H12   H     H_    0.598454 0.612340 0.073543 0.156236
H13   H     H_    0.102316 0.818603 0.163325 0.176816
H14   H     H_    0.244473 0.705527 0.491647 0.174512
H15   H     H_    0.333973 0.746094 0.424766 0.127273
H16   H     H_    0.213687 0.878060 0.536799 0.239060
H17   H     H_    0.293807 0.916589 0.456366 0.151947
H18   H     H_    0.204729 0.835070 0.347467 0.141261
H19   H     H_    0.142746 0.928350 0.401975 0.171982
H20   H     H_    0.122597 0.803565 0.428719 0.151338
H21   H     H_    0.493347 0.287427 0.740966 0.228814
H22   H     H_    0.567327 0.247539 0.659323 0.130693
H23   H     H_    0.635929 0.491735 0.059486 0.231221
H24   H     H_    0.438421 0.114514 0.762151 0.255491
H25   H     H_    0.526095 0.077067 0.689104 0.145044
H26   H     H_    0.638319 0.155776 0.782865 0.178194
H27   H     H_    0.582157 0.051647 0.827066 0.160681
H28   H     H_    0.548032 0.169749 0.859920 0.239790
H29   H     H_    0.699850 0.995839 0.258777 0.171065
H30   H     H_    0.629647 0.890767 0.257363 0.133064
H31   H     H_    0.835280 0.891926 0.248853 0.169208
H32   H     H_    0.768069 0.785305 0.250811 0.239777
H33   H     H_    0.695659 0.840298 0.117224 0.159503
H34   H     H_    0.566682 0.635020 0.933291 0.193519
H35   H     H_    0.815354 0.830240 0.104520 0.170432
H36   H     H_    0.763050 0.947747 0.114862 0.158052
H37   H     H_    0.845663 0.072703 0.411830 0.168778
H38   H     H_    0.771859 0.029447 0.493336 0.131537
H39   H     H_    0.804041 0.244145 0.445280 0.231215
H40   H     H_    0.729841 0.201417 0.528502 0.179311
H41   H     H_    0.859043 0.122620 0.601272 0.158110
H42   H     H_    0.874971 0.250419 0.584667 0.171945
H43   H     H_    0.933538 0.165695 0.517731 0.162934
H44   H     H_    0.606397 0.210128 0.058466 0.187896
H45   H     H_    0.635323 0.532137 0.917276 0.211427
H46   H     H_    0.488770 0.215333 0.046051 0.204707
H47   H     H_    0.592959 0.207604 0.211473 0.238144
H48   H     H_    0.473551 0.223944 0.208335 0.229906
H49   H     H_    0.461252 0.065480 0.136576 0.175311
H50   H     H_    0.516817 0.052170 0.235959 0.149109
H51   H     H_    0.581407 0.049749 0.138738 0.138741
H52   H     H_    0.511584 0.705585 0.165053 0.134245
H53   H     H_    0.401121 0.665537 0.191128 0.181332
H54   H     H_    0.452272 0.858317 0.106455 0.178720
H55   H     H_    0.339356 0.817003 0.121117 0.212833
H56   H     H_    0.918027 0.457368 0.704679 0.201019
H57   H     H_    0.359068 0.806950 0.276854 0.150088
H58   H     H_    0.381616 0.926471 0.235963 0.155727
H59   H     H_    0.472979 0.846459 0.263604 0.157831
H60   H     H_    0.177507 0.352794 0.767343 0.226842
H61   H     H_    0.136468 0.320774 0.667332 0.147055
H62   H     H_    0.026923 0.326274 0.835394 0.221129
N1    N     N_R   0.499930 0.743810 0.499960 -0.251333
N2    N     N_R   0.499930 0.256190 0.499960 -0.252168
O1    O     O_R   0.370250 0.582280 0.500020 -0.490870
O2    O     O_3   0.092834 0.547946 0.263810 -0.431849
O3    O     O_3   0.350938 0.754082 0.556691 -0.478108
O4    O     O_3   0.428685 0.244975 0.635603 -0.492488
O5    O     O_3   0.704784 0.904655 0.365470 -0.514327
O6    O     O_3   0.714084 0.098562 0.385547 -0.521684
O7    O     O_3   0.550596 0.340150 0.094117 -0.533193
O8    O     O_3   0.437904 0.674303 0.060417 -0.538590
O9    O     O_R   0.370250 0.417720 0.500020 -0.464520
O10   O     O_R   0.499990 0.582310 0.379440 -0.480632
O11   O     O_R   0.499990 0.417690 0.379440 -0.436887
O12   O     O_R   0.629730 0.582260 0.499990 -0.432607
O13   O     O_R   0.629730 0.417740 0.499990 -0.466825
O14   O     O_R   0.499980 0.582240 0.620570 -0.468377
O15   O     O_R   0.499980 0.417760 0.620570 -0.496348
O16   O     O_3   0.087582 0.451513 0.720410 -0.538897

loop_
_geom_bond_atom_site_label_1
_geom_bond_atom_site_label_2
_ccdc_geom_bond_type
C53   H24   S    
C66   C68   S    
C64   H50   S    
Cu1   O14   S    
C22   C29   A    
C62   H44   S    
C46   O2    S    
C5    C67   A    
C13   Cl9   S    
C7    C8    A    
C66   H55   S    
C53   C54   S    
C55   O5    S    
C48   H11   S    
Cu2   O15   S    
C12   C23   S    
C29   C30   A    
C31   Cl12  S    
C43   H2    S    
C63   H47   S    
C49   O3    S    
C36   C37   S    
C12   H45   S    
C24   C26   A    
C14   H1    S    
Cu2   N2    S    
C49   H15   S    
C46   H6    S    
C55   H30   S    
C10   C17   A    
C52   O4    S    
C23   C40   S    
C54   H27   S    
C19   N2    A    
C20   N1    A    
C68   H57   S    
C42   O16   S    
C32   Cl13  S    
C58   H33   S    
C43   H62   S    
C12   H34   S    
C47   C48   S    
C52   H21   S    
C8    C9    A    
C22   C25   A    
C68   H58   S    
C1    C15   S    
Cu1   O10   S    
C6    H56   S    
C18   N1    A    
C9    C10   A    
C5    C13   A    
C61   H43   S    
C29   O5    S    
C53   H25   S    
C30   O6    S    
C64   H49   S    
C59   C60   S    
C4    C56   S    
Cu1   O12   S    
C2    C6    A    
C34   C41   S    
C42   H61   S    
C24   C30   A    
C64   H51   S    
C16   O13   A    
C59   H37   S    
C40   C45   S    
C23   H23   S    
C58   H36   S    
C20   Cl10  S    
C35   C40   S    
C34   C39   T    
C63   H48   S    
C62   H46   S    
C1    O9    A    
C35   C38   S    
C45   C56   T    
C38   C41   S    
C16   O12   A    
C25   C26   A    
Cu1   Cu2   S    
C37   Cl7   S    
C60   C61   S    
C67   C69   A    
C43   C44   S    
Cu1   O1    S    
C62   C63   S    
C3    C9    A    
C31   C32   A    
C36   C40   S    
C59   O6    S    
C33   O14   A    
C50   C51   S    
C62   O7    S    
C54   H26   S    
C61   H41   S    
Cu2   O11   S    
C33   C39   S    
C21   N2    A    
C19   C28   A    
C18   O3    S    
C44   H5    S    
C36   O7    S    
C65   H52   S    
C7    O16   S    
C20   C22   A    
C50   H16   S    
C55   C57   S    
C70   Cl6   S    
C49   C50   S    
C67   Cl5   S    
C42   C43   S    
C42   H60   S    
C44   H4    S    
C52   C53   S    
C12   C41   S    
C57   H31   S    
Cu2   O9    S    
C59   H38   S    
C15   C17   A    
C48   H13   S    
C37   Cl3   S    
C46   C47   S    
C60   H39   S    
C58   H35   S    
C8    C14   A    
C48   H10   S    
C27   C32   A    
C14   C15   A    
C28   C31   A    
C33   O15   A    
C18   C27   A    
C21   Cl11  S    
C65   O8    S    
C3    C5    A    
C35   Cl14  S    
C6    C7    A    
C25   C27   A    
C16   C69   S    
C26   C28   A    
C60   H40   S    
C2    C3    A    
C51   H18   S    
C35   O8    S    
C49   H14   S    
C11   C13   A    
C57   C58   S    
C4    O10   A    
C46   H7    S    
C55   H29   S    
C51   H20   S    
C54   H28   S    
C17   Cl8   S    
C47   H8    S    
C38   Cl4   S    
C1    O1    A    
C61   H42   S    
C37   C41   S    
C69   C70   A    
Cu1   N1    S    
C51   H19   S    
C10   C11   A    
C68   H59   S    
C63   C64   S    
C65   H53   S    
C36   Cl2   S    
C11   O2    S    
C50   H17   S    
C23   H12   S    
C66   H54   S    
C52   H22   S    
C65   C66   S    
C21   C24   A    
C19   O4    S    
C47   H9    S    
C4    O11   A    
Cu2   O13   S    
C2    C70   A    
C44   H3    S    
C38   Cl1   S    
C57   H32   S    
