data_mof_unit_21532.cif
_audit_creation_date              2013-03-05T15:42:29-0500
_audit_creation_method            fapswitch 2.2
_symmetry_space_group_name_H-M    P1
_symmetry_Int_Tables_number       1
_space_group_crystal_system       triclinic
_cell_length_a                    7.817242
_cell_length_b                    8.689918
_cell_length_c                    22.942246
_cell_angle_alpha                 90.660688
_cell_angle_beta                  86.461078
_cell_angle_gamma                 93.648911
_cell_volume                      1552.32359058

loop_
_atom_site_label
_atom_site_type_symbol
_atom_site_description
_atom_site_fract_x
_atom_site_fract_y
_atom_site_fract_z
_atom_type_partial_charge
O1    O     O_R   0.389250 0.738570 0.503790 -0.590665
O2    O     O_R   0.610750 0.261430 0.496210 -0.590571
O3    O     O_R   0.678390 0.711620 0.493890 -0.577487
O4    O     O_R   0.321610 0.288380 0.506110 -0.580929
C1    C     C_R   0.544965 0.793673 0.497367 0.879394
C2    C     C_R   0.455137 0.206277 0.501898 0.872891
O5    O     O_R   0.355400 0.513520 0.588790 -0.586524
O6    O     O_R   0.644600 0.486480 0.411210 -0.598883
O7    O     O_R   0.644550 0.486570 0.578900 -0.567875
O8    O     O_R   0.355450 0.513430 0.421100 -0.574313
C3    C     C_R   0.502740 0.500121 0.610685 0.913529
C4    C     C_R   0.499675 0.505060 0.388694 0.903052
Zn1   Zn    Zn3+2 0.306930 0.518000 0.506610 1.184077
Zn2   Zn    Zn3+2 0.693070 0.482000 0.493390 1.181213
C5    C     C_R   0.639981 0.377331 0.119654 0.581330
C6    C     C_R   0.777537 0.576743 0.866871 0.557358
N1    N     N_R   0.656363 0.522280 0.143444 -0.338024
N2    N     N_R   0.654257 0.475894 0.845600 -0.315008
C7    C     C_R   0.713976 0.645922 0.109659 0.647283
C8    C     C_R   0.625822 0.339202 0.874957 0.601295
C9    C     C_R   0.760538 0.624426 0.050006 -0.091002
C10   C     C_R   0.638388 0.336895 0.935930 -0.107031
C11   C     C_R   0.704973 0.483799 0.023766 -0.037653
C12   C     C_R   0.709989 0.471059 0.962681 -0.026686
C13   C     C_R   0.639410 0.358205 0.058702 -0.091878
C14   C     C_R   0.790677 0.590676 0.927721 -0.083498
C15   C     C_R   0.853991 0.739655 0.015756 0.301681
C16   C     C_R   0.572790 0.210393 0.970635 0.286112
C17   C     C_R   0.874176 0.720142 0.954622 -0.151815
C18   C     C_R   0.571400 0.221183 0.031963 -0.136353
O9    O     O_2   0.620352 0.253963 0.155184 -0.483435
O10   O     O_2   0.890982 0.654354 0.829685 -0.517120
O11   O     O_2   0.723242 0.788414 0.133604 -0.465604
O12   O     O_2   0.594403 0.206980 0.845269 -0.508838
C19   C     C_R   0.446062 0.398435 0.768639 -0.000571
C20   C     C_R   0.719386 0.605917 0.244246 -0.004598
C21   C     C_R   0.433038 0.392170 0.708198 -0.227586
C22   C     C_R   0.668296 0.608847 0.303301 -0.201445
H1    H     H_    0.353293 0.301642 0.688483 0.218260
H2    H     H_    0.758000 0.658515 0.333599 0.238730
C23   C     C_R   0.512234 0.509724 0.673460 -0.129583
C24   C     C_R   0.514189 0.532796 0.325097 -0.160503
C25   C     C_R   0.578442 0.645493 0.699693 0.247934
C26   C     C_R   0.395180 0.472932 0.285872 0.233836
C27   C     C_R   0.600552 0.646953 0.760116 -0.132108
C28   C     C_R   0.434560 0.487897 0.225003 -0.136192
C29   C     C_R   0.568626 0.506646 0.791894 0.102302
C30   C     C_R   0.602638 0.543138 0.204299 0.101118
C31   C     C_2   0.569628 0.955802 0.499182 0.012301
C32   C     C_2   0.431420 0.044238 0.498789 -0.001588
N3    N     N_2   0.950330 0.457950 0.484560 0.045333
N4    N     N_2   0.049670 0.542050 0.515440 0.048216
N5    N     N_R   0.941293 0.869159 0.043197 0.246848
O13   O     O_R   0.053938 0.846557 0.081157 -0.294439
O14   O     O_R   0.912423 0.009423 0.029239 -0.316757
N6    N     N_R   0.485790 0.079192 0.944616 0.264993
O15   O     O_R   0.331775 0.090063 0.927327 -0.328470
O16   O     O_R   0.549186 0.944665 0.946081 -0.259887
C33   C     C_2   0.981024 0.836600 0.919921 1.116844
O17   O     O_2   0.127941 0.809924 0.903426 -0.479986
O18   O     O_R   0.912918 0.974949 0.905429 -0.730530
H3    H     H_    0.997440 0.044104 0.880852 0.370026
C34   C     C_2   0.469403 0.099898 0.066373 1.113000
O19   O     O_2   0.340701 0.132993 0.095558 -0.550608
O20   O     O_R   0.515873 0.947454 0.063532 -0.702982
H4    H     H_    0.432181 0.875214 0.087180 0.384115
C35   C     C_2   0.307661 0.317615 0.806160 1.052988
O21   O     O_2   0.233561 0.198898 0.789036 -0.546511
O22   O     O_R   0.257325 0.381362 0.860326 -0.766501
H5    H     H_    0.157281 0.319890 0.880937 0.360022
C36   C     C_2   0.900078 0.658523 0.227234 1.072297
O23   O     O_2   0.976011 0.601063 0.185167 -0.589451
O24   O     O_R   0.986062 0.770663 0.260788 -0.716526
H6    H     H_    0.109232 0.794683 0.245475 0.378243
N7    N     N_R   0.602743 0.785006 0.666504 0.215541
O25   O     O_R   0.717271 0.796467 0.623067 -0.286092
O26   O     O_R   0.500462 0.895948 0.676671 -0.323835
N8    N     N_R   0.244036 0.385202 0.307322 0.258800
O27   O     O_R   0.259025 0.256109 0.334166 -0.280222
O28   O     O_R   0.093667 0.421208 0.292609 -0.302357
C37   C     C_2   0.631224 0.797605 0.789807 1.088406
O29   O     O_2   0.548538 0.825980 0.835124 -0.497506
O30   O     O_R   0.754957 0.906390 0.766042 -0.673040
H7    H     H_    0.768224 0.002467 0.791137 0.394418
C38   C     C_2   0.305414 0.438757 0.182273 1.044437
O31   O     O_2   0.294903 0.514847 0.138237 -0.590608
O32   O     O_R   0.198936 0.304610 0.191267 -0.652849
H8    H     H_    0.112895 0.287704 0.160137 0.398313
N9    N     N_R   0.743095 0.016606 0.505406 0.248669
O33   O     O_R   0.856207 0.008795 0.461653 -0.246438
O34   O     O_R   0.790123 0.069302 0.555682 -0.237467
N10   N     N_R   0.259567 0.983442 0.490049 0.241181
O35   O     O_R   0.143483 0.982871 0.533162 -0.229207
O36   O     O_R   0.216802 0.940522 0.438119 -0.273630
N11   N     N_R   0.006969 0.446967 0.426675 0.311606
O37   O     O_R   0.036820 0.573388 0.396830 -0.328534
O38   O     O_R   0.964951 0.320124 0.399073 -0.236322
N12   N     N_R   0.993076 0.549908 0.573764 0.311493
O39   O     O_R   0.961162 0.422367 0.602800 -0.321610
O40   O     O_R   0.031688 0.675284 0.602811 -0.251756

loop_
_geom_bond_atom_site_label_1
_geom_bond_atom_site_label_2
_geom_bond_distance
_ccdc_geom_bond_type
C15   N5    1.437888 S    
O5    Zn1   1.947189 S    
O32   H8    1.014066 S    
C34   O20   1.395506 S    
C15   C17   1.411168 A    
O24   H6    1.014112 S    
N11   O37   1.301988 A    
N1    C30   1.445670 S    
O7    Zn2   1.975433 S    
C19   C29   1.422576 A    
N2    C29   1.473043 S    
C37   O29   1.221022 D    
C16   N6    1.433350 S    
N5    O13   1.301165 A    
O5    C3    1.297057 A    
O1    C1    1.279853 A    
C7    C9    1.407716 A    
C12   C14   1.412425 A    
C22   C24   1.403570 A    
N8    O28   1.300694 A    
C5    C13   1.406575 A    
N6    O15   1.300033 A    
C27   C29   1.428191 A    
O4    Zn1   2.005815 S    
C31   C32   1.365653 D    
C4    C24   1.477828 S    
O30   H7    1.012199 S    
C11   C12   1.402841 A    
C3    C23   1.447848 S    
N9    O34   1.301531 A    
O18   H3    1.013362 S    
C20   C36   1.486726 S    
C28   C38   1.490058 S    
C8    O12   1.345778 S    
N5    O14   1.300811 A    
C9    C15   1.417020 A    
C33   O17   1.222366 D    
C10   C16   1.415405 A    
C18   C34   1.484693 S    
C6    C14   1.409379 A    
C23   C25   1.402292 A    
C1    C31   1.410298 S    
O2    C2    1.278341 A    
C24   C26   1.406029 A    
C37   O30   1.398893 S    
C26   C28   1.416987 A    
C38   O32   1.398273 S    
C25   N7    1.435210 S    
C28   C30   1.424902 A    
C33   O18   1.397111 S    
C35   O21   1.223451 D    
C17   C33   1.478018 S    
O4    C2    1.299488 A    
C7    O11   1.348373 S    
C36   O24   1.399011 S    
N8    O27   1.301173 A    
C38   O31   1.223594 D    
C26   N8    1.428839 S    
N3    N4    1.273892 D    
C35   O22   1.399104 S    
N7    O25   1.298202 A    
Zn1   N4    2.032566 S    
N7    O26   1.301169 A    
Zn2   N3    2.032564 S    
C19   C35   1.485612 S    
O6    C4    1.293776 A    
N10   O36   1.301290 A    
C2    C32   1.410073 S    
C25   C27   1.407312 A    
O3    Zn2   2.005814 S    
O8    C4    1.317150 A    
C32   N10   1.436856 S    
C8    C10   1.408801 A    
N12   O39   1.302187 A    
N12   O40   1.299399 A    
O7    C3    1.299764 A    
C10   C12   1.411403 A    
O1    Zn1   1.983152 S    
C20   C22   1.389056 A    
C13   C18   1.421124 A    
C5    N1    1.368608 A    
O6    Zn2   1.947189 S    
C19   C21   1.396815 A    
C27   C37   1.481574 S    
C31   N9    1.438525 S    
O3    C1    1.298363 A    
O8    Zn1   1.975433 S    
N11   O38   1.298978 A    
C5    O9    1.349461 S    
C6    O10   1.346442 S    
C9    C11   1.411459 A    
C16   C18   1.408459 A    
C21   H1    1.084560 S    
C22   H2    1.084407 S    
N4    N12   1.385475 S    
N10   O35   1.300215 A    
N1    C7    1.368412 A    
N6    O16   1.300024 A    
C20   C30   1.413784 A    
N2    C8    1.371262 A    
C11   C13   1.412279 A    
C21   C23   1.392608 A    
O22   H5    1.013695 S    
O2    Zn2   1.983152 S    
C34   O19   1.221672 D    
C36   O23   1.220260 D    
C14   C17   1.418786 A    
C6    N2    1.369516 A    
O20   H4    1.014018 S    
N9    O33   1.300224 A    
N3    N11   1.377912 S    
