data_mof_unit_53955.cif
_audit_creation_date              2012-12-11T14:08:01-0500
_audit_creation_method            fapswitch 2.2
_symmetry_space_group_name_H-M    P1
_symmetry_Int_Tables_number       1
_space_group_crystal_system       triclinic
_cell_length_a                    10.903421
_cell_length_b                    10.940333
_cell_length_c                    18.698957
_cell_angle_alpha                 90.27589
_cell_angle_beta                  89.681876
_cell_angle_gamma                 60.495206
_cell_volume                      1941.17140279

loop_
_atom_site_label
_atom_site_type_symbol
_atom_type_description
_atom_site_fract_x
_atom_site_fract_y
_atom_site_fract_z
_atom_type_partial_charge
C1    C     C_R   0.230802 0.647954 0.606257 0.548475
C2    C     C_2   0.784038 0.150579 0.705959 -0.184014
C3    C     C_2   0.155190 0.673527 0.672864 -0.101904
C4    C     C_R   0.652548 0.621245 0.601951 0.546136
C5    C     C_2   0.116202 0.710390 0.825876 -0.102832
C6    C     C_2   0.148360 0.589567 0.792725 -0.164076
C7    C     C_2   0.191195 0.566407 0.717893 -0.150001
C8    C     C_2   0.650511 0.646476 0.317354 -0.092281
C9    C     C_2   0.633254 0.665386 0.159742 -0.102114
C10   C     C_2   0.707273 0.546180 0.195586 -0.153016
C11   C     C_2   0.688596 0.537287 0.272072 -0.147863
C12   C     C_3   0.684403 0.540237 0.800611 -0.048685
C13   C     C_2   0.679279 0.125913 0.337435 -0.112210
C14   C     C_2   0.681352 0.083553 0.185559 -0.100952
C15   C     C_2   0.631613 0.025374 0.231713 -0.171069
C16   C     C_R   0.628239 0.227274 0.601859 0.547142
C17   C     C_2   0.605117 0.072764 0.306190 -0.150592
C18   C     C_2   0.122270 0.680699 0.345113 -0.105476
C19   C     C_2   0.113395 0.691189 0.190756 -0.090271
C20   C     C_2   0.045732 0.804410 0.234200 -0.152243
C21   C     C_2   0.076689 0.799571 0.309529 -0.162281
C22   C     C_R   0.703937 0.101328 0.897261 0.581520
C23   C     C_3   0.696637 0.674212 0.813068 0.055346
C24   C     C_R   0.723696 0.688531 0.888488 0.582248
C25   C     C_R   0.061747 0.740018 0.898143 0.542070
C26   C     C_R   0.701702 0.041900 0.111668 0.566035
C27   C     C_R   0.692146 0.688703 0.094768 0.562583
C28   C     C_R   0.215432 0.651204 0.404664 0.557008
C29   C     C_R   0.086252 0.713583 0.115396 0.560476
C30   C     C_R   0.641675 0.621134 0.392700 0.552606
C31   C     C_R   0.621622 0.221394 0.397868 0.554334
C32   C     C_3   0.567042 0.811389 0.783593 0.171847
C33   C     C_3   0.546514 0.791126 0.703936 -0.196299
C34   C     C_3   0.666525 0.646714 0.677384 0.005640
C35   C     C_3   0.827866 0.654500 0.769936 -0.303530
C36   C     C_3   0.351180 0.993737 0.823709 -0.014275
C37   C     C_3   0.214263 0.028124 0.861731 -0.327053
C38   C     C_2   0.580492 0.528157 0.849957 0.585932
C39   C     C_3   0.809674 0.639420 0.689882 -0.273743
C40   C     C_3   0.656128 0.530421 0.720902 -0.226245
C41   C     C_2   0.675666 0.154528 0.670121 -0.124303
C42   C     C_2   0.690801 0.163919 0.827061 -0.073616
C43   C     C_2   0.802614 0.117906 0.782772 -0.183502
Cr1   Cr    Cr6+3 0.393010 0.398050 0.501480 1.017458
Cr2   Cr    Cr6+3 0.398820 0.707980 0.501630 1.016574
Cr3   Cr    Cr6+3 0.708140 0.393940 0.496850 1.011597
Cr4   Cr    Cr6+3 0.937950 0.938450 0.008940 1.022227
Cr5   Cr    Cr6+3 0.626180 0.937030 0.994750 1.026994
Cr6   Cr    Cr6+3 0.937790 0.625760 0.001410 1.025820
H1    H     H_    0.595599 0.896564 0.787453 0.089574
H2    H     H_    0.260659 0.458451 0.700959 0.149604
H3    H     H_    0.129524 0.791056 0.799479 0.121852
H4    H     H_    0.083736 0.781818 0.688148 0.092937
H5    H     H_    0.794130 0.454725 0.170163 0.160847
H6    H     H_    0.719864 0.433088 0.292400 0.152855
H7    H     H_    0.541094 0.753862 0.183736 0.102169
H8    H     H_    0.617879 0.752015 0.299023 0.084882
H9    H     H_    0.598295 0.952110 0.213198 0.125721
H10   H     H_    0.513245 0.078296 0.332306 0.155961
H11   H     H_    0.709844 0.161587 0.202025 0.107809
H12   H     H_    0.735328 0.424714 0.700868 0.124745
H13   H     H_    0.777089 0.111116 0.313946 0.091194
H14   H     H_    0.977208 0.908111 0.212660 0.148397
H15   H     H_    0.442312 0.797333 0.696400 0.183635
H16   H     H_    0.080559 0.889088 0.332438 0.152578
H17   H     H_    0.183606 0.586128 0.210043 0.100166
H18   H     H_    0.109597 0.595012 0.323714 0.112387
H19   H     H_    0.546188 0.877221 0.672264 0.075006
H20   H     H_    0.845838 0.745076 0.779173 0.109569
H21   H     H_    0.814754 0.724770 0.660151 0.123326
H22   H     H_    0.789384 0.447689 0.812333 0.107327
H23   H     H_    0.922948 0.557738 0.787645 0.140368
H24   H     H_    0.550773 0.539617 0.712800 0.157592
H25   H     H_    0.325987 0.035249 0.768283 0.101190
H26   H     H_    0.399812 0.047556 0.853099 0.152785
H27   H     H_    0.236206 0.985210 0.916768 0.185914
H28   H     H_    0.144623 0.143785 0.864835 0.084931
H29   H     H_    0.159277 0.982140 0.831665 0.153897
H30   H     H_    0.380127 0.589984 0.876659 0.350690
H31   H     H_    0.897935 0.537559 0.670153 0.150811
H32   H     H_    0.908781 0.052478 0.802389 0.128518
H33   H     H_    0.857457 0.176189 0.679678 0.146335
H34   H     H_    0.584997 0.230537 0.807025 0.112706
H35   H     H_    0.608213 0.120397 0.695985 0.094161
H36   H     H_    0.148124 0.503470 0.821254 0.143721
O1    O     O_R   0.507110 0.256280 0.580300 -0.523144
O2    O     O_R   0.837080 0.593860 0.915300 -0.530993
O3    O     O_R   0.064770 0.636080 0.932550 -0.495955
O4    O     O_R   0.280830 0.527190 0.577940 -0.504699
O5    O     O_R   0.068250 0.829200 0.092940 -0.515471
O6    O     O_R   0.799650 0.057040 0.080330 -0.496953
O7    O     O_R   0.586130 0.079760 0.077080 -0.488969
O8    O     O_R   0.627700 0.809630 0.066580 -0.513813
O9    O     O_R   0.816140 0.597180 0.075920 -0.501034
O10   O     O_R   0.045360 0.639170 0.081440 -0.489214
O11   O     O_3   0.833980 0.833750 0.001700 -0.303385
O12   O     O_R   0.524640 0.695370 0.425100 -0.492584
O13   O     O_R   0.261360 0.738990 0.584270 -0.521535
O14   O     O_R   0.532590 0.694780 0.574370 -0.510136
O15   O     O_R   0.744470 0.503750 0.577000 -0.526173
O16   O     O_R   0.698520 0.277230 0.571620 -0.501324
O17   O     O_R   0.498530 0.256920 0.419280 -0.510659
O18   O     O_R   0.272880 0.527780 0.428680 -0.499267
O19   O     O_R   0.252780 0.739630 0.423250 -0.512914
O20   O     O_3   0.442315 0.846626 0.823235 -0.500146
O21   O     O_2   0.624297 0.449203 0.901129 -0.520394
O22   O     O_R   0.435927 0.606159 0.838012 -0.654559
O23   O     O_R   0.735890 0.504390 0.415980 -0.513171
O24   O     O_R   0.690560 0.277820 0.422350 -0.506713
O25   O     O_3   0.499990 0.499990 0.499980 -0.247169
O26   O     O_R   0.089190 0.825870 0.932320 -0.512155
O27   O     O_R   0.819070 0.053960 0.931440 -0.494258
O28   O     O_R   0.607070 0.076440 0.916460 -0.535084
O29   O     O_R   0.647110 0.806550 0.917690 -0.479916

loop_
_geom_bond_atom_site_label_1
_geom_bond_atom_site_label_2
_ccdc_geom_bond_type
C24   O29   A    
C18   C21   D    
Cr6   O2    S    
C19   C20   D    
C4    O14   A    
C12   C23   S    
C6    H36   S    
C34   C40   S    
C36   C37   S    
Cr2   O19   S    
C3    C7    D    
Cr2   O13   S    
C8    C11   D    
C5    C6    D    
C2    C41   D    
C26   O7    A    
Cr4   O27   S    
C40   H24   S    
C19   H17   S    
C38   O22   S    
C12   C40   S    
C22   O28   A    
C13   H13   S    
Cr3   O23   S    
C23   C24   S    
C5    H3    S    
Cr6   O9    S    
C9    C10   D    
C30   O23   A    
C16   O1    A    
Cr6   O3    S    
Cr1   O1    S    
C29   O5    A    
Cr1   O18   S    
Cr3   O16   S    
C4    C34   S    
Cr5   O8    S    
C34   C39   S    
C31   O17   A    
C18   C28   S    
Cr2   O14   S    
C29   O10   A    
Cr1   O17   S    
Cr2   O25   S    
C18   H18   S    
C41   H35   S    
C37   H28   S    
C25   O3    A    
C14   C26   S    
C40   H12   S    
C32   C33   S    
C1    C3    S    
C38   O21   D    
C35   C39   S    
C36   H26   S    
C8    H8    S    
C28   O19   A    
C30   O12   A    
C2    C43   S    
Cr4   O11   S    
C33   C34   S    
C31   O24   A    
H30   O22   S    
C9    H7    S    
Cr6   O10   S    
C32   H1    S    
C36   H25   S    
C17   H10   S    
C5    C25   S    
C12   H22   S    
C35   H23   S    
C23   C35   S    
C32   O20   S    
C4    O15   A    
C43   H32   S    
C15   H9    S    
C2    H33   S    
C42   C43   D    
C19   C29   S    
C11   H6    S    
C9    C27   S    
Cr5   O29   S    
C15   C17   S    
Cr3   O15   S    
C1    O4    A    
Cr5   O11   S    
C21   H16   S    
C36   O20   S    
Cr4   O6    S    
C13   C31   S    
C42   H34   S    
C1    O13   A    
C6    C7    S    
C14   H11   S    
C37   H29   S    
C22   O27   A    
C13   C17   D    
C8    C30   S    
C39   H31   S    
C20   H14   S    
Cr3   O25   S    
C26   O6    A    
C7    H2    S    
Cr2   O12   S    
C23   C32   S    
C3    H4    S    
C28   O18   A    
C22   C42   S    
C33   H15   S    
Cr4   O26   S    
Cr4   O5    S    
C39   H21   S    
C37   H27   S    
Cr6   O11   S    
C12   C38   S    
C10   H5    S    
C24   O2    A    
C27   O8    A    
C10   C11   S    
C25   O26   A    
C16   O16   A    
C20   C21   S    
C35   H20   S    
Cr5   O7    S    
Cr3   O24   S    
C14   C15   D    
C27   O9    A    
C16   C41   S    
Cr1   O4    S    
C33   H19   S    
Cr5   O28   S    
Cr1   O25   S    
