data_mof_unit_49200.cif
_audit_creation_date              2012-12-10T17:17:24-0500
_audit_creation_method            fapswitch 2.2
_symmetry_space_group_name_H-M    P1
_symmetry_Int_Tables_number       1
_space_group_crystal_system       triclinic
_cell_length_a                    10.182272
_cell_length_b                    10.822143
_cell_length_c                    12.342402
_cell_angle_alpha                 90.659013
_cell_angle_beta                  109.726413
_cell_angle_gamma                 95.928026
_cell_volume                      1271.83542906

loop_
_atom_site_label
_atom_site_type_symbol
_atom_type_description
_atom_site_fract_x
_atom_site_fract_y
_atom_site_fract_z
_atom_type_partial_charge
C1    C     C_R   0.053750 0.732673 0.495891 0.950719
C2    C     C_R   0.408016 0.472158 0.999681 -0.021422
C3    C     C_R   0.319708 0.441052 0.885385 0.084816
C4    C     C_R   0.546646 0.439564 0.031618 0.069869
C5    C     C_R   0.581360 0.349505 0.964369 0.188718
C6    C     C_R   0.480434 0.299248 0.862101 -0.251519
C7    C     C_R   0.351888 0.346586 0.821405 -0.191913
C8    C     C_R   0.654273 0.501423 0.123659 -0.276328
C9    C     C_R   0.817457 0.363825 0.102679 -0.189968
C10   C     C_R   0.202591 0.506486 0.838103 -0.107292
C11   C     C_2   0.090576 0.865616 0.504037 -0.379091
C12   C     C_R   0.133244 0.507039 0.714002 0.856573
C13   C     C_2   0.010526 0.936480 0.537980 -0.146237
C14   C     C_2   0.927965 0.136641 0.527190 -0.376282
C15   C     C_2   0.032759 0.068783 0.535178 -0.157022
C16   C     C_2   0.433589 0.509026 0.512352 -0.048207
C17   C     C_2   0.568705 0.483818 0.495849 -0.100019
C18   C     C_R   0.950135 0.267798 0.510647 0.932021
C19   C     C_R   0.864867 0.486853 0.285996 0.873089
C20   C     C_R   0.717195 0.312723 0.000076 -0.201330
C21   C     C_R   0.783865 0.456679 0.165579 -0.061089
C22   C     C_R   0.158368 0.581281 0.909456 -0.250399
C23   C     C_R   0.230127 0.592058 0.027052 -0.117356
C24   C     C_R   0.354170 0.536811 0.074474 -0.001557
H1    H     H_    0.918088 0.327618 0.134961 0.157138
H2    H     H_    0.921102 0.897056 0.560683 0.189341
H3    H     H_    0.827597 0.095391 0.530759 0.152289
H4    H     H_    0.179643 0.905462 0.481210 0.155907
H5    H     H_    0.567687 0.405303 0.440042 0.145161
H6    H     H_    0.436267 0.582434 0.573944 0.153316
H7    H     H_    0.683082 0.627582 0.596974 0.160192
H8    H     H_    0.315228 0.377703 0.397051 0.156035
H9    H     H_    0.503284 0.228055 0.810755 0.145307
H10   H     H_    0.744154 0.242145 0.950782 0.138140
H11   H     H_    0.637524 0.582338 0.167360 0.161811
H12   H     H_    0.067030 0.630653 0.874365 0.167939
H13   H     H_    0.187812 0.643331 0.081125 0.184406
H14   H     H_    0.277591 0.307473 0.740112 0.166090
H15   H     H_    0.133372 0.109607 0.531567 0.184958
N1    N     N_2   0.313640 0.446500 0.454900 -0.179255
N2    N     N_2   0.686360 0.553430 0.545150 -0.188565
O1    O     O_R   0.936910 0.692950 0.509080 -0.609388
O2    O     O_R   0.138320 0.658600 0.480130 -0.591723
O3    O     O_R   0.002900 0.525670 0.675280 -0.610104
O4    O     O_R   0.204310 0.491320 0.646330 -0.618394
O5    O     O_R   0.861680 0.341400 0.519870 -0.611801
O6    O     O_R   0.063090 0.307050 0.490920 -0.621597
O7    O     O_R   0.795690 0.508680 0.353670 -0.605878
O8    O     O_R   0.997100 0.474330 0.324720 -0.599447
Zn1   Zn    Zn3+2 0.865520 0.522940 0.519330 0.942947
Zn2   Zn    Zn3+2 0.134480 0.477060 0.480670 0.954213
C25   C     C_2   0.412367 0.533103 0.201692 0.343194
H16   H     H_    0.477478 0.461462 0.241114 0.070459
O9    O     O_2   0.387258 0.609360 0.263616 -0.571468

loop_
_geom_bond_atom_site_label_1
_geom_bond_atom_site_label_2
_ccdc_geom_bond_type
N2    Zn1   S    
C24   C25   S    
C2    C4    A    
C23   C24   A    
C16   N1    D    
C6    C7    A    
C14   H3    S    
N1    Zn2   S    
C17   H5    S    
O5    Zn1   S    
C9    C20   A    
C1    C11   S    
C6    H9    S    
C4    C8    A    
C20   H10   S    
C18   O6    A    
C25   O9    D    
O7    Zn1   S    
C2    C3    A    
C9    H1    S    
C12   O3    A    
C3    C10   A    
C23   H13   S    
C10   C22   A    
C11   C13   D    
C15   H15   S    
C16   C17   S    
C10   C12   S    
C11   H4    S    
O2    Zn2   S    
C18   O5    A    
C19   C21   S    
C7    H14   S    
O1    Zn1   S    
C8    C21   A    
C3    C7    A    
H8    N1    S    
C13   C15   S    
C2    C24   A    
C5    C6    A    
C17   N2    D    
C13   H2    S    
O4    Zn2   S    
C16   H6    S    
C9    C21   A    
C1    O1    A    
C22   H12   S    
C25   H16   S    
O3    Zn1   S    
C5    C20   A    
C14   C18   S    
C22   C23   A    
C4    C5    A    
O6    Zn2   S    
H7    N2    S    
C14   C15   D    
C19   O8    A    
C1    O2    A    
C19   O7    A    
C12   O4    A    
O8    Zn2   S    
C8    H11   S    
