data_mof_unit_8940.cif
_audit_creation_date              2012-12-11T14:21:02-0500
_audit_creation_method            fapswitch 2.2
_symmetry_space_group_name_H-M    P1
_symmetry_Int_Tables_number       1
_space_group_crystal_system       triclinic
_cell_length_a                    21.958348
_cell_length_b                    7.208494
_cell_length_c                    14.934206
_cell_angle_alpha                 89.785781
_cell_angle_beta                  106.938027
_cell_angle_gamma                 89.933422
_cell_volume                      2261.31861821

loop_
_atom_site_label
_atom_site_type_symbol
_atom_type_description
_atom_site_fract_x
_atom_site_fract_y
_atom_site_fract_z
_atom_type_partial_charge
O1    O     O_R   0.584770 0.505770 0.002090 -0.541905
O2    O     O_R   0.415230 0.005770 0.997910 -0.542293
O3    O     O_R   0.467060 0.173340 0.861950 -0.536493
O4    O     O_R   0.532940 0.673340 0.138050 -0.537046
C1    C     C_R   0.455230 0.344625 0.826070 0.714068
C2    C     C_R   0.544830 0.843765 0.174014 0.713449
O5    O     O_R   0.587510 0.175890 0.993210 -0.542268
O6    O     O_R   0.412490 0.675890 0.006790 -0.542041
O7    O     O_R   0.536540 0.008150 0.130100 -0.534899
O8    O     O_R   0.463460 0.508150 0.869900 -0.535043
C3    C     C_R   0.612962 0.344855 0.997444 0.730025
C4    C     C_R   0.387035 0.844992 0.002569 0.730502
O9    O     O_3   0.483140 0.340040 0.044760 -0.378725
O10   O     O_3   0.516860 0.840040 0.955240 -0.378591
V1    V     V_3+5 0.503130 0.064190 0.991700 1.436098
V2    V     V_3+5 0.496870 0.564190 0.008300 1.436742
C5    C     C_2   0.214094 0.727556 0.003599 -0.124398
C6    C     C_2   0.786090 0.227757 0.996735 -0.120127
C7    C     C_2   0.180327 0.886637 0.996307 -0.274696
C8    C     C_2   0.819661 0.386865 0.003694 -0.274820
H1    H     H_    0.191074 0.596711 0.009490 0.137087
H2    H     H_    0.809289 0.096993 0.991141 0.137339
H3    H     H_    0.201832 0.018907 0.989331 0.127509
H4    H     H_    0.797999 0.519070 0.010408 0.126416
C9    C     C_2   0.281980 0.714694 0.003370 -0.131974
C10   C     C_2   0.718212 0.214608 0.996958 -0.133376
C11   C     C_2   0.319943 0.861537 0.003551 -0.293158
C12   C     C_2   0.680043 0.361327 0.996443 -0.293119
H5    H     H_    0.301223 0.575745 0.003745 0.136919
H6    H     H_    0.699163 0.075622 0.996874 0.136939
C13   C     C_R   0.927057 0.890497 0.723998 -0.149378
C14   C     C_R   0.073097 0.384991 0.275693 -0.147669
C15   C     C_R   0.573052 0.848408 0.275464 -0.123034
C16   C     C_R   0.426833 0.353342 0.724816 -0.122491
C17   C     C_R   0.935657 0.941924 0.568415 -0.223410
C18   C     C_R   0.062646 0.375700 0.431966 -0.223492
C19   C     C_R   0.964100 0.930378 0.664587 0.608208
C20   C     C_R   0.034706 0.382519 0.335539 0.606211
C21   C     C_R   0.861464 0.862976 0.687184 -0.309352
C22   C     C_R   0.139384 0.380764 0.312133 -0.308909
C23   C     C_R   0.830958 0.878826 0.589801 0.093045
C24   C     C_R   0.169144 0.374582 0.409906 0.093463
C25   C     C_R   0.869674 0.918186 0.530757 0.038958
C26   C     C_R   0.129195 0.372129 0.469490 0.038386
C27   C     C_R   0.763561 0.860202 0.549420 0.089108
C28   C     C_R   0.236847 0.371167 0.450303 0.088817
C29   C     C_R   0.736225 0.880467 0.450379 0.086884
C30   C     C_R   0.263323 0.366212 0.549929 0.086754
C31   C     C_R   0.777216 0.918517 0.395062 -0.171649
C32   C     C_R   0.221195 0.363613 0.605771 -0.171744
C33   C     C_R   0.842385 0.936495 0.434613 -0.136566
C34   C     C_R   0.155709 0.366388 0.566163 -0.135618
C35   C     C_R   0.722581 0.823170 0.604782 -0.208554
C36   C     C_R   0.278917 0.372273 0.394455 -0.208947
C37   C     C_R   0.657400 0.805478 0.565321 -0.120882
C38   C     C_R   0.344396 0.368254 0.433977 -0.120665
C39   C     C_R   0.629939 0.822739 0.469004 -0.004542
C40   C     C_R   0.371123 0.363357 0.530777 -0.006779
C41   C     C_R   0.668835 0.861288 0.409969 0.014369
C42   C     C_R   0.331043 0.363145 0.590327 0.013548
C43   C     C_R   0.563778 0.799117 0.430852 0.683619
C44   C     C_R   0.437830 0.358088 0.568789 0.690544
C45   C     C_R   0.535829 0.809784 0.334535 -0.222721
C46   C     C_R   0.465326 0.352370 0.665333 -0.226005
C47   C     C_R   0.638571 0.875815 0.312476 -0.211870
C48   C     C_R   0.360636 0.359275 0.688163 -0.212203
H7    H     H_    0.871759 0.966625 0.389241 0.152590
H8    H     H_    0.125418 0.364180 0.611988 0.153161
H9    H     H_    0.664384 0.902440 0.262576 0.114900
H10   H     H_    0.334053 0.359778 0.738398 0.113424
H11   H     H_    0.485132 0.786461 0.305814 0.141277
H12   H     H_    0.516680 0.347268 0.693804 0.140410
H13   H     H_    0.628326 0.776313 0.611186 0.184399
H14   H     H_    0.374344 0.368790 0.387698 0.184619
H15   H     H_    0.965141 0.972952 0.523337 0.154592
H16   H     H_    0.032177 0.373659 0.477505 0.155027
H17   H     H_    0.835776 0.835087 0.737122 0.122447
H18   H     H_    0.165914 0.383571 0.261829 0.120554
H19   H     H_    0.760687 0.936449 0.320341 0.126076
H20   H     H_    0.236998 0.358880 0.681002 0.125861
O11   O     O_R   0.036450 0.233070 0.130130 -0.541187
O12   O     O_R   0.963550 0.733070 0.869870 -0.543486
O13   O     O_R   0.912470 0.560570 0.006790 -0.545324
O14   O     O_R   0.087530 0.060570 0.993210 -0.543259
C49   C     C_R   0.886985 0.391986 0.002574 0.752428
C50   C     C_R   0.113014 0.891852 0.997431 0.751892
O15   O     O_R   0.032920 0.562940 0.138050 -0.537759
O16   O     O_R   0.967080 0.062940 0.861950 -0.533556
O17   O     O_R   0.084790 0.730500 0.002090 -0.542623
O18   O     O_R   0.915210 0.230500 0.997910 -0.541230
C51   C     C_R   0.044741 0.394051 0.174386 0.768224
C52   C     C_R   0.955208 0.894968 0.825525 0.766433
O19   O     O_3   0.016820 0.396170 0.955260 -0.381801
O20   O     O_3   0.983180 0.896170 0.044740 -0.382214
V3    V     V_3+5 0.996880 0.672090 0.008300 1.462741
V4    V     V_3+5 0.003120 0.172090 0.991700 1.474008
F1    F     F_    0.027660 0.959750 0.699878 -0.695538
F2    F     F_    0.970300 0.386642 0.300549 -0.695745
H21   H     H_    0.739144 0.806343 0.679571 0.123079
H22   H     H_    0.263031 0.375594 0.319202 0.123404
F3    F     F_    0.526229 0.761731 0.486644 -0.652378
F4    F     F_    0.476521 0.357415 0.512467 -0.650871
H23   H     H_    0.301977 0.001332 0.004105 0.130722
H24   H     H_    0.697852 0.501132 0.995635 0.131143

loop_
_geom_bond_atom_site_label_1
_geom_bond_atom_site_label_2
_ccdc_geom_bond_type
C40   C44   A    
O16   V4    S    
O4    V2    S    
O15   C51   A    
C7    H3    S    
C6    C10   S    
C20   F2    S    
C7    C50   S    
O2    C4    A    
C16   C48   A    
C2    O7    A    
C19   F1    S    
C15   C47   A    
C29   C31   A    
C35   H21   S    
O5    C3    A    
C17   H15   S    
C21   H17   S    
C17   C19   A    
O14   C50   A    
C24   C28   A    
C39   C41   A    
C14   C51   S    
C40   C42   A    
O12   C52   A    
O14   V4    S    
C27   C29   A    
C11   H23   S    
C43   C45   A    
C44   C46   A    
C18   H16   S    
O16   C52   A    
C13   C21   A    
C31   C33   A    
O15   V3    S    
C32   C34   A    
C14   C20   A    
C17   C25   A    
C34   H8    S    
C15   C45   A    
C26   C34   A    
C30   C32   A    
C42   C48   A    
O6    V2    S    
C1    C16   S    
C23   C25   A    
C36   H22   S    
C24   C26   A    
C30   C42   A    
C28   C30   A    
C35   C37   A    
C9    H5    S    
C36   C38   A    
C38   H14   S    
C4    C11   S    
C8    H4    S    
C21   C23   A    
O11   V4    S    
C27   C35   A    
C5    H1    S    
C31   H19   S    
O11   C51   A    
O17   V3    S    
C43   F3    S    
C12   H24   S    
O6    C4    A    
O13   V3    S    
C8    C49   S    
C28   C36   A    
C16   C46   A    
O1    V2    S    
C33   H7    S    
C39   C43   A    
O2    V1    S    
O4    C2    A    
O13   C49   A    
C45   H11   S    
C10   H6    S    
O19   V4    S    
C37   C39   A    
C22   H18   S    
C18   C26   A    
O3    V1    S    
O12   V3    S    
C6    H2    S    
C22   C24   A    
O3    C1    A    
C50   O17   A    
C32   H20   S    
C49   O18   A    
O18   V4    S    
C9    C11   D    
C10   C12   D    
C2    C15   S    
C5    C9    S    
C18   C20   A    
O7    V1    S    
C1    O8    A    
O8    V2    S    
C41   C47   A    
C25   C33   A    
C48   H10   S    
C3    C12   S    
C47   H9    S    
O5    V1    S    
C5    C7    D    
C38   C40   A    
C6    C8    D    
C14   C22   A    
O20   V3    S    
C29   C41   A    
C37   H13   S    
C13   C19   A    
C13   C52   S    
O9    V2    S    
C23   C27   A    
O10   V1    S    
O1    C3    A    
C46   H12   S    
C44   F4    S    
