data_mof_unit_26219.cif
_audit_creation_date              2013-03-05T16:05:29-0500
_audit_creation_method            fapswitch 2.2
_symmetry_space_group_name_H-M    P1
_symmetry_Int_Tables_number       1
_space_group_crystal_system       triclinic
_cell_length_a                    10.824541
_cell_length_b                    9.627883
_cell_length_c                    10.627103
_cell_angle_alpha                 90.168416
_cell_angle_beta                  92.633976
_cell_angle_gamma                 89.9601
_cell_volume                      1106.3541307

loop_
_atom_site_label
_atom_site_type_symbol
_atom_site_description
_atom_site_fract_x
_atom_site_fract_y
_atom_site_fract_z
_atom_type_partial_charge
O1    O     O_R   0.319640 0.618740 0.499990 -0.558561
O2    O     O_R   0.680360 0.381260 0.500010 -0.558542
O3    O     O_R   0.680360 0.618740 0.500010 -0.558453
O4    O     O_R   0.319640 0.381260 0.499990 -0.558489
C1    C     C_R   0.871611 0.499960 0.499681 -0.040573
C2    C     C_R   0.128388 0.500040 0.500317 -0.040503
C3    C     C_R   0.262398 0.500029 0.500116 0.810415
C4    C     C_R   0.737602 0.499971 0.499883 0.810273
O5    O     O_R   0.499970 0.618770 0.316850 -0.547335
O6    O     O_R   0.500030 0.381230 0.683150 -0.547499
O7    O     O_R   0.500030 0.618770 0.683150 -0.555774
O8    O     O_R   0.499970 0.381230 0.316850 -0.555808
C5    C     C_R   0.499598 0.499706 0.259671 0.835718
C6    C     C_R   0.500389 0.500293 0.740329 0.835799
Cu1   Cu    Cu3+1 0.500000 0.640660 0.500000 1.026729
Cu2   Cu    Cu3+1 0.500000 0.359340 0.500000 1.026655
N1    N     N_R   0.500000 0.852070 0.500000 -0.246622
N2    N     N_R   0.500000 0.147930 0.500000 -0.246632
C7    C     C_3   0.397276 0.564796 0.037515 -0.177613
C8    C     C_3   0.602697 0.435195 0.962490 -0.177739
C9    C     C_3   0.498643 0.632779 0.959415 -0.133717
C10   C     C_3   0.501336 0.367215 0.040586 -0.133581
C11   C     C_3   0.400333 0.434089 0.953639 0.164641
C12   C     C_3   0.599642 0.565902 0.046365 0.164429
H1    H     H_    0.312711 0.616243 0.070272 0.188859
H2    H     H_    0.687263 0.383747 0.929732 0.188843
H3    H     H_    0.498573 0.741400 0.924596 0.191317
H4    H     H_    0.501408 0.258596 0.075408 0.191318
C13   C     C_3   0.500346 0.501027 0.877105 -0.043821
C14   C     C_3   0.499628 0.498969 0.122896 -0.043893
C15   C     C_R   0.421753 0.073850 0.419234 0.277044
C16   C     C_R   0.578247 0.926149 0.580766 0.277055
C17   C     C_R   0.578292 0.074157 0.580710 0.281463
C18   C     C_R   0.421708 0.925843 0.419290 0.281474
C19   C     C_R   0.064074 0.373857 0.501888 -0.147591
C20   C     C_R   0.935925 0.626143 0.498110 -0.147622
C21   C     C_R   0.936268 0.373816 0.501335 -0.145986
C22   C     C_R   0.063732 0.626183 0.498663 -0.146006
H5    H     H_    0.112149 0.275150 0.503572 0.189217
H6    H     H_    0.887850 0.724850 0.496426 0.189231
H7    H     H_    0.888474 0.275081 0.502236 0.190455
H8    H     H_    0.111526 0.724919 0.497762 0.190454
Br1   Br    Br    0.309044 0.168081 0.302495 -0.464870
Br2   Br    Br    0.690955 0.831919 0.697506 -0.464718
Br3   Br    Br    0.691476 0.168698 0.696998 -0.467405
Br4   Br    Br    0.308524 0.831303 0.303002 -0.467438
C23   C     C_3   0.286472 0.359113 0.898780 -0.792053
H9    H     H_    0.315161 0.267990 0.842939 0.247833
H10   H     H_    0.229131 0.323296 0.976290 0.259626
H11   H     H_    0.231285 0.430746 0.836799 0.217092
C24   C     C_3   0.713528 0.640801 0.101261 -0.790688
H12   H     H_    0.767827 0.569581 0.164526 0.216582
H13   H     H_    0.771766 0.675021 0.023806 0.259166
H14   H     H_    0.684879 0.732970 0.155808 0.247845

loop_
_geom_bond_atom_site_label_1
_geom_bond_atom_site_label_2
_geom_bond_distance
_ccdc_geom_bond_type
O4    Cu2   1.963537 S    
C1    C4    1.450692 S    
C19   H5    1.082974 S    
C2    C22   1.401053 A    
C9    C13   1.539309 S    
C2    C3    1.450692 S    
O1    Cu1   1.963829 S    
C10   C14   1.539318 S    
C1    C21   1.401053 A    
O2    Cu2   1.963828 S    
C7    C11   1.541205 S    
C23   H9    1.109849 S    
C24   H14   1.110307 S    
C16   C17   1.425004 A    
C12   C24   1.520770 S    
C20   C22   1.383190 A    
O5    Cu1   1.957101 S    
C15   C18   1.425004 A    
O3    Cu1   1.963536 S    
C23   H10   1.109790 S    
O6    Cu2   1.957100 S    
C2    C19   1.401143 A    
C8    H2    1.110007 S    
C15   Br1   1.927844 S    
O4    C3    1.300224 A    
C18   Br4   1.926793 S    
C11   C13   1.527683 S    
C19   C21   1.383189 A    
C8    C10   1.552050 S    
C22   H8    1.082867 S    
C23   H11   1.110094 S    
C8    C13   1.537061 S    
C21   H7    1.082867 S    
O8    Cu2   1.958333 S    
C9    H3    1.110340 S    
O7    C6    1.293929 A    
C12   C14   1.527662 S    
C11   C23   1.520766 S    
N2    C17   1.376339 A    
C7    H1    1.110006 S    
Cu1   Cu2   2.708516 S    
C1    C20   1.401144 A    
C8    C12   1.541198 S    
C5    C14   1.453539 S    
C20   H6    1.082974 S    
C17   Br3   1.926792 S    
O8    C5    1.293918 A    
C16   Br2   1.927845 S    
Cu2   N2    2.035432 S    
O3    C4    1.300224 A    
N1    C18   1.376340 A    
C9    C12   1.540554 S    
Cu1   N1    2.035431 S    
N1    C16   1.375934 A    
O5    C5    1.295769 A    
C10   C11   1.540554 S    
C10   H4    1.110339 S    
N2    C15   1.375935 A    
C6    C13   1.453554 S    
C7    C9    1.552128 S    
O1    C3    1.300502 A    
C7    C14   1.537020 S    
O7    Cu1   1.958332 S    
O2    C4    1.300502 A    
C24   H12   1.110625 S    
O6    C6    1.295766 A    
C24   H13   1.110426 S    
