data_mof_unit_30211.cif
_audit_creation_date              2012-12-10T18:02:11-0500
_audit_creation_method            fapswitch 2.2
_symmetry_space_group_name_H-M    P1
_symmetry_Int_Tables_number       1
_space_group_crystal_system       triclinic
_cell_length_a                    10.94237
_cell_length_b                    9.593688
_cell_length_c                    23.470469
_cell_angle_alpha                 89.06936
_cell_angle_beta                  91.783469
_cell_angle_gamma                 88.900178
_cell_volume                      2461.87863667

loop_
_atom_site_label
_atom_site_type_symbol
_atom_type_description
_atom_site_fract_x
_atom_site_fract_y
_atom_site_fract_z
_atom_type_partial_charge
C1    C     C_R   0.262635 0.501229 0.503203 0.810241
C2    C     C_R   0.737365 0.498771 0.496797 0.810241
C3    C     C_R   0.588302 0.536560 0.237878 -0.028255
C4    C     C_R   0.411700 0.463453 0.762123 -0.028256
C5    C     C_R   0.596864 0.525423 0.297744 -0.101606
C6    C     C_R   0.403137 0.474580 0.702257 -0.101606
C7    C     C_R   0.490698 0.505542 0.328744 -0.117759
C8    C     C_R   0.509302 0.494459 0.671256 -0.117758
C9    C     C_R   0.375646 0.514080 0.300290 -0.113765
C10   C     C_R   0.624355 0.485924 0.699709 -0.113764
C11   C     C_R   0.368227 0.531349 0.240568 -0.042903
C12   C     C_R   0.631775 0.468663 0.759431 -0.042904
C13   C     C_R   0.475132 0.511960 0.208212 0.164907
C14   C     C_R   0.524870 0.488056 0.791787 0.164907
C15   C     C_R   0.066418 0.376676 0.514251 -0.060601
C16   C     C_R   0.933582 0.623323 0.485749 -0.060601
C17   C     C_R   0.940364 0.371785 0.504142 -0.060491
C18   C     C_R   0.059636 0.628215 0.495858 -0.060492
C19   C     C_R   0.871800 0.496812 0.493939 -0.109972
C20   C     C_R   0.128200 0.503188 0.506061 -0.109973
C21   C     C_R   0.426875 0.077313 0.462192 0.038472
C22   C     C_R   0.573125 0.922687 0.537808 0.038473
C23   C     C_R   0.571660 0.071237 0.538381 0.041942
C24   C     C_R   0.428340 0.928762 0.461619 0.041942
C25   C     C_R   0.498186 0.501139 0.391307 0.809396
C26   C     C_R   0.501814 0.498861 0.608692 0.809398
C27   C     C_R   0.630774 0.518303 0.887424 0.607561
C28   C     C_R   0.369231 0.481724 0.112575 0.607562
C29   C     C_R   0.425237 0.579619 0.876938 0.612854
C30   C     C_R   0.574768 0.420408 0.123060 0.612852
C31   C     C_R   0.406058 0.560279 0.935855 -0.129770
C32   C     C_R   0.593948 0.439752 0.064144 -0.129769
C33   C     C_R   0.506446 0.510568 0.970467 -0.082890
C34   C     C_R   0.493560 0.489464 0.029532 -0.082890
C35   C     C_R   0.621439 0.488646 0.946067 -0.119316
C36   C     C_R   0.378567 0.511385 0.053932 -0.119316
C37   C     C_R   0.291071 0.585076 0.960742 0.259300
C38   C     C_R   0.708935 0.414958 0.039258 0.259300
C39   C     C_R   0.277741 0.560946 0.019577 0.260277
C40   C     C_R   0.722266 0.439088 0.980422 0.260277
Cu1   Cu    Cu3+1 0.500000 0.640660 0.500000 0.999545
Cu2   Cu    Cu3+1 0.500000 0.359340 0.500000 0.999545
N1    N     N_R   0.527507 0.523905 0.852860 -0.454769
N2    N     N_R   0.472497 0.476118 0.147139 -0.454768
N3    N     N_R   0.500000 0.852070 0.500000 -0.209211
N4    N     N_R   0.500000 0.147930 0.500000 -0.209211
O1    O     O_R   0.319640 0.618740 0.500000 -0.581099
O2    O     O_R   0.680360 0.381260 0.500000 -0.581099
O3    O     O_R   0.680360 0.618740 0.500000 -0.582568
O4    O     O_R   0.319640 0.381260 0.500000 -0.582568
O5    O     O_R   0.499960 0.618810 0.417880 -0.580035
O6    O     O_R   0.500040 0.381190 0.582120 -0.580035
O7    O     O_R   0.500040 0.618810 0.582120 -0.573894
O8    O     O_R   0.499960 0.381190 0.417880 -0.573893
O9    O     O_2   0.737506 0.562824 0.867730 -0.454808
O10   O     O_2   0.262498 0.437201 0.132268 -0.454809
O11   O     O_2   0.347272 0.659548 0.844409 -0.466389
O12   O     O_2   0.652732 0.340476 0.155588 -0.466389
Br1   Br    Br    0.146090 0.640258 0.915652 -0.229726
Br2   Br    Br    0.853917 0.359781 0.084348 -0.229726
Br3   Br    Br    0.123789 0.612624 0.052905 -0.248714
Br4   Br    Br    0.876219 0.387412 0.947095 -0.248712
C41   C     C_1   0.691626 0.591447 0.207939 0.328262
N5    N     N_1   0.773990 0.635682 0.184241 -0.169639
C42   C     C_1   0.308376 0.408570 0.792063 0.328262
N6    N     N_1   0.226012 0.364339 0.815762 -0.169638
C43   C     C_1   0.714783 0.535449 0.327318 0.275228
N7    N     N_1   0.808991 0.543161 0.350721 -0.255995
C44   C     C_1   0.285218 0.464547 0.672683 0.275228
N8    N     N_1   0.191010 0.456828 0.649280 -0.255995
C45   C     C_1   0.264451 0.513253 0.332518 0.316980
N9    N     N_1   0.175595 0.512720 0.358019 -0.235704
C46   C     C_1   0.735550 0.486748 0.667481 0.316980
N10   N     N_1   0.824406 0.487279 0.641980 -0.235705
C47   C     C_1   0.261994 0.607428 0.217170 0.360118
N11   N     N_1   0.177103 0.669366 0.199185 -0.153140
C48   C     C_1   0.738008 0.392586 0.782831 0.360115
N12   N     N_1   0.822899 0.330650 0.800817 -0.153139
C49   C     C_1   0.129401 0.252650 0.537734 0.326078
N13   N     N_1   0.179493 0.154605 0.556920 -0.233834
C50   C     C_1   0.870599 0.747350 0.462265 0.326076
N14   N     N_1   0.820507 0.845395 0.443080 -0.233835
C51   C     C_1   0.886346 0.235406 0.499508 0.324631
N15   N     N_1   0.845502 0.125706 0.495086 -0.259831
C52   C     C_1   0.113654 0.764594 0.500492 0.324630
N16   N     N_1   0.154498 0.874294 0.504914 -0.259831
C53   C     C_1   0.344440 0.153493 0.423314 0.326693
N17   N     N_1   0.277346 0.212580 0.391973 -0.256871
C54   C     C_1   0.655560 0.846507 0.576686 0.326694
N18   N     N_1   0.722654 0.787420 0.608027 -0.256871
C55   C     C_1   0.646090 0.140953 0.580514 0.327024
N19   N     N_1   0.706675 0.194395 0.614661 -0.275952
C56   C     C_1   0.353910 0.859047 0.419486 0.327024
N20   N     N_1   0.293325 0.805605 0.385339 -0.275954

loop_
_geom_bond_atom_site_label_1
_geom_bond_atom_site_label_2
_ccdc_geom_bond_type
C6    C44   S    
C30   C32   A    
C53   N17   T    
C21   C53   S    
C56   N20   T    
C8    C26   S    
Cu1   Cu2   S    
C5    C43   S    
C50   N14   T    
C28   O10   S    
C52   N16   T    
C24   N3    A    
Cu2   N4    S    
C4    C42   S    
C10   C46   S    
C27   O9    S    
C40   Br4   S    
C7    C9    A    
C46   N10   T    
C17   C19   A    
C15   C49   S    
C31   C33   A    
C32   C38   A    
C1    O4    A    
C18   C20   A    
C3    C13   A    
C23   N4    A    
C29   N1    A    
C30   N2    A    
Cu1   O3    S    
C15   C20   A    
C39   Br3   S    
C18   C52   S    
C43   N7    T    
C25   O8    A    
C4    C6    A    
C55   N19   T    
C5    C7    A    
C1    O1    A    
C6    C8    A    
C27   C35   A    
C48   N12   T    
C28   N2    A    
C31   C37   A    
C17   C51   S    
C32   C34   A    
C47   N11   T    
C25   O5    A    
C2    O3    A    
C26   O6    A    
C51   N15   T    
C12   C48   S    
C33   C34   A    
Cu1   O1    S    
Cu2   O2    S    
C9    C11   A    
Cu1   O7    S    
C37   Br1   S    
C10   C12   A    
Cu2   O4    S    
C38   Br2   S    
C16   C18   A    
C12   C14   A    
C23   C55   S    
C49   N13   T    
C26   O7    A    
C21   N4    A    
C15   C17   A    
C1    C20   S    
C2    C19   S    
C36   C39   A    
C9    C45   S    
C29   O11   S    
C3    C5    A    
C3    C41   S    
C7    C25   S    
C2    O2    A    
C35   C40   A    
C45   N9    T    
C29   C31   A    
C11   C47   S    
C24   C56   S    
Cu2   O8    S    
C38   C40   A    
C11   C13   A    
C16   C19   A    
C30   O12   S    
C16   C50   S    
C33   C35   A    
C22   C54   S    
C34   C36   A    
C4    C14   A    
C44   N8    T    
C41   N5    T    
C27   N1    A    
C37   C39   A    
C22   N3    A    
C28   C36   A    
C8    C10   A    
C42   N6    T    
C21   C24   A    
Cu1   N3    S    
C22   C23   A    
C54   N18   T    
Cu1   O5    S    
C13   N2    S    
Cu2   O6    S    
C14   N1    S    
