data_mof_unit_13345.cif
_audit_creation_date              2012-12-11T15:20:38-0500
_audit_creation_method            fapswitch 2.2
_symmetry_space_group_name_H-M    P1
_symmetry_Int_Tables_number       1
_space_group_crystal_system       triclinic
_cell_length_a                    12.929527
_cell_length_b                    13.046495
_cell_length_c                    15.312324
_cell_angle_alpha                 116.814474
_cell_angle_beta                  63.451873
_cell_angle_gamma                 97.16914
_cell_volume                      2052.58598699

loop_
_atom_site_label
_atom_site_type_symbol
_atom_type_description
_atom_site_fract_x
_atom_site_fract_y
_atom_site_fract_z
_atom_type_partial_charge
C1    C     C_R   0.008588 0.834541 0.047972 -0.120480
C2    C     C_R   0.322187 0.527673 0.781003 -0.124515
C3    C     C_R   0.243110 0.480387 0.107979 -0.157126
C4    C     C_R   0.702478 0.402557 0.208914 -0.133800
C5    C     C_R   0.043051 0.278263 0.683086 -0.129761
C6    C     C_R   0.335198 0.543071 0.078483 0.168657
C7    C     C_R   0.034747 0.168312 0.675419 0.045741
C8    C     C_R   0.332670 0.459083 0.676780 0.043004
C9    C     C_R   0.037635 0.145941 0.018632 0.050950
C10   C     C_R   0.162371 0.970100 0.380235 -0.134112
C11   C     C_R   0.149145 0.066032 0.475431 -0.170765
C12   C     C_R   0.708356 0.428030 0.304550 0.047473
C13   C     C_R   0.084355 0.061976 0.575465 0.141584
C14   C     C_R   0.058084 0.955506 0.577479 -0.166684
C15   C     C_R   0.072305 0.859360 0.482211 -0.165958
C16   C     C_R   0.737116 0.580622 0.952498 -0.104466
C17   C     C_R   0.111221 0.870857 0.385975 0.147157
C18   C     C_R   0.642136 0.435918 0.485886 -0.169013
C19   C     C_R   0.546826 0.445419 0.580199 -0.164056
C20   C     C_R   0.440732 0.412371 0.577173 0.140516
C21   C     C_R   0.437813 0.346981 0.476470 -0.161388
C22   C     C_R   0.532968 0.338185 0.382123 -0.154147
C23   C     C_R   0.634865 0.566669 0.030535 0.086937
C24   C     C_R   0.630909 0.393957 0.388929 0.138163
C25   C     C_2   0.428393 0.561510 0.109968 -0.251389
C26   C     C_2   0.518628 0.618561 0.073731 0.180451
C27   C     C_2   0.856699 0.964927 0.068956 -0.195851
C28   C     C_R   0.013531 0.699582 0.303769 -0.119000
C29   C     C_2   0.840501 0.051035 0.165893 -0.112910
C30   C     C_R   0.661209 0.485899 0.053634 -0.142046
C31   C     C_R   0.097240 0.798660 0.207979 -0.133262
C32   C     C_R   0.802944 0.490127 0.304433 -0.118146
C33   C     C_R   0.916920 0.751955 0.943045 -0.127046
C34   C     C_R   0.075153 0.793468 0.302922 0.049448
C35   C     C_R   0.929504 0.856759 0.018711 0.135220
C36   C     C_R   0.323854 0.578129 0.010822 -0.115237
C37   C     C_R   0.967237 0.178588 0.779517 -0.124397
C38   C     C_R   0.221681 0.450897 0.683279 -0.124646
C39   C     C_R   0.072085 0.252334 0.070899 -0.123630
C40   C     C_R   0.966664 0.167713 0.980843 -0.104856
H1    H     H_    0.039127 0.896328 0.105199 0.094782
H2    H     H_    0.180223 0.145016 0.470524 0.106313
H3    H     H_    0.016690 0.947506 0.652703 0.109330
H4    H     H_    0.649308 0.342449 0.175567 0.087621
H5    H     H_    0.040259 0.780935 0.487743 0.106554
H6    H     H_    0.719330 0.472843 0.492683 0.107419
H7    H     H_    0.554500 0.488816 0.655771 0.113144
H8    H     H_    0.359583 0.311811 0.470681 0.106674
H9    H     H_    0.524326 0.298014 0.306976 0.111860
H10   H     H_    0.437802 0.495500 0.130985 0.111858
H11   H     H_    0.808194 0.972192 0.029337 0.144480
H12   H     H_    0.934475 0.110182 0.802285 0.087120
H13   H     H_    0.882933 0.047918 0.211934 0.123342
H14   H     H_    0.742953 0.627606 0.908410 0.114421
H15   H     H_    0.993542 0.660691 0.357874 0.081968
H16   H     H_    0.604367 0.452955 0.110013 0.099193
H17   H     H_    0.155634 0.851895 0.174022 0.103175
H18   H     H_    0.842410 0.512174 0.358896 0.082084
H19   H     H_    0.869848 0.741229 0.897190 0.096965
H20   H     H_    0.374494 0.635603 0.978736 0.133149
H21   H     H_    0.199769 0.417044 0.616163 0.083486
H22   H     H_    0.122521 0.269695 0.115615 0.094975
H23   H     H_    0.915169 0.105981 0.946854 0.086307
H24   H     H_    0.390547 0.555514 0.806127 0.097220
H25   H     H_    0.219380 0.450491 0.169274 0.092933
H26   H     H_    0.073958 0.301446 0.617243 0.083440
H27   H     H_    0.200885 0.978891 0.305414 0.122377
I1    I     I_    0.500923 0.783887 0.082508 -0.507558
N1    N     N_R   0.037310 0.720000 0.995790 -0.045292
N2    N     N_R   0.824890 0.517960 0.936420 -0.046608
N3    N     N_R   0.003210 0.648190 0.211380 -0.037844
N4    N     N_R   0.774330 0.457010 0.995840 -0.042234
N5    N     N_R   0.053760 0.709140 0.151960 -0.038606
N6    N     N_R   0.853860 0.498840 0.211410 -0.038531
N7    N     N_R   0.974240 0.667310 0.936390 -0.045073
N8    N     N_R   0.225670 0.542990 0.004160 -0.047866
N9    N     N_R   0.946240 0.290860 0.848040 -0.040332
N10   N     N_R   0.146140 0.501160 0.788590 -0.040452
N11   N     N_R   0.025760 0.332690 0.063610 -0.041329
N12   N     N_R   0.962690 0.280000 0.004210 -0.041991
N13   N     N_R   0.209210 0.553840 0.847990 -0.041066
N14   N     N_R   0.175110 0.482040 0.063580 -0.041327
N15   N     N_R   0.996790 0.351810 0.788620 -0.039589
N16   N     N_R   0.790790 0.446160 0.152010 -0.037819
Ni1   Ni    Ni4+2 0.130310 0.630310 0.999970 0.222880
Ni2   Ni    Ni4+2 0.869690 0.369690 0.000030 0.216448
Ni3   Ni    Ni4+2 0.985640 0.509470 0.863740 0.214929
Ni4   Ni    Ni4+2 0.014360 0.490530 0.136260 0.210456

loop_
_geom_bond_atom_site_label_1
_geom_bond_atom_site_label_2
_ccdc_geom_bond_type
N10   Ni3   S    
N15   Ni3   S    
C27   C29   D    
C19   C20   A    
C32   H18   S    
C3    C6    A    
C10   H27   S    
C8    C20   S    
C40   H23   S    
C18   C24   A    
N16   Ni2   S    
C32   N6    A    
C5    N15   A    
C19   H7    S    
C31   N5    A    
C6    C25   S    
N9    N15   A    
C10   C17   A    
C9    C39   A    
C11   H2    S    
C18   C19   A    
C23   C26   S    
C25   H10   S    
N12   Ni2   S    
C36   N8    A    
C33   N7    A    
C2    H24   S    
C40   N12   A    
C4    C12   A    
C38   H21   S    
C28   C34   A    
C33   H19   S    
C13   C14   A    
C12   C32   A    
C3    H25   S    
C8    C38   A    
N2    Ni3   S    
C18   H6    S    
N11   Ni4   S    
C28   H15   S    
C27   H11   S    
C23   C30   A    
C16   N2    A    
N8    N14   A    
N3    N5    A    
C37   H12   S    
C38   N10   A    
C27   C35   S    
C25   C26   D    
C37   N9    A    
C9    C40   A    
C1    N1    A    
N3    Ni4   S    
C39   N11   A    
C30   N4    A    
C4    N16   A    
C3    N14   A    
C7    C37   A    
C31   C34   A    
N5    Ni1   S    
C22   H9    S    
N7    Ni3   S    
N9    Ni2   S    
C16   C23   A    
C22   C24   A    
C28   N3    A    
C17   C34   S    
C15   H5    S    
N1    Ni1   S    
C1    C35   A    
C5    C7    A    
C1    H1    S    
C15   C17   A    
C39   H22   S    
C2    C8    A    
N6    N16   A    
C5    H26   S    
C36   H20   S    
N4    Ni2   S    
C30   H16   S    
C4    H4    S    
C12   C24   S    
C26   I1    S    
C21   H8    S    
C11   C13   A    
N10   N13   A    
C31   H17   S    
C29   H13   S    
N14   Ni4   S    
C33   C35   A    
C6    C36   A    
N1    N7    A    
C16   H14   S    
C10   C11   A    
N11   N12   A    
C7    C13   S    
C20   C21   A    
C14   C15   A    
C2    N13   A    
N2    N4    A    
N6    Ni4   S    
C21   C22   A    
N8    Ni1   S    
N13   Ni1   S    
C14   H3    S    
