data_mof_unit_31240.cif
_audit_creation_date              2012-12-10T18:58:15-0500
_audit_creation_method            fapswitch 2.2
_symmetry_space_group_name_H-M    P1
_symmetry_Int_Tables_number       1
_space_group_crystal_system       triclinic
_cell_length_a                    11.005722
_cell_length_b                    10.804402
_cell_length_c                    9.571938
_cell_angle_alpha                 91.148869
_cell_angle_beta                  101.737467
_cell_angle_gamma                 90.475362
_cell_volume                      1114.08862808

loop_
_atom_site_label
_atom_site_type_symbol
_atom_type_description
_atom_site_fract_x
_atom_site_fract_y
_atom_site_fract_z
_atom_type_partial_charge
C1    C     C_R   0.498467 0.262753 0.498134 0.804616
C2    C     C_R   0.501908 0.129995 0.493302 -0.094075
C3    C     C_R   0.422565 0.061731 0.385015 -0.182031
C4    C     C_R   0.422580 0.932207 0.387837 -0.168060
C5    C     C_R   0.502524 0.871299 0.498267 -0.090155
C6    C     C_R   0.594776 0.940908 0.588275 -0.002421
C7    C     C_3   0.645222 0.939409 0.745548 0.149438
C8    C     C_3   0.639692 0.080933 0.744619 0.281522
C9    C     C_R   0.547912 0.598402 0.086941 0.177981
C10   C     C_R   0.441093 0.409121 0.058550 -0.056249
C11   C     C_R   0.440843 0.409253 0.909808 -0.001167
C12   C     C_R   0.262468 0.495136 0.442920 0.763379
C13   C     C_R   0.548667 0.597976 0.939823 0.102600
C14   C     C_3   0.678609 0.646295 0.963871 -0.561643
C15   C     C_3   0.678032 0.648334 0.122320 0.709785
C16   C     C_R   0.501068 0.737657 0.500861 0.798625
C17   C     C_R   0.737053 0.496351 0.557177 0.882441
C18   C     C_2   0.125805 0.484164 0.412951 0.199669
C19   C     C_2   0.066960 0.442137 0.514107 0.387019
C20   C     C_2   0.871674 0.485413 0.588483 -0.364772
C21   C     C_2   0.930670 0.444888 0.487577 -0.177472
C22   C     C_R   0.592762 0.068050 0.587060 -0.045237
Cu1   Cu    Cu3+1 0.499990 0.499980 0.640670 0.987032
Cu2   Cu    Cu3+1 0.500010 0.500020 0.359330 0.999170
H1    H     H_    0.395286 0.334269 0.101651 0.136148
H2    H     H_    0.922721 0.510311 0.695009 0.170326
H3    H     H_    0.356692 0.108071 0.303726 0.146599
H4    H     H_    0.356863 0.880127 0.308071 0.148994
H5    H     H_    0.570278 0.120148 0.802368 0.096165
N1    N     N_R   0.500780 0.500930 0.148120 -0.179080
N2    N     N_R   0.500790 0.500890 0.852210 -0.161027
O1    O     O_R   0.500000 0.319640 0.618810 -0.583966
O2    O     O_R   0.500010 0.319680 0.381230 -0.586688
O3    O     O_R   0.320680 0.500000 0.575130 -0.525366
O4    O     O_R   0.320690 0.500040 0.337550 -0.605922
O5    O     O_R   0.499990 0.680320 0.618770 -0.594518
O6    O     O_R   0.500000 0.680360 0.381190 -0.561609
O7    O     O_R   0.679310 0.499960 0.662450 -0.580834
O8    O     O_R   0.679320 0.500000 0.424870 -0.512636
H6    H     H_    0.879184 0.419559 0.381581 0.237368
O9    O     O_3   0.756301 0.141117 0.782366 -0.655518
H7    H     H_    0.806623 0.119251 0.710440 0.360164
H8    H     H_    0.394591 0.334559 0.842015 0.148920
H9    H     H_    0.743885 0.578479 0.931841 0.228989
H10   H     H_    0.684419 0.739429 0.922108 0.196809
O10   O     O_3   0.762794 0.565540 0.196915 -0.679723
H11   H     H_    0.845154 0.606528 0.207821 0.376301
O11   O     O_3   0.688255 0.767309 0.187277 -0.702547
H12   H     H_    0.622097 0.819847 0.132980 0.299499
O12   O     O_3   0.133850 0.399305 0.642209 -0.744405
H13   H     H_    0.075721 0.359284 0.694597 0.332335
O13   O     O_3   0.056504 0.517521 0.282037 -0.770645
H14   H     H_    0.112463 0.553119 0.223905 0.339351
H15   H     H_    0.581643 0.895886 0.807313 0.075774
O14   O     O_3   0.767501 0.895984 0.776663 -0.674644
H16   H     H_    0.765012 0.810791 0.735254 0.325387

loop_
_geom_bond_atom_site_label_1
_geom_bond_atom_site_label_2
_ccdc_geom_bond_type
C2    C22   A    
C8    C22   S    
O14   H16   S    
C11   H8    S    
C6    C7    S    
Cu1   O5    S    
Cu1   O7    S    
O9    H7    S    
C10   N1    A    
Cu2   O2    S    
C15   O10   S    
C7    O14   S    
C16   O6    A    
Cu1   Cu2   S    
Cu1   O3    S    
Cu1   O1    S    
C17   C20   S    
C3    H3    S    
Cu2   O6    S    
C9    C15   S    
C11   N2    A    
C7    C8    S    
O12   H13   S    
C13   C14   S    
C8    O9    S    
C12   O4    A    
C19   O12   S    
C21   H6    S    
C20   H2    S    
C9    N1    A    
C8    H5    S    
C15   O11   S    
C10   H1    S    
O11   H12   S    
C19   C21   S    
C18   C19   D    
C14   H10   S    
C2    C3    A    
C17   O7    A    
C5    C6    A    
Cu2   N1    S    
Cu2   O4    S    
C10   C11   A    
C1    O2    A    
C18   O13   S    
C3    C4    A    
C6    C22   A    
Cu2   O8    S    
C20   C21   D    
C14   H9    S    
C1    C2    S    
C17   O8    A    
C12   C18   S    
C9    C13   A    
C14   C15   S    
C5    C16   S    
C7    H15   S    
C4    H4    S    
O10   H11   S    
C12   O3    A    
C13   N2    A    
C1    O1    A    
C16   O5    A    
O13   H14   S    
C4    C5    A    
Cu1   N2    S    
