data_mof_unit_26895.cif
_audit_creation_date              2013-03-05T16:10:29-0500
_audit_creation_method            fapswitch 2.2
_symmetry_space_group_name_H-M    P1
_symmetry_Int_Tables_number       1
_space_group_crystal_system       triclinic
_cell_length_a                    10.661598
_cell_length_b                    9.832906
_cell_length_c                    14.969034
_cell_angle_alpha                 89.692355
_cell_angle_beta                  90.199779
_cell_angle_gamma                 90.302107
_cell_volume                      1569.21723832

loop_
_atom_site_label
_atom_site_type_symbol
_atom_site_description
_atom_site_fract_x
_atom_site_fract_y
_atom_site_fract_z
_atom_type_partial_charge
O1    O     O_R   0.316770 0.614620 0.499990 -0.603252
O2    O     O_R   0.683230 0.385380 0.500010 -0.603226
O3    O     O_R   0.683230 0.614620 0.500010 -0.598101
O4    O     O_R   0.316770 0.385380 0.499990 -0.599424
C1    C     C_R   0.260287 0.499599 0.499483 1.028149
C2    C     C_R   0.739706 0.500397 0.500543 1.032624
O5    O     O_R   0.499980 0.614680 0.367850 -0.609919
O6    O     O_R   0.500020 0.385320 0.632150 -0.610154
O7    O     O_R   0.500020 0.614680 0.632150 -0.647192
O8    O     O_R   0.499980 0.385320 0.367850 -0.644777
C3    C     C_R   0.499598 0.500400 0.326663 0.968364
C4    C     C_R   0.500035 0.499675 0.673308 0.968465
Zn1   Zn    Zn3+2 0.500000 0.653120 0.500000 1.029224
Zn2   Zn    Zn3+2 0.500000 0.346880 0.500000 1.028780
C5    C     C_R   0.550038 0.610530 0.814145 -0.196051
C6    C     C_R   0.441457 0.392116 0.186093 -0.207607
C7    C     C_R   0.499461 0.499420 0.768976 -0.047294
C8    C     C_R   0.495432 0.501754 0.230959 -0.031848
C9    C     C_R   0.446422 0.389749 0.814701 -0.150896
C10   C     C_R   0.544005 0.613438 0.184978 -0.147084
C11   C     C_R   0.441255 0.391400 0.907061 0.071826
C12   C     C_R   0.543078 0.614477 0.092717 0.084857
C13   C     C_R   0.491891 0.503513 0.953470 0.019803
C14   C     C_R   0.489411 0.503577 0.046371 0.033564
C15   C     C_R   0.546925 0.614434 0.906779 0.087417
C16   C     C_R   0.435058 0.392253 0.093177 0.050750
C17   C     C_R   0.384798 0.283138 0.952879 -0.217196
C18   C     C_R   0.597049 0.723952 0.046650 -0.251340
C19   C     C_R   0.378412 0.282845 0.046501 0.210294
C20   C     C_R   0.599157 0.725317 0.953619 0.204061
H1    H     H_    0.592830 0.692918 0.776525 0.188361
H2    H     H_    0.405149 0.307168 0.224535 0.161534
H3    H     H_    0.407006 0.304463 0.778213 0.185680
H4    H     H_    0.585607 0.697887 0.221107 0.186277
H5    H     H_    0.344357 0.200654 0.914632 0.169881
H6    H     H_    0.638250 0.808378 0.082933 0.168382
C21   C     C_R   0.065151 0.423890 0.565192 0.220289
C22   C     C_R   0.934825 0.576177 0.434817 0.218390
C23   C     C_R   0.935526 0.425820 0.566971 0.205311
C24   C     C_R   0.064465 0.574271 0.433088 0.205341
C25   C     C_R   0.872108 0.501590 0.501322 -0.363588
C26   C     C_R   0.127873 0.498386 0.498673 -0.364079
C27   C     C_R   0.571787 0.071910 0.559769 -0.029997
C28   C     C_R   0.428134 0.928088 0.440286 -0.025992
C29   C     C_R   0.428103 0.072046 0.440302 -0.026282
C30   C     C_R   0.571800 0.927952 0.559764 -0.032254
H7    H     H_    0.629135 0.126459 0.607534 0.171954
H8    H     H_    0.370728 0.873530 0.392566 0.173470
H9    H     H_    0.370625 0.126703 0.392604 0.139279
H10   H     H_    0.629179 0.873302 0.607529 0.143914
N1    N     N_R   0.500000 0.857200 0.500000 -0.097133
N2    N     N_R   0.500000 0.142800 0.500000 -0.096390
N3    N     N_2   0.314018 0.177012 0.094690 -0.312459
H11   H     H_    0.252771 0.211619 0.142546 0.243537
C31   C     C_3   0.268543 0.057280 0.048633 -0.720718
H12   H     H_    0.231099 0.983221 0.098194 0.262634
H13   H     H_    0.346065 0.007272 0.012419 0.237578
H14   H     H_    0.191684 0.084854 0.001735 0.251046
N4    N     N_2   0.658634 0.835271 0.907781 -0.301317
H15   H     H_    0.737404 0.872052 0.940012 0.253016
C32   C     C_3   0.574915 0.943512 0.881108 -0.781650
H16   H     H_    0.625584 0.015846 0.836705 0.262158
H17   H     H_    0.542437 0.999529 0.940834 0.240814
H18   H     H_    0.492730 0.902522 0.843941 0.248967
N5    N     N_R   0.133294 0.356302 0.635047 0.242918
O9    O     O_R   0.182851 0.426759 0.699565 -0.409954
O10   O     O_R   0.155871 0.226741 0.629651 -0.329352
N6    N     N_R   0.866675 0.644138 0.365088 0.243232
O11   O     O_R   0.811792 0.573518 0.302835 -0.412953
O12   O     O_R   0.848099 0.774589 0.369254 -0.324732
N7    N     N_R   0.868907 0.357603 0.637729 0.232707
O13   O     O_R   0.890082 0.230075 0.655372 -0.332910
O14   O     O_R   0.790272 0.424365 0.686959 -0.419342
N8    N     N_R   0.131136 0.642230 0.362281 0.232518
O15   O     O_R   0.111888 0.770430 0.345638 -0.335477
O16   O     O_R   0.208630 0.574891 0.312482 -0.425431

loop_
_geom_bond_atom_site_label_1
_geom_bond_atom_site_label_2
_geom_bond_distance
_ccdc_geom_bond_type
C1    C26   1.411738 S    
C3    C8    1.433118 S    
C17   C19   1.403300 A    
C31   H12   1.110511 S    
O3    C2    1.277130 A    
C23   C25   1.403841 A    
N3    H11   1.031310 S    
O5    C3    1.284609 A    
N8    O16   1.300807 A    
O1    C1    1.278567 A    
C9    C11   1.384006 A    
C14   C16   1.418748 A    
C27   N2    1.366124 A    
C5    C15   1.387887 A    
C21   C26   1.402448 A    
C32   H17   1.109976 S    
O7    Zn1   2.011949 S    
Zn1   N1    2.006699 S    
Zn2   N2    2.006699 S    
N6    O11   1.300713 A    
N5    O10   1.300744 A    
C2    C25   1.411615 S    
C21   N5    1.433607 S    
C4    C7    1.432082 S    
C13   C14   1.390976 A    
O3    Zn1   1.991824 S    
C10   H4    1.085359 S    
C24   C26   1.403724 A    
C11   C17   1.397937 A    
N4    H15   1.031847 S    
C12   C18   1.397728 A    
O2    C2    1.278498 A    
O7    C4    1.284866 A    
N3    C31   1.448037 S    
C6    C16   1.392294 A    
N4    C32   1.446326 S    
N8    O15   1.300862 A    
C22   C25   1.402742 A    
O8    Zn2   2.011950 S    
N7    O14   1.300839 A    
C29   N2    1.366170 A    
C17   H5    1.082154 S    
C30   N1    1.366236 A    
C32   H18   1.111324 S    
C29   H9    1.081880 S    
O6    C4    1.285063 A    
C20   N4    1.424671 S    
C28   N1    1.366045 A    
N6    O12   1.300803 A    
C10   C12   1.381036 A    
C31   H13   1.108627 S    
C9    H3    1.085262 S    
C12   C14   1.413005 A    
O1    Zn1   1.987907 S    
C28   C29   1.415527 A    
C15   C20   1.410526 A    
C5    C7    1.393104 A    
O6    Zn2   2.015935 S    
C22   N6    1.433979 S    
O4    C1    1.277132 A    
C5    H1    1.083767 S    
C6    H2    1.082437 S    
C30   H10   1.081898 S    
C11   C13   1.410198 A    
N7    O13   1.300840 A    
C21   C23   1.382596 A    
C22   C24   1.382733 A    
C19   N3    1.436133 S    
C18   C20   1.392835 A    
C7    C9    1.392665 A    
C24   N8    1.438002 S    
C8    C10   1.391506 A    
C13   C15   1.417839 A    
O4    Zn2   1.991826 S    
C32   H16   1.110345 S    
O2    Zn2   1.987905 S    
C27   C30   1.415525 A    
O8    C3    1.285736 A    
O5    Zn1   2.015937 S    
C18   H6    1.084637 S    
C16   C19   1.417235 A    
C6    C8    1.393896 A    
N5    O9    1.300615 A    
C31   H14   1.110909 S    
C23   N7    1.438352 S    
C27   H7    1.081825 S    
C28   H8    1.081782 S    
