data_mof_unit_38353.cif
_audit_creation_date              2012-12-10T17:42:43-0500
_audit_creation_method            fapswitch 2.2
_symmetry_space_group_name_H-M    P1
_symmetry_Int_Tables_number       1
_space_group_crystal_system       triclinic
_cell_length_a                    10.011751
_cell_length_b                    10.622797
_cell_length_c                    13.18224
_cell_angle_alpha                 94.411964
_cell_angle_beta                  70.07496
_cell_angle_gamma                 91.061037
_cell_volume                      1314.09522258

loop_
_atom_site_label
_atom_site_type_symbol
_atom_type_description
_atom_site_fract_x
_atom_site_fract_y
_atom_site_fract_z
_atom_type_partial_charge
C1    C     C_R   0.500051 0.739379 0.502561 1.072199
C2    C     C_R   0.371847 0.503902 0.821528 -0.185287
C3    C     C_R   0.356153 0.890040 0.705539 0.678847
C4    C     C_R   0.420697 0.495312 0.703439 1.060977
C5    C     C_R   0.279245 0.965291 0.797833 -0.074945
C6    C     C_R   0.267264 0.094541 0.792995 -0.201641
C7    C     C_R   0.335262 0.149656 0.696421 -0.075488
C8    C     C_R   0.416161 0.075433 0.602509 0.036485
C9    C     C_R   0.423284 0.944110 0.605763 -0.112814
C10   C     C_R   0.500427 0.872616 0.509016 -0.228817
C11   C     C_R   0.576269 0.928515 0.414210 0.638250
C12   C     C_R   0.460457 0.545236 0.971372 -0.151285
C13   C     C_R   0.574183 0.057188 0.413043 -0.195965
C14   C     C_R   0.493714 0.129065 0.505515 -0.124181
C15   C     C_R   0.801642 0.663220 0.657770 0.521861
C16   C     C_R   0.498931 0.260941 0.499883 0.915423
C17   C     C_R   0.841749 0.730687 0.738522 0.248582
C18   C     C_R   0.980990 0.724848 0.735240 0.470265
C19   C     C_R   0.079301 0.652317 0.653333 -0.296346
C20   C     C_R   0.041123 0.575603 0.576475 -0.079684
C21   C     C_R   0.897004 0.577807 0.577189 -0.142866
C22   C     C_R   0.956980 0.428030 0.426644 0.615781
C23   C     C_R   0.468232 0.475297 0.873665 -0.125073
C24   C     C_R   0.099792 0.425155 0.425634 0.352955
C25   C     C_R   0.579501 0.503758 0.296712 0.947684
C26   C     C_R   0.785360 0.415954 0.007908 -0.126178
C27   C     C_R   0.630003 0.506002 0.179602 -0.205590
C28   C     C_R   0.250721 0.577192 0.877246 -0.315279
C29   C     C_R   0.243276 0.647489 0.972058 0.615541
C30   C     C_R   0.353558 0.640642 0.013384 0.694347
C31   C     C_R   0.561642 0.517983 0.020714 0.019212
C32   C     C_R   0.681804 0.440407 0.962340 -0.029543
C33   C     C_R   0.688786 0.375439 0.865131 -0.248920
C34   C     C_R   0.577486 0.384061 0.826336 0.664223
C35   C     C_R   0.537212 0.549278 0.130863 0.725256
C36   C     C_R   0.759380 0.448784 0.116879 -0.194092
F1    F     F_    0.369483 0.766016 0.716412 -0.676276
F2    F     F_    0.917536 0.359002 0.350675 -0.599577
F3    F     F_    0.673832 0.693763 0.656650 -0.570662
F4    F     F_    0.023656 0.793989 0.809425 -0.593717
F5    F     F_    0.412621 0.602967 0.195951 -0.571680
F6    F     F_    0.364646 0.738584 0.082370 -0.545558
F7    F     F_    0.137832 0.734354 0.016386 -0.565720
F8    F     F_    0.576098 0.300845 0.743168 -0.676335
F9    F     F_    0.650733 0.857799 0.322493 -0.611104
H1    H     H_    0.833333 0.417966 0.153911 0.230590
H2    H     H_    0.497806 0.879069 0.896978 0.388968
H3    H     H_    0.418470 0.234015 0.246422 0.370458
H4    H     H_    0.229325 0.923149 0.873735 0.238735
H5    H     H_    0.206952 0.152571 0.864640 0.188570
H6    H     H_    0.324853 0.250535 0.696471 0.142754
H7    H     H_    0.633741 0.101115 0.339568 0.192206
H8    H     H_    0.185808 0.659389 0.651354 0.276346
H9    H     H_    0.774581 0.309034 0.823928 0.191677
H10   H     H_    0.879660 0.360828 0.962248 0.167260
H11   H     H_    0.172911 0.595299 0.839759 0.238200
N1    N     N_R   0.856860 0.501200 0.500990 -0.150401
N2    N     N_R   0.142450 0.501280 0.501020 -0.155962
O1    O     O_R   0.385310 0.683220 0.500000 -0.628129
O2    O     O_2   0.764153 0.966038 0.819800 -0.245658
O3    O     O_3   0.553157 0.811906 0.843758 -0.491780
O4    O     O_2   0.130896 0.205670 0.305588 -0.203462
O5    O     O_2   0.239883 0.390778 0.214086 -0.271377
O6    O     O_3   0.368383 0.275182 0.319342 -0.543467
O7    O     O_R   0.614640 0.683250 0.500010 -0.518637
O8    O     O_R   0.328400 0.499950 0.653610 -0.677251
O9    O     O_R   0.557730 0.499970 0.653620 -0.519830
O10   O     O_R   0.385360 0.316750 0.499990 -0.581596
O11   O     O_R   0.614690 0.316780 0.500000 -0.556807
O12   O     O_R   0.442270 0.500030 0.346380 -0.503602
O13   O     O_R   0.671600 0.500050 0.346390 -0.585081
O14   O     O_2   0.729372 0.804372 0.948872 -0.195067
S1    S     S_3+6 0.721259 0.831557 0.840873 0.139187
S2    S     S_3+6 0.212349 0.323657 0.315449 0.121688
Zn1   Zn    Zn3+2 0.346880 0.499980 0.499990 1.055418
Zn2   Zn    Zn3+2 0.653120 0.500020 0.500010 1.132788

loop_
_geom_bond_atom_site_label_1
_geom_bond_atom_site_label_2
_ccdc_geom_bond_type
C26   C32   A    
C19   C20   A    
C26   H10   S    
C22   N1    A    
C28   H11   S    
C7    C8    A    
O10   Zn1   S    
C12   C23   A    
O7    Zn2   S    
N1    Zn2   S    
C28   C29   A    
C1    O1    A    
C5    C6    A    
H3    O6    S    
C22   F2    S    
O2    S1    D    
O11   Zn2   S    
C18   C19   A    
C18   F4    S    
C8    C9    A    
C1    O7    A    
C36   H1    S    
C25   O13   A    
C14   C16   S    
C9    C10   A    
C19   H8    S    
C13   C14   A    
C29   F7    S    
C17   S1    S    
C5    H4    S    
N2    Zn1   S    
C33   C34   A    
C1    C10   S    
C34   F8    S    
C27   C35   A    
C2    C4    S    
C21   N1    A    
C29   C30   A    
C3    C9    A    
C13   H7    S    
C31   C32   A    
C23   C34   A    
C17   C18   A    
C6    H5    S    
C15   F3    S    
C16   O10   A    
C26   C36   A    
C12   C31   A    
C31   C35   A    
C11   F9    S    
C20   N2    A    
O1    Zn1   S    
O12   Zn1   S    
C33   H9    S    
C15   C17   A    
C8    C14   A    
C12   C30   A    
O4    S2    D    
C16   O11   A    
O14   S1    D    
C3    C5    A    
H2    O3    S    
C4    O9    A    
C6    C7    A    
C25   O12   A    
O5    S2    D    
C27   C36   A    
C25   C27   S    
O3    S1    S    
C32   C33   A    
C7    H6    S    
C4    O8    A    
C11   C13   A    
C24   S2    S    
O13   Zn2   S    
O8    Zn1   S    
C22   C24   A    
C35   F5    S    
C10   C11   A    
C15   C21   A    
C20   C21   A    
C3    F1    S    
C24   N2    A    
C2    C23   A    
O6    S2    S    
C30   F6    S    
C2    C28   A    
O9    Zn2   S    
