data_mof_unit_12351.cif
_audit_creation_date              2012-12-10T20:43:24-0500
_audit_creation_method            fapswitch 2.2
_symmetry_space_group_name_H-M    P1
_symmetry_Int_Tables_number       1
_space_group_crystal_system       triclinic
_cell_length_a                    15.820013
_cell_length_b                    10.669783
_cell_length_c                    9.85087
_cell_angle_alpha                 90.117418
_cell_angle_beta                  90.202328
_cell_angle_gamma                 90.175271
_cell_volume                      1662.76681835

loop_
_atom_site_label
_atom_site_type_symbol
_atom_type_description
_atom_site_fract_x
_atom_site_fract_y
_atom_site_fract_z
_atom_type_partial_charge
C1    C     C_R   0.499757 0.259608 0.499627 0.888932
C2    C     C_R   0.483663 0.934296 0.372333 -0.185356
C3    C     C_R   0.475326 0.870422 0.496405 -0.143351
C4    C     C_R   0.339301 0.499989 0.499847 0.899156
C5    C     C_R   0.451978 0.937486 0.612501 0.024945
C6    C     C_3   0.472883 0.926486 0.761625 0.246877
C7    C     C_3   0.496914 0.065371 0.756934 -0.218530
C8    C     C_R   0.460968 0.405685 0.070793 0.221184
C9    C     C_R   0.545714 0.585749 0.072487 -0.118964
C10   C     C_R   0.546056 0.585366 0.928391 -0.155083
C11   C     C_R   0.461167 0.405440 0.928187 0.222770
C12   C     C_R   0.044029 0.594339 0.564731 -0.183190
C13   C     C_3   0.369903 0.370780 0.921602 -0.520261
C14   C     C_3   0.369588 0.371656 0.075812 -0.507746
C15   C     C_R   0.493532 0.739709 0.499868 0.865995
C16   C     C_R   0.660707 0.500123 0.500321 0.911439
C17   C     C_R   0.956471 0.593500 0.565315 -0.253494
C18   C     C_R   0.913046 0.492085 0.508218 0.043333
C19   C     C_R   0.956237 0.389100 0.453126 0.503119
C20   C     C_R   0.044047 0.392239 0.449618 -0.268492
C21   C     C_R   0.087100 0.494289 0.505857 0.102929
C22   C     C_1   0.588802 0.086847 0.766537 0.142460
C23   C     C_1   0.824080 0.495585 0.504313 -0.018612
C24   C     C_3   0.887842 0.202917 0.491590 0.087163
C25   C     C_3   0.953475 0.098254 0.504606 -0.363209
C26   C     C_3   0.922897 0.994561 0.599167 -0.939083
C27   C     C_3   0.364663 0.792970 0.835636 0.122938
C28   C     C_3   0.273081 0.800433 0.884147 -0.336019
C29   C     C_3   0.231131 0.671837 0.890009 -0.971020
C30   C     C_1   0.175936 0.496743 0.502286 -0.044041
C31   C     C_1   0.250842 0.498547 0.500150 -0.202176
C32   C     C_1   0.749180 0.498099 0.501582 -0.177418
C33   C     C_R   0.465587 0.063684 0.613764 0.038445
C34   C     C_R   0.488254 0.127695 0.496710 -0.097789
C35   C     C_R   0.489175 0.063467 0.372444 -0.215656
H1    H     H_    0.078038 0.673151 0.608356 0.152445
H2    H     H_    0.500479 0.111105 0.277146 0.173038
H3    H     H_    0.493621 0.885406 0.277234 0.173552
H4    H     H_    0.525205 0.861472 0.788679 0.095194
H5    H     H_    0.459546 0.126792 0.824793 0.177947
H6    H     H_    0.827057 0.161020 0.457060 0.177729
H7    H     H_    0.875258 0.245665 0.593136 0.128040
H8    H     H_    0.966089 0.057481 0.402769 0.239005
H9    H     H_    0.013533 0.137502 0.545425 0.213016
H10   H     H_    0.910715 0.032949 0.702139 0.271693
H11   H     H_    0.972088 0.920879 0.607140 0.259782
H12   H     H_    0.581063 0.656655 0.127271 0.150486
H13   H     H_    0.863992 0.951233 0.558801 0.265518
H14   H     H_    0.400882 0.729352 0.903112 0.156565
H15   H     H_    0.364030 0.755054 0.730376 0.157028
H16   H     H_    0.271244 0.843607 0.986923 0.236183
H17   H     H_    0.236622 0.861111 0.813579 0.224166
H18   H     H_    0.236639 0.622904 0.790811 0.270602
H19   H     H_    0.163054 0.682790 0.914205 0.271487
H20   H     H_    0.260872 0.614995 0.971210 0.265601
H21   H     H_    0.581753 0.655832 0.874329 0.147108
H22   H     H_    0.330644 0.445187 0.875219 0.226103
H23   H     H_    0.359236 0.276142 0.877804 0.207753
H24   H     H_    0.329976 0.447328 0.119755 0.220569
H25   H     H_    0.359379 0.277282 0.120562 0.208401
H26   H     H_    0.922659 0.672130 0.608656 0.165422
H27   H     H_    0.078404 0.315664 0.403162 0.154960
N1    N     N_R   0.499440 0.499140 0.142800 -0.109016
N2    N     N_R   0.499440 0.499180 0.857150 -0.112708
N3    N     N_1   0.660955 0.103852 0.773929 -0.208014
O1    O     O_R   0.500010 0.316790 0.614690 -0.611578
O2    O     O_3   0.399602 0.914499 0.842727 -0.643558
O3    O     O_R   0.500000 0.316760 0.385350 -0.624073
O4    O     O_R   0.378030 0.499990 0.614640 -0.630281
O5    O     O_R   0.378020 0.499950 0.385300 -0.612077
O6    O     O_R   0.500000 0.683240 0.614650 -0.653965
O7    O     O_R   0.499990 0.683210 0.385310 -0.620229
O8    O     O_R   0.621980 0.500050 0.614700 -0.605431
O9    O     O_R   0.621970 0.500010 0.385360 -0.604758
O10   O     O_3   0.913272 0.290746 0.392030 -0.643964
Zn1   Zn    Zn3+2 0.500010 0.500020 0.653130 0.936278
Zn2   Zn    Zn3+2 0.499990 0.499980 0.346870 0.951784

loop_
_geom_bond_atom_site_label_1
_geom_bond_atom_site_label_2
_ccdc_geom_bond_type
C2    C35   A    
C24   H7    S    
C19   C20   A    
C25   H8    S    
C4    O5    A    
C14   H24   S    
C16   O9    A    
C28   C29   S    
C35   H2    S    
C34   C35   A    
O6    Zn1   S    
C28   H16   S    
C13   H22   S    
C29   H19   S    
C11   C13   S    
C1    O3    A    
O4    Zn1   S    
C18   C19   A    
C26   H10   S    
C17   H26   S    
O9    Zn2   S    
C5    C33   A    
C12   C17   A    
C7    H5    S    
C12   H1    S    
C10   H21   S    
C9    C10   A    
C27   H15   S    
C26   H13   S    
C13   C14   S    
O5    Zn2   S    
C24   H6    S    
C7    C33   S    
C25   H9    S    
C4    O4    A    
C1    C34   S    
C17   C18   A    
O3    Zn2   S    
C16   O8    A    
C24   C25   S    
C11   N2    A    
C13   H23   S    
C29   H20   S    
C25   C26   S    
C12   C21   A    
C18   C23   S    
C1    O1    A    
C22   N3    T    
O7    Zn2   S    
C15   O7    A    
C2    H3    S    
C30   C31   T    
O1    Zn1   S    
C33   C34   A    
N2    Zn1   S    
C6    O2    S    
C9    H12   S    
O8    Zn1   S    
C3    C15   S    
N1    Zn2   S    
C14   H25   S    
C8    C14   S    
C9    N1    A    
C10   N2    A    
C3    C5    A    
C24   O10   S    
C6    C7    S    
C16   C32   S    
C7    C22   S    
C15   O6    A    
C21   C30   S    
C23   C32   T    
C19   O10   S    
C2    C3    A    
C28   H17   S    
C5    C6    S    
C29   H18   S    
C8    C11   A    
C20   H27   S    
C4    C31   S    
C27   O2    S    
C26   H11   S    
C8    N1    A    
C20   C21   A    
C27   C28   S    
C6    H4    S    
C27   H14   S    
