data_mof_unit_23013.cif
_audit_creation_date              2012-12-10T20:03:55-0500
_audit_creation_method            fapswitch 2.2
_symmetry_space_group_name_H-M    P1
_symmetry_Int_Tables_number       1
_space_group_crystal_system       triclinic
_cell_length_a                    19.25778
_cell_length_b                    18.426434
_cell_length_c                    10.640138
_cell_angle_alpha                 91.200109
_cell_angle_beta                  90.623787
_cell_angle_gamma                 90.098622
_cell_volume                      3774.61739922

loop_
_atom_site_label
_atom_site_type_symbol
_atom_type_description
_atom_site_fract_x
_atom_site_fract_y
_atom_site_fract_z
_atom_type_partial_charge
C1    C     C_R   0.365547 0.500210 0.502746 0.871561
C2    C     C_R   0.634365 0.500282 0.494246 0.853842
C3    C     C_R   0.709197 0.500719 0.474864 -0.073810
C4    C     C_R   0.289966 0.501116 0.502723 -0.093877
C5    C     C_R   0.966626 0.495932 0.340932 -0.166408
C6    C     C_R   0.038586 0.498801 0.349207 -0.195968
C7    C     C_R   0.071056 0.499770 0.467582 0.123064
C8    C     C_R   0.927803 0.493990 0.451164 0.119956
C9    C     C_R   0.032146 0.496228 0.577351 -0.164474
C10   C     C_R   0.960492 0.493563 0.569147 -0.199325
C11   C     C_R   0.531853 0.726235 0.596376 -0.003154
C12   C     C_R   0.467561 0.725157 0.405865 -0.015524
C13   C     C_R   0.532703 0.802652 0.601646 -0.087573
C14   C     C_R   0.466136 0.801478 0.404991 -0.094502
C15   C     C_R   0.499386 0.841571 0.504109 -0.012901
C16   C     C_R   0.532565 0.960570 0.408380 -0.173468
C17   C     C_R   0.467185 0.962978 0.601123 -0.173770
C18   C     C_R   0.533142 0.036698 0.408647 -0.189347
C19   C     C_R   0.467216 0.039180 0.600855 -0.193625
C20   C     C_R   0.500280 0.077130 0.504638 0.118489
C21   C     C_R   0.503036 0.498969 0.262062 0.944293
C22   C     C_R   0.505862 0.500779 0.737734 0.946130
C23   C     C_R   0.499715 0.922887 0.504694 0.122194
C24   C     C_R   0.560206 0.197321 0.472098 -0.302284
C25   C     C_R   0.440375 0.198129 0.534871 -0.286120
C26   C     C_R   0.559139 0.273433 0.472435 0.020352
C27   C     C_R   0.441281 0.274220 0.531915 0.026897
C28   C     C_R   0.500269 0.158399 0.503825 0.128252
C29   C     C_2   0.548592 0.447459 0.932297 -0.010259
C30   C     C_2   0.554728 0.455536 0.068475 -0.018234
C31   C     C_2   0.524018 0.504183 0.868197 -0.441388
C32   C     C_2   0.506020 0.494920 0.129127 -0.409776
C33   C     C_R   0.746102 0.437995 0.505088 -0.206450
C34   C     C_R   0.254989 0.442079 0.446472 -0.222182
C35   C     C_R   0.817185 0.435550 0.491897 -0.214376
C36   C     C_R   0.183611 0.443136 0.433652 -0.199761
C37   C     C_R   0.852580 0.495221 0.445925 0.042332
C38   C     C_R   0.146127 0.502959 0.477495 0.043658
C39   C     C_R   0.816641 0.557846 0.408880 -0.031520
C40   C     C_R   0.179871 0.562789 0.536139 -0.031209
C41   C     C_R   0.744231 0.561466 0.424591 -0.062281
C42   C     C_R   0.252543 0.561827 0.550238 -0.062914
H1    H     H_    0.558457 0.064006 0.332497 0.129891
H2    H     H_    0.442063 0.068497 0.676894 0.127378
H3    H     H_    0.608066 0.169248 0.450313 0.125075
H4    H     H_    0.392863 0.170605 0.559459 0.129588
H5    H     H_    0.518480 0.557207 0.913819 0.149185
H6    H     H_    0.463135 0.520606 0.080240 0.133819
H7    H     H_    0.720095 0.390971 0.541737 0.149251
H8    H     H_    0.283083 0.395570 0.409464 0.155964
H9    H     H_    0.845080 0.387409 0.520129 0.138682
H10   H     H_    0.157305 0.396937 0.389881 0.141308
H11   H     H_    0.941200 0.495905 0.249607 0.126037
H12   H     H_    0.068915 0.501009 0.264211 0.131326
N1    N     N_R   0.500000 0.689440 0.500000 -0.090400
N2    N     N_R   0.500000 0.310560 0.500000 -0.086327
O1    O     O_R   0.398180 0.560840 0.499970 -0.602307
O2    O     O_R   0.601820 0.560840 0.500030 -0.613380
O3    O     O_R   0.398180 0.439210 0.499910 -0.636449
O4    O     O_R   0.601820 0.439210 0.500090 -0.630414
O5    O     O_R   0.500000 0.560800 0.319070 -0.626830
O6    O     O_R   0.500000 0.560800 0.680930 -0.626409
O7    O     O_R   0.499990 0.439170 0.319010 -0.612242
O8    O     O_R   0.500010 0.439170 0.680990 -0.597045
Zn1   Zn    Zn3+2 0.500000 0.581210 0.500000 0.951500
Zn2   Zn    Zn3+2 0.500000 0.418790 0.500000 0.943854
C43   C     C_R   0.568704 0.376928 0.873333 0.197912
C44   C     C_R   0.629259 0.371447 0.801468 -0.101798
C45   C     C_R   0.650054 0.304001 0.752492 -0.155608
C46   C     C_R   0.610363 0.241997 0.774165 -0.097356
C47   C     C_R   0.549753 0.247270 0.844735 -0.136825
C48   C     C_R   0.529172 0.314428 0.895058 -0.158801
H13   H     H_    0.660650 0.419089 0.785032 0.106596
H14   H     H_    0.697074 0.299599 0.698179 0.111245
H15   H     H_    0.626493 0.189885 0.735983 0.126022
H16   H     H_    0.518979 0.199236 0.861090 0.127993
H17   H     H_    0.482645 0.317811 0.951136 0.121787
C49   C     C_R   0.615696 0.421708 0.130676 0.143202
C50   C     C_R   0.610255 0.352994 0.184265 -0.089731
C51   C     C_R   0.669875 0.317351 0.226823 -0.178482
C52   C     C_R   0.734926 0.350398 0.217968 -0.091099
C53   C     C_R   0.740827 0.418290 0.163172 -0.114096
C54   C     C_R   0.681669 0.453049 0.117117 -0.207155
H18   H     H_    0.560318 0.326175 0.189440 0.132932
H19   H     H_    0.665805 0.263742 0.265696 0.115662
H20   H     H_    0.780854 0.322981 0.252035 0.119170
H21   H     H_    0.791368 0.443346 0.154230 0.121016
H22   H     H_    0.687416 0.503763 0.068645 0.120963
C55   C     C_R   0.569795 0.839361 0.708579 0.118923
C56   C     C_R   0.555964 0.819351 0.832749 -0.192254
C57   C     C_R   0.591303 0.852895 0.933772 -0.127062
C58   C     C_R   0.640859 0.906459 0.911955 -0.109260
C59   C     C_R   0.655615 0.926154 0.789015 -0.147269
C60   C     C_R   0.620674 0.892523 0.687674 -0.128017
H23   H     H_    0.517688 0.777936 0.851414 0.110486
H24   H     H_    0.580428 0.837297 0.029030 0.120576
H25   H     H_    0.668107 0.932403 0.990290 0.116676
H26   H     H_    0.694446 0.967247 0.772145 0.120939
H27   H     H_    0.633782 0.907662 0.593129 0.120273
C61   C     C_R   0.428667 0.837223 0.300708 0.118766
C62   C     C_R   0.445164 0.819814 0.175316 -0.188608
C63   C     C_R   0.410107 0.853378 0.076627 -0.128102
C64   C     C_R   0.357989 0.904041 0.102116 -0.110693
C65   C     C_R   0.340611 0.921023 0.226429 -0.141514
C66   C     C_R   0.375527 0.887613 0.325445 -0.125047
H28   H     H_    0.485481 0.780689 0.154094 0.109127
H29   H     H_    0.423351 0.840194 0.980383 0.120235
H30   H     H_    0.330927 0.929951 0.025532 0.117056
H31   H     H_    0.299949 0.959976 0.246102 0.122208
H32   H     H_    0.360916 0.900860 0.421137 0.118003
H33   H     H_    0.557995 0.930922 0.333025 0.126876
H34   H     H_    0.441466 0.935140 0.676304 0.129856
H35   H     H_    0.606072 0.302868 0.452888 0.132618
H36   H     H_    0.394892 0.304135 0.555897 0.125229
C67   C     C_R   0.854461 0.620081 0.356072 0.119775
C68   C     C_R   0.852725 0.631344 0.226040 -0.157070
C69   C     C_R   0.885004 0.692308 0.176652 -0.130251
C70   C     C_R   0.918142 0.742751 0.256966 -0.122212
C71   C     C_R   0.919456 0.731981 0.386632 -0.130810
C72   C     C_R   0.888607 0.670302 0.436149 -0.126781
H37   H     H_    0.825994 0.593220 0.163459 0.112083
H38   H     H_    0.883639 0.700886 0.076334 0.121717
H39   H     H_    0.942313 0.790451 0.218856 0.114496
H40   H     H_    0.943528 0.771911 0.448970 0.119631
H41   H     H_    0.889594 0.662633 0.536808 0.121224
C73   C     C_R   0.139775 0.626988 0.579359 0.118923
C74   C     C_R   0.128401 0.639627 0.708030 -0.149457
C75   C     C_R   0.093669 0.702276 0.748631 -0.129879
C76   C     C_R   0.071193 0.753011 0.661260 -0.124680
C77   C     C_R   0.083058 0.740917 0.533151 -0.139108
C78   C     C_R   0.116391 0.677629 0.491959 -0.134810
H42   H     H_    0.146725 0.601196 0.776465 0.115883
H43   H     H_    0.084814 0.711860 0.847866 0.121656
H44   H     H_    0.045006 0.801897 0.692859 0.114719
H45   H     H_    0.066943 0.780840 0.465739 0.117374
H46   H     H_    0.125599 0.668910 0.392545 0.120510
C79   C     C_R   0.707132 0.629260 0.389971 0.145655
C80   C     C_R   0.717183 0.693333 0.461844 -0.126591
C81   C     C_R   0.684981 0.757797 0.426347 -0.132235
C82   C     C_R   0.641756 0.758632 0.320063 -0.117157
C83   C     C_R   0.630397 0.694879 0.249458 -0.126624
C84   C     C_R   0.663025 0.630486 0.284063 -0.094888
H47   H     H_    0.750336 0.693392 0.544692 0.114795
H48   H     H_    0.693607 0.807087 0.481237 0.122186
H49   H     H_    0.616693 0.808505 0.292904 0.114008
H50   H     H_    0.596329 0.695325 0.167893 0.113472
H51   H     H_    0.653281 0.581632 0.229391 0.110009
C85   C     C_R   0.288664 0.623948 0.614469 0.146141
C86   C     C_R   0.292646 0.691539 0.556183 -0.106970
C87   C     C_R   0.328482 0.749164 0.614838 -0.129564
C88   C     C_R   0.361146 0.739586 0.731149 -0.115139
C89   C     C_R   0.357695 0.672440 0.789544 -0.120550
C90   C     C_R   0.321405 0.614760 0.731708 -0.131890
H52   H     H_    0.268686 0.699269 0.464914 0.115661
H53   H     H_    0.331473 0.801088 0.569642 0.120229
H54   H     H_    0.389354 0.784157 0.775552 0.108828
H55   H     H_    0.383335 0.665029 0.879391 0.115049
H56   H     H_    0.319370 0.562825 0.777356 0.102371
H57   H     H_    0.057350 0.495822 0.668871 0.128349
H58   H     H_    0.930367 0.492224 0.654511 0.133660
H59   H     H_    0.557678 0.695670 0.668932 0.128640
H60   H     H_    0.441723 0.693927 0.331793 0.130456

loop_
_geom_bond_atom_site_label_1
_geom_bond_atom_site_label_2
_ccdc_geom_bond_type
C30   C32   D    
C79   C84   A    
C59   C60   A    
C77   H45   S    
C86   H52   S    
C42   C85   S    
C75   C76   A    
C52   C53   A    
C56   H23   S    
C39   C41   A    
C71   H40   S    
C74   H42   S    
C25   C28   A    
C61   C66   A    
C51   H19   S    
C24   H3    S    
C60   H27   S    
C5    H11   S    
C35   C37   A    
C66   H32   S    
C24   C26   A    
C80   H47   S    
C1    O3    A    
O3    Zn2   S    
C5    C6    A    
C2    O4    A    
C3    C33   A    
C33   H7    S    
C67   C68   A    
C11   H59   S    
C68   C69   A    
C18   C20   A    
C43   C48   A    
C55   C60   A    
C70   C71   A    
C61   C62   A    
C48   H17   S    
C17   C19   A    
C57   H24   S    
C29   C43   S    
C83   C84   A    
C49   C54   A    
C19   C20   A    
C44   C45   A    
C88   C89   A    
C64   H30   S    
C9    C10   A    
C41   C79   S    
C52   H20   S    
C36   H10   S    
C15   C23   S    
C54   H22   S    
O7    Zn2   S    
O4    Zn2   S    
C31   H5    S    
C65   H31   S    
C29   C31   D    
C32   H6    S    
C45   C46   A    
C75   H43   S    
C6    H12   S    
C65   C66   A    
N1    Zn1   S    
C58   H25   S    
C21   C32   S    
C4    C34   A    
C34   H8    S    
C22   C31   S    
C90   H56   S    
C43   C44   A    
C62   C63   A    
C63   H29   S    
C82   C83   A    
C78   H46   S    
C68   H37   S    
C57   C58   A    
C49   C50   A    
C20   C28   S    
C44   H13   S    
C22   O8    A    
C50   C51   A    
O8    Zn2   S    
C69   H38   S    
C29   C30   S    
C1    O1    A    
C22   O6    A    
C81   H48   S    
O2    Zn1   S    
C14   C15   A    
C71   C72   A    
C40   C73   S    
C45   H14   S    
C17   C23   A    
C88   H54   S    
C85   C86   A    
C46   C47   A    
C83   H50   S    
C16   C18   A    
C12   C14   A    
C53   C54   A    
C16   C23   A    
C39   C67   S    
C87   H53   S    
C13   C15   A    
C35   H9    S    
C8    C37   S    
C74   C75   A    
C17   H34   S    
C10   H58   S    
C47   H16   S    
C64   C65   A    
C11   N1    A    
C19   H2    S    
C76   C77   A    
C62   H28   S    
C7    C9    A    
C89   H55   S    
C3    C41   A    
O6    Zn1   S    
C13   C55   S    
C27   N2    A    
C21   O5    A    
C84   H51   S    
C24   C28   A    
O1    Zn1   S    
C51   C52   A    
C26   N2    A    
C82   H49   S    
C5    C8    A    
C81   C82   A    
C2    O2    A    
C14   C61   S    
C6    C7    A    
C25   C27   A    
C79   C80   A    
C1    C4    S    
C36   C38   A    
C2    C3    S    
C26   H35   S    
C47   C48   A    
C37   C39   A    
C86   C87   A    
C38   C40   A    
C11   C13   A    
C56   C57   A    
C50   H18   S    
C4    C42   A    
C73   C78   A    
C73   C74   A    
N2    Zn2   S    
C59   H26   S    
C40   C42   A    
C58   C59   A    
C33   C35   A    
C7    C38   S    
C77   C78   A    
C34   C36   A    
C70   H39   S    
C72   H41   S    
C63   C64   A    
C21   O7    A    
C12   N1    A    
C80   C81   A    
C12   H60   S    
C76   H44   S    
C30   C49   S    
C27   H36   S    
O5    Zn1   S    
C89   C90   A    
C8    C10   A    
C67   C72   A    
C85   C90   A    
C18   H1    S    
C46   H15   S    
C9    H57   S    
C87   C88   A    
C55   C56   A    
C69   C70   A    
C25   H4    S    
C53   H21   S    
C16   H33   S    
