data_mof_unit_12648.cif
_audit_creation_date              2012-12-10T16:44:44-0500
_audit_creation_method            fapswitch 2.2
_symmetry_space_group_name_H-M    P1
_symmetry_Int_Tables_number       1
_space_group_crystal_system       triclinic
_cell_length_a                    15.051111
_cell_length_b                    8.765067
_cell_length_c                    7.533872
_cell_angle_alpha                 103.547718
_cell_angle_beta                  94.102228
_cell_angle_gamma                 93.391817
_cell_volume                      960.80937487

loop_
_atom_site_label
_atom_site_type_symbol
_atom_type_description
_atom_site_fract_x
_atom_site_fract_y
_atom_site_fract_z
_atom_type_partial_charge
C1    C     C_R   0.495027 0.200471 0.454136 0.841797
C2    C     C_R   0.504972 0.799529 0.545864 0.841796
C3    C     C_R   0.036388 0.216319 0.412317 -0.280159
C4    C     C_R   0.963612 0.783683 0.587671 -0.280166
C5    C     C_2   0.481377 0.033407 0.434124 -0.027427
C6    C     C_2   0.518623 0.966593 0.565876 -0.027427
C7    C     C_R   0.329951 0.502890 0.503145 0.820108
C8    C     C_R   0.670049 0.497111 0.496855 0.820109
C9    C     C_R   0.817219 0.640702 0.532743 0.099320
C10   C     C_R   0.182780 0.359299 0.467248 0.099317
C11   C     C_R   0.765861 0.495872 0.489275 -0.061018
C12   C     C_R   0.234139 0.504129 0.510724 -0.061019
C13   C     C_R   0.804838 0.350875 0.438914 0.061719
C14   C     C_R   0.195162 0.649126 0.561091 0.061719
C15   C     C_R   0.899563 0.350767 0.441339 0.015091
C16   C     C_R   0.100436 0.649234 0.558658 0.015096
C17   C     C_R   0.952513 0.497764 0.495490 -0.062952
C18   C     C_R   0.047487 0.502237 0.504503 -0.062952
C19   C     C_R   0.910884 0.641015 0.538382 0.043365
C20   C     C_R   0.089116 0.358986 0.461608 0.043363
C21   C     C_R   0.943741 0.209522 0.392781 0.434119
C22   C     C_R   0.056259 0.790480 0.607211 0.434123
Cu1   Cu    Cu3+1 0.510010 0.517380 0.684380 0.927762
Cu2   Cu    Cu3+1 0.489990 0.482620 0.315620 0.927763
H1    H     H_    0.066291 0.105233 0.387304 0.200148
H2    H     H_    0.933708 0.894768 0.612677 0.200147
N1    N     N_2   0.474890 0.456420 0.038520 -0.058589
N2    N     N_2   0.525110 0.543580 0.961480 -0.058589
O1    O     O_R   0.506510 0.286130 0.619770 -0.595775
O2    O     O_R   0.493490 0.713870 0.380230 -0.595775
O3    O     O_R   0.489600 0.256770 0.308360 -0.583231
O4    O     O_R   0.510400 0.743230 0.691640 -0.583232
O5    O     O_R   0.378710 0.514640 0.655720 -0.602822
O6    O     O_R   0.621290 0.485360 0.344280 -0.602820
O7    O     O_R   0.361800 0.485290 0.344300 -0.586175
O8    O     O_R   0.638200 0.514710 0.655700 -0.586175
C23   C     C_3   0.772340 0.795459 0.571733 -0.910190
H3    H     H_    0.698540 0.782735 0.558551 0.223435
H4    H     H_    0.793371 0.865039 0.713064 0.228963
H5    H     H_    0.791088 0.863675 0.471963 0.272354
C24   C     C_3   0.227659 0.204542 0.428250 -0.910186
H6    H     H_    0.301459 0.217265 0.441433 0.223436
H7    H     H_    0.208910 0.136320 0.528014 0.272352
H8    H     H_    0.206629 0.134968 0.286916 0.228967
C25   C     C_3   0.744727 0.198427 0.385447 -0.769175
H9    H     H_    0.760546 0.124085 0.482031 0.249869
H10   H     H_    0.672628 0.213048 0.389685 0.195571
H11   H     H_    0.752557 0.136696 0.241896 0.249219
C26   C     C_3   0.255274 0.801573 0.614575 -0.769175
H12   H     H_    0.247437 0.863299 0.758126 0.249218
H13   H     H_    0.327373 0.786951 0.610354 0.195576
H14   H     H_    0.239462 0.875920 0.517994 0.249870
O9    O     O_3   0.897857 0.061828 0.343891 -0.596389
C27   C     C_3   0.910282 0.987277 0.160201 0.043881
H15   H     H_    0.980907 0.960650 0.144194 0.136321
H16   H     H_    0.889550 0.061806 0.065622 0.135255
C28   C     C_3   0.853761 0.831175 0.104222 -0.818743
H17   H     H_    0.781945 0.851363 0.113017 0.234891
H18   H     H_    0.864331 0.770586 0.961440 0.215149
H19   H     H_    0.873453 0.753885 0.195403 0.264557
O10   O     O_3   0.102143 0.938173 0.656100 -0.596388
C29   C     C_3   0.089711 0.012734 0.839783 0.043883
H20   H     H_    0.110428 0.938204 0.934371 0.135252
H21   H     H_    0.019087 0.039379 0.855769 0.136330
C30   C     C_3   0.146242 0.168825 0.895771 -0.818750
H22   H     H_    0.126569 0.246113 0.804575 0.264560
H23   H     H_    0.135662 0.229426 0.038543 0.215150
H24   H     H_    0.218058 0.148618 0.887008 0.234888
C31   C     C_3   0.417541 0.945083 0.271251 -0.840859
H25   H     H_    0.380929 0.026120 0.204667 0.223443
H26   H     H_    0.455118 0.872764 0.164909 0.266460
H27   H     H_    0.365700 0.870298 0.315763 0.236015
C32   C     C_3   0.582458 0.054917 0.728750 -0.840858
H28   H     H_    0.619070 0.973880 0.795334 0.223444
H29   H     H_    0.634299 0.129703 0.684240 0.236015
H30   H     H_    0.544880 0.127235 0.835092 0.266460
C33   C     C_3   0.388503 0.388927 0.950944 -0.356391
H31   H     H_    0.360267 0.310041 0.031629 0.158336
H32   H     H_    0.342039 0.482686 0.951263 0.184299
H33   H     H_    0.392722 0.311750 0.814318 0.188442
C34   C     C_3   0.611496 0.611073 0.049056 -0.356394
H34   H     H_    0.657961 0.517314 0.048737 0.184299
H35   H     H_    0.639733 0.689959 0.968371 0.158335
H36   H     H_    0.607278 0.688250 0.185682 0.188441

loop_
_geom_bond_atom_site_label_1
_geom_bond_atom_site_label_2
_ccdc_geom_bond_type
C13   C25   S    
C24   H7    S    
C24   H6    S    
Cu2   N1    S    
C26   H13   S    
C34   H34   S    
C33   H31   S    
C23   H3    S    
C1    C5    S    
Cu1   O1    S    
C23   H5    S    
C8    O8    A    
C5    C6    D    
C28   H18   S    
C14   C26   S    
Cu1   O8    S    
C1    O3    A    
C2    O4    A    
C32   H28   S    
C31   H26   S    
C5    C31   S    
C4    C19   A    
C9    C19   A    
C10   C20   A    
C30   H23   S    
C29   H21   S    
Cu1   Cu2   S    
O10   C29   S    
C30   H24   S    
C25   H10   S    
C10   C24   S    
C7    O5    A    
C2    C6    S    
C1    O1    A    
C34   H35   S    
C33   H32   S    
C7    C12   S    
C27   H16   S    
Cu2   O7    S    
C3    H1    S    
C28   H19   S    
Cu1   O5    S    
C25   H9    S    
Cu2   O6    S    
C31   H27   S    
C29   H20   S    
C4    C22   A    
C26   H14   S    
C9    C23   S    
C17   C18   A    
C3    C20   A    
C8    O6    A    
Cu1   N2    S    
C9    C11   A    
C10   C12   A    
C12   C14   A    
C26   H12   S    
C13   C15   A    
C24   H8    S    
C14   C16   A    
C3    C21   A    
C32   H29   S    
C34   H36   S    
C6    C32   S    
C25   H11   S    
C15   C17   A    
C27   H15   S    
C16   C22   A    
C29   C30   S    
N2    C34   S    
C7    O7    A    
N1    C33   S    
C4    H2    S    
O9    C27   S    
C2    O2    A    
Cu1   O4    S    
Cu2   O3    S    
C23   H4    S    
C22   O10   S    
C21   O9    S    
C11   C13   A    
C28   H17   S    
C33   H33   S    
C8    C11   S    
C17   C19   A    
C18   C20   A    
C31   H25   S    
Cu2   O2    S    
C15   C21   A    
C32   H30   S    
C16   C18   A    
C30   H22   S    
N1    N2    D    
C27   C28   S    
