data_mof_unit_48741.cif
_audit_creation_date              2012-12-10T17:15:11-0500
_audit_creation_method            fapswitch 2.2
_symmetry_space_group_name_H-M    P1
_symmetry_Int_Tables_number       1
_space_group_crystal_system       triclinic
_cell_length_a                    15.852321
_cell_length_b                    13.009933
_cell_length_c                    11.676507
_cell_angle_alpha                 99.546047
_cell_angle_beta                  93.318562
_cell_angle_gamma                 90.587834
_cell_volume                      2370.32420254

loop_
_atom_site_label
_atom_site_type_symbol
_atom_type_description
_atom_site_fract_x
_atom_site_fract_y
_atom_site_fract_z
_atom_type_partial_charge
C1    C     C_R   0.500845 0.299774 0.478964 0.792429
C2    C     C_R   0.499630 0.700404 0.520869 0.794966
C3    C     C_R   0.415532 0.031102 0.393046 -0.228360
C4    C     C_R   0.581843 0.970807 0.608819 -0.229686
C5    C     C_R   0.430313 0.136213 0.397136 -0.239758
C6    C     C_R   0.565882 0.866208 0.607381 -0.241060
C7    C     C_R   0.553367 0.132466 0.532222 0.026459
C8    C     C_R   0.449932 0.866365 0.460010 0.019637
C9    C     C_R   0.534612 0.026021 0.534417 0.127364
C10   C     C_R   0.466004 0.974067 0.462011 0.124468
C11   C     C_R   0.428144 0.390338 0.022454 -0.012676
C12   C     C_R   0.570625 0.610764 0.977716 -0.014257
C13   C     C_R   0.434544 0.404222 0.145639 0.071065
C14   C     C_R   0.564431 0.596775 0.854523 0.077000
C15   C     C_R   0.529651 0.547188 0.157088 0.001046
C16   C     C_R   0.470798 0.452279 0.842833 0.000301
C17   C     C_R   0.525361 0.540178 0.034088 -0.006416
C18   C     C_R   0.474262 0.460081 0.965947 -0.008551
C19   C     C_R   0.339753 0.499867 0.500640 0.822393
C20   C     C_R   0.660231 0.499708 0.499310 0.825009
C21   C     C_3   0.970543 0.399097 0.485956 -0.161524
C22   C     C_3   0.029284 0.596687 0.513754 -0.160835
C23   C     C_3   0.023984 0.444795 0.398724 -0.158332
C24   C     C_3   0.975889 0.550998 0.600983 -0.158283
C25   C     C_1   0.250022 0.499351 0.501892 -0.191743
C26   C     C_1   0.749918 0.498763 0.497907 -0.188740
C27   C     C_3   0.030743 0.452401 0.588292 -0.157099
C28   C     C_3   0.969134 0.543388 0.411427 -0.157170
C29   C     C_3   0.082616 0.498115 0.501053 0.194052
C30   C     C_3   0.917256 0.497710 0.498657 0.195979
C31   C     C_1   0.174396 0.498746 0.501934 -0.080862
C32   C     C_1   0.825513 0.498079 0.497790 -0.084801
C33   C     C_R   0.502978 0.813156 0.531325 -0.064184
C34   C     C_R   0.496833 0.187376 0.467728 -0.057293
Cu1   Cu    Cu3+1 0.506200 0.507730 0.615930 0.927460
Cu2   Cu    Cu3+1 0.493800 0.492270 0.384070 0.925023
H1    H     H_    0.045120 0.401190 0.315726 0.127187
H2    H     H_    0.954751 0.594596 0.683984 0.127577
H3    H     H_    0.945060 0.318010 0.474418 0.129826
H4    H     H_    0.054756 0.677789 0.525218 0.126766
H5    H     H_    0.942480 0.580683 0.338796 0.127186
H6    H     H_    0.057382 0.415088 0.660917 0.128113
H7    H     H_    0.605748 0.825184 0.662750 0.146906
H8    H     H_    0.387699 0.178797 0.346918 0.145296
H9    H     H_    0.362486 0.997046 0.337137 0.147312
H10   H     H_    0.632387 0.006691 0.668468 0.151774
H11   H     H_    0.432018 0.393180 0.787530 0.132506
H12   H     H_    0.569292 0.605414 0.212283 0.124734
H13   H     H_    0.598089 0.647729 0.808121 0.123023
H14   H     H_    0.400348 0.353889 0.192189 0.123996
N1    N     N_R   0.515540 0.519350 0.790140 -0.193917
N2    N     N_R   0.484460 0.480650 0.209860 -0.192295
O1    O     O_R   0.504400 0.354460 0.582000 -0.594177
O2    O     O_R   0.495600 0.645540 0.418000 -0.584948
O3    O     O_R   0.493920 0.341410 0.386200 -0.587717
O4    O     O_R   0.506080 0.658590 0.613800 -0.591046
O5    O     O_R   0.384320 0.506520 0.597880 -0.572241
O6    O     O_R   0.615680 0.493480 0.402120 -0.572730
O7    O     O_R   0.373840 0.493460 0.402080 -0.589109
O8    O     O_R   0.626160 0.506540 0.597920 -0.586318
C35   C     C_3   0.376419 0.808414 0.384864 -0.397189
C36   C     C_3   0.398262 0.780203 0.256859 -0.312912
C37   C     C_3   0.333832 0.702860 0.187225 -0.827722
H15   H     H_    0.332986 0.629169 0.223524 0.270974
H16   H     H_    0.269757 0.736611 0.189313 0.242854
H17   H     H_    0.351244 0.684677 0.095384 0.239318
H18   H     H_    0.400318 0.851053 0.215661 0.202225
H19   H     H_    0.461716 0.745323 0.251416 0.228578
H20   H     H_    0.358515 0.736607 0.418155 0.201442
H21   H     H_    0.318094 0.854911 0.392247 0.173331
C38   C     C_3   0.635139 0.185189 0.591311 -0.414983
C39   C     C_3   0.712537 0.143239 0.526445 -0.356795
C40   C     C_3   0.793995 0.196865 0.583945 -0.860298
H22   H     H_    0.791981 0.282093 0.583268 0.259031
H23   H     H_    0.803019 0.183072 0.675177 0.254424
H24   H     H_    0.848679 0.164803 0.535388 0.236534
H25   H     H_    0.717978 0.057977 0.524273 0.224611
H26   H     H_    0.705490 0.157527 0.435111 0.222211
H27   H     H_    0.636235 0.270403 0.593115 0.219030
H28   H     H_    0.641303 0.175827 0.684160 0.191672
C41   C     C_3   0.373783 0.302500 0.950537 -0.430502
C42   C     C_3   0.328806 0.229369 0.019362 -0.363144
C43   C     C_3   0.278269 0.143781 0.937802 -0.839183
H29   H     H_    0.229324 0.178452 0.884704 0.250794
H30   H     H_    0.320813 0.095798 0.879119 0.255843
H31   H     H_    0.246443 0.092348 0.989737 0.237606
H32   H     H_    0.376204 0.191830 0.072141 0.217713
H33   H     H_    0.284547 0.274503 0.077973 0.212663
H34   H     H_    0.324845 0.337951 0.898020 0.200507
H35   H     H_    0.415021 0.254124 0.890024 0.205095
C44   C     C_3   0.623468 0.699955 0.049826 -0.432471
C45   C     C_3   0.665964 0.775367 0.981343 -0.359807
C46   C     C_3   0.714220 0.862808 0.063251 -0.842702
H36   H     H_    0.670451 0.908628 0.121944 0.253923
H37   H     H_    0.764336 0.830101 0.116352 0.250729
H38   H     H_    0.744365 0.915846 0.011589 0.238196
H39   H     H_    0.711341 0.732525 0.922674 0.212558
H40   H     H_    0.617241 0.810985 0.928654 0.217247
H41   H     H_    0.581554 0.746445 0.110948 0.196863
H42   H     H_    0.673650 0.665862 0.101664 0.201016

loop_
_geom_bond_atom_site_label_1
_geom_bond_atom_site_label_2
_ccdc_geom_bond_type
C35   H21   S    
C25   C31   T    
C37   H16   S    
C11   C18   A    
C26   C32   T    
C46   H36   S    
C22   C29   S    
Cu1   O1    S    
C40   H22   S    
C12   C44   S    
Cu1   Cu2   S    
C16   N1    A    
Cu2   O7    S    
C38   H27   S    
C41   C42   S    
C45   H40   S    
C4    H10   S    
C11   C41   S    
C39   H25   S    
C36   H18   S    
C23   C29   S    
Cu2   O6    S    
C7    C38   S    
C14   H13   S    
C27   C29   S    
C42   H32   S    
C28   H5    S    
C7    C9    A    
C1    O1    A    
C39   H26   S    
C14   N1    A    
C12   C17   A    
C1    C34   S    
C24   H2    S    
C24   C27   S    
C44   H42   S    
C20   O8    A    
C9    C10   A    
Cu2   N2    S    
C8    C35   S    
C41   H34   S    
C21   C27   S    
C37   H17   S    
C46   H37   S    
C22   C28   S    
C40   H23   S    
C15   H12   S    
C16   H11   S    
C38   H28   S    
C45   H39   S    
C4    C6    A    
C2    O2    A    
C44   C45   S    
C19   O7    A    
C23   H1    S    
C3    H9    S    
C19   O5    A    
C13   H14   S    
Cu1   O8    S    
C36   C37   S    
C13   N2    A    
C43   H29   S    
C21   H3    S    
C22   H4    S    
C5    C34   A    
C17   C18   A    
C23   C28   S    
C41   H35   S    
C2    C33   S    
C8    C10   A    
C43   H30   S    
C5    H8    S    
C12   C14   A    
C46   H38   S    
C6    H7    S    
C21   C23   S    
Cu1   N1    S    
C7    C34   A    
C22   C24   S    
C20   O6    A    
C35   H20   S    
C15   C17   A    
Cu1   O4    S    
C39   C40   S    
C3    C5    A    
C21   C30   S    
C6    C33   A    
C36   H19   S    
Cu1   O5    S    
C15   N2    A    
C1    O3    A    
C38   C39   S    
C29   C31   S    
Cu2   O3    S    
C2    O4    A    
C30   C32   S    
C11   C13   A    
C27   H6    S    
C20   C26   S    
C42   H33   S    
C28   C30   S    
C45   C46   S    
C40   H24   S    
C8    C33   A    
C35   C36   S    
C19   C25   S    
C24   C30   S    
Cu2   O2    S    
C37   H15   S    
C43   H31   S    
C16   C18   A    
C42   C43   S    
C3    C10   A    
C44   H41   S    
C4    C9    A    
