data_mof_unit_52736.cif
_audit_creation_date              2012-12-11T14:21:00-0500
_audit_creation_method            fapswitch 2.2
_symmetry_space_group_name_H-M    P1
_symmetry_Int_Tables_number       1
_space_group_crystal_system       triclinic
_cell_length_a                    11.653593
_cell_length_b                    11.643436
_cell_length_c                    19.437782
_cell_angle_alpha                 90.117205
_cell_angle_beta                  89.724244
_cell_angle_gamma                 60.024999
_cell_volume                      2284.63555239

loop_
_atom_site_label
_atom_site_type_symbol
_atom_type_description
_atom_site_fract_x
_atom_site_fract_y
_atom_site_fract_z
_atom_type_partial_charge
C1    C     C_R   0.640284 0.116922 0.599018 0.550994
C2    C     C_1   0.653035 0.149320 0.668392 0.001468
C3    C     C_R   0.693360 0.587453 0.206858 -0.056277
C4    C     C_R   0.612167 0.745960 0.598277 0.535568
C5    C     C_R   0.624452 0.548460 0.253379 -0.010639
C6    C     C_R   0.631156 0.567679 0.324461 -0.014520
C7    C     C_R   0.758891 0.677435 0.301252 0.247652
C8    C     C_R   0.756050 0.654502 0.231788 -0.116102
C9    C     C_R   0.540465 0.500687 0.232244 -0.102198
C10   C     C_R   0.473410 0.467515 0.280007 -0.143152
C11   C     C_R   0.495823 0.468664 0.349792 -0.122459
C12   C     C_1   0.640846 0.703288 0.667644 0.005866
C13   C     C_R   0.575912 0.517309 0.372246 -0.083989
C14   C     C_R   0.681696 0.647782 0.346180 -0.009394
C15   C     C_R   0.047839 0.256579 0.209093 -0.026963
C16   C     C_R   0.240856 0.145166 0.597816 0.535182
C17   C     C_R   0.065812 0.352543 0.245957 0.001586
C18   C     C_R   0.118341 0.323152 0.312976 -0.015492
C19   C     C_R   0.095010 0.126359 0.315122 0.245956
C20   C     C_R   0.066368 0.141854 0.244389 0.257879
C21   C     C_R   0.052854 0.469002 0.214953 -0.026041
C22   C     C_R   0.124378 0.525747 0.238775 -0.048349
C23   C     C_1   0.127062 0.199349 0.859595 0.009408
C24   C     C_R   0.177304 0.495947 0.303092 -0.136901
C25   C     C_R   0.152254 0.413945 0.343096 -0.092592
C26   C     C_R   0.143858 0.201797 0.345211 -0.044107
C27   C     C_R   0.659809 0.146062 0.178036 0.036263
C28   C     C_R   0.624840 0.084176 0.393539 0.578214
C29   C     C_R   0.754706 0.027716 0.208726 0.038250
C30   C     C_R   0.761010 0.025517 0.280663 -0.002332
C31   C     C_R   0.523806 0.181811 0.278062 -0.164708
C32   C     C_R   0.535351 0.205669 0.207162 0.201858
C33   C     C_R   0.850574 0.920262 0.169138 0.340383
C34   C     C_1   0.171074 0.170155 0.727607 -0.031479
C35   C     C_R   0.976671 0.845919 0.197698 -0.072689
C36   C     C_R   0.995607 0.860102 0.266987 -0.073093
C37   C     C_R   0.888062 0.944286 0.308742 -0.015430
C38   C     C_R   0.639552 0.104372 0.318234 -0.042638
C39   C     C_R   0.081650 0.231516 0.928900 0.572236
C40   C     C_R   0.621967 0.732690 0.405707 0.549103
C41   C     C_R   0.683943 0.604556 0.929848 0.562909
C42   C     C_R   0.708638 0.206816 0.930391 0.571325
C43   C     C_R   0.022672 0.270726 0.133340 0.569836
C44   C     C_R   0.707046 0.553420 0.133542 0.528068
C45   C     C_1   0.150328 0.182531 0.799048 -0.031169
C46   C     C_R   0.702711 0.202508 0.121077 0.594382
C47   C     C_R   0.237290 0.146863 0.403799 0.550159
C48   C     C_1   0.670600 0.647035 0.860426 0.005592
C49   C     C_1   0.654655 0.683269 0.728279 -0.031874
C50   C     C_1   0.663583 0.666978 0.799747 -0.031792
C51   C     C_3   0.912623 0.690640 0.372133 -0.070930
C52   C     C_3   0.913527 0.789968 0.067851 -0.075154
C53   C     C_3   0.005311 0.080241 0.408286 -0.111198
C54   C     C_3   0.203120 0.943184 0.194642 -0.064477
C55   C     C_1   0.194691 0.160613 0.667042 0.004069
C56   C     C_1   0.678640 0.191189 0.861073 0.010829
C57   C     C_1   0.658598 0.166968 0.728950 -0.031979
C58   C     C_1   0.665658 0.180719 0.800471 -0.030457
Cr1   Cr    Cr6+3 0.404720 0.198220 0.499960 0.997560
Cr2   Cr    Cr6+3 0.698290 0.897110 0.500380 0.991943
Cr3   Cr    Cr6+3 0.396970 0.904720 0.499610 1.037605
Cr4   Cr    Cr6+3 0.926180 0.151990 0.028120 1.061436
Cr5   Cr    Cr6+3 0.921330 0.451820 0.027470 0.998228
Cr6   Cr    Cr6+3 0.626260 0.446870 0.028710 1.054664
H1    H     H_    0.135211 0.595756 0.208454 0.116061
H2    H     H_    0.404757 0.439236 0.261857 0.176578
H3    H     H_    0.447068 0.437080 0.386414 0.130615
H4    H     H_    0.589516 0.521438 0.427108 0.118425
H5    H     H_    0.994747 0.516028 0.170610 0.131125
H6    H     H_    0.927868 0.593072 0.389487 0.088291
H7    H     H_    0.891029 0.754640 0.417975 0.166041
H8    H     H_    0.002863 0.687889 0.355381 0.093361
H9    H     H_    0.943690 0.699901 0.099261 0.087609
H10   H     H_    0.000343 0.799893 0.052948 0.106563
H11   H     H_    0.869843 0.777666 0.019761 0.162160
H12   H     H_    0.216684 0.553807 0.325904 0.083576
H13   H     H_    0.267720 0.447547 0.100346 0.361344
H14   H     H_    0.901410 0.142512 0.390529 0.115645
H15   H     H_    0.029411 0.140574 0.443207 0.106694
H16   H     H_    0.012048 0.998430 0.440339 0.131288
H17   H     H_    0.252863 0.887211 0.241954 0.149150
H18   H     H_    0.259623 0.988302 0.172219 0.162017
H19   H     H_    0.206586 0.871202 0.156132 0.124249
H20   H     H_    0.153735 0.430869 0.397585 0.136478
H21   H     H_    0.426612 0.223509 0.301474 0.165182
H22   H     H_    0.061301 0.783886 0.165845 0.069306
H23   H     H_    0.093425 0.802884 0.288916 0.126575
H24   H     H_    0.909456 0.940722 0.362027 0.150676
H25   H     H_    0.516326 0.495915 0.179842 0.207731
H26   H     H_    0.800323 0.693852 0.196914 0.155917
O1    O     O_R   0.267740 0.231960 0.575440 -0.511998
O2    O     O_R   0.596130 0.579390 0.952730 -0.495663
O3    O     O_R   0.639060 0.321160 0.958670 -0.480982
O4    O     O_R   0.527280 0.186640 0.570530 -0.489435
O5    O     O_R   0.821240 0.124200 0.104370 -0.475347
O6    O     O_R   0.036890 0.167040 0.097840 -0.445116
O7    O     O_R   0.056180 0.349610 0.102880 -0.496730
O8    O     O_R   0.797660 0.564870 0.097950 -0.537155
O9    O     O_R   0.595880 0.584250 0.104270 -0.508553
O10   O     O_R   0.638830 0.325670 0.099150 -0.502659
O11   O     O_3   0.824590 0.350230 0.028100 -0.317215
O12   O     O_R   0.685970 0.784660 0.430010 -0.497636
O13   O     O_R   0.728090 0.003450 0.576380 -0.511204
O14   O     O_R   0.682970 0.789190 0.570490 -0.505631
O15   O     O_R   0.499290 0.771880 0.575530 -0.510974
O16   O     O_R   0.285330 0.030870 0.569730 -0.499064
O17   O     O_R   0.270980 0.227080 0.423890 -0.558643
O18   O     O_R   0.530280 0.182120 0.430050 -0.511404
O19   O     O_R   0.731330 0.998570 0.424830 -0.541233
O20   O     O_3   0.814384 0.753602 0.320825 -0.557924
O21   O     O_3   0.817153 0.905674 0.101790 -0.538860
O22   O     O_2   0.453832 0.194953 0.080516 -0.254680
O23   O     O_R   0.502530 0.767000 0.423990 -0.508654
O24   O     O_2   0.305888 0.225823 0.176200 -0.291513
O25   O     O_3   0.333001 0.426688 0.137528 -0.585318
O26   O     O_3   0.093320 0.024951 0.351346 -0.557920
O27   O     O_3   0.069045 0.038508 0.208370 -0.540998
O28   O     O_R   0.288330 0.026350 0.429250 -0.450053
O29   O     O_3   0.499990 0.000020 0.499980 -0.265266
O30   O     O_R   0.821500 0.119340 0.952830 -0.502178
O31   O     O_R   0.037130 0.162530 0.957360 -0.495206
O32   O     O_R   0.056440 0.344740 0.951340 -0.496560
O33   O     O_R   0.797900 0.560360 0.957470 -0.499308
S1    S     S_3+6 0.403345 0.262422 0.149026 0.002526

loop_
_geom_bond_atom_site_label_1
_geom_bond_atom_site_label_2
_ccdc_geom_bond_type
C31   H21   S    
Cr4   O6    S    
C27   C29   A    
C42   O3    A    
C32   S1    S    
C37   H24   S    
C19   C20   A    
C18   C26   A    
Cr5   O11   S    
C52   H11   S    
C12   C49   T    
C2    C57   T    
C7    C8    A    
C39   O32   A    
C23   C45   T    
C36   C37   A    
C53   H15   S    
Cr6   O3    S    
O22   S1    D    
Cr5   O8    S    
C52   H10   S    
C5    C6    A    
C33   C35   A    
C35   H22   S    
Cr3   O29   S    
C29   C33   A    
C7    C14   A    
C30   C38   A    
Cr2   O29   S    
C1    C2    S    
C19   C26   A    
C20   O27   S    
Cr2   O19   S    
C42   C56   S    
C44   O8    A    
Cr6   O9    S    
C46   O5    A    
C40   O23   A    
C1    O4    A    
C25   H20   S    
C33   O21   S    
Cr1   O4    S    
C4    C12   S    
Cr2   O13   S    
Cr3   O15   S    
C9    C10   A    
C1    O13   A    
Cr4   O30   S    
C53   O26   S    
C16   O16   A    
Cr4   O11   S    
O24   S1    D    
C48   C50   T    
Cr3   O28   S    
C34   C55   T    
Cr4   O5    S    
C15   C20   A    
C18   C25   A    
C51   H7    S    
Cr2   O12   S    
C54   H19   S    
C11   H3    S    
C17   C18   A    
C10   H2    S    
C36   H23   S    
Cr6   O11   S    
C3    C44   S    
C53   H16   S    
C24   C25   A    
C3    C8    A    
C9    H25   S    
C24   H12   S    
C52   O21   S    
C40   O12   A    
Cr1   O17   S    
C30   C37   A    
C21   H5    S    
C47   O28   A    
C35   C36   A    
C22   H1    S    
C5    C9    A    
C29   C30   A    
C6    C14   A    
C31   C32   A    
C28   C38   S    
C43   O6    A    
Cr2   O14   S    
C34   C45   S    
Cr1   O1    S    
Cr3   O16   S    
C26   C47   S    
C27   C46   S    
C51   H6    S    
C52   H9    S    
C51   O20   S    
C47   O17   A    
Cr3   O23   S    
C22   C24   A    
C8    H26   S    
C51   H8    S    
Cr6   O2    S    
C54   H18   S    
Cr5   O32   S    
C15   C17   A    
C46   O10   A    
Cr1   O29   S    
O25   S1    S    
C27   C32   A    
C43   O7    A    
C3    C5    A    
Cr5   O33   S    
C7    O20   S    
C28   O19   A    
C4    O15   A    
Cr1   O18   S    
C39   O31   A    
C31   C38   A    
C41   O33   A    
C53   H14   S    
C16   C55   S    
C15   C43   S    
Cr5   O7    S    
H13   O25   S    
C6    C13   A    
C11   C13   A    
C42   O30   A    
C57   C58   S    
C19   O26   S    
C28   O18   A    
C23   C39   S    
C4    O14   A    
C44   O9    A    
C41   C48   S    
C56   C58   T    
Cr4   O31   S    
C17   C21   A    
C10   C11   A    
C14   C40   S    
Cr6   O10   S    
C41   O2    A    
C16   O1    A    
C49   C50   S    
C54   O27   S    
C21   C22   A    
C54   H17   S    
C13   H4    S    
