data_mof_unit_62761.cif
_audit_creation_date              2012-12-10T18:11:22-0500
_audit_creation_method            fapswitch 2.2
_symmetry_space_group_name_H-M    P1
_symmetry_Int_Tables_number       1
_space_group_crystal_system       monoclinic
_cell_length_a                    18.332446
_cell_length_b                    18.332446
_cell_length_c                    34.553494
_cell_angle_alpha                 90.0
_cell_angle_beta                  90.0
_cell_angle_gamma                 90.009428
_cell_volume                      11612.688914

loop_
_atom_site_label
_atom_site_type_symbol
_atom_type_description
_atom_site_fract_x
_atom_site_fract_y
_atom_site_fract_z
_atom_type_partial_charge
C1    C     C_R   0.438179 0.976436 0.041855 -0.112191
C2    C     C_R   0.063012 0.479891 0.458217 -0.110660
C3    C     C_R   0.696150 0.803849 0.750003 -0.004581
C4    C     C_R   0.803850 0.303855 0.249988 0.005287
C5    C     C_R   0.196145 0.696150 0.749988 0.005288
C6    C     C_R   0.696151 0.803850 0.250003 -0.004581
C7    C     C_R   0.303850 0.196151 0.750003 -0.004581
C8    C     C_R   0.196151 0.303850 0.750003 -0.004581
C9    C     C_R   0.803850 0.696151 0.250003 -0.004581
C10   C     C_R   0.303850 0.803855 0.749988 0.005288
C11   C     C_R   0.696145 0.196150 0.249988 0.005287
C12   C     C_R   0.803849 0.696150 0.750003 -0.004581
C13   C     C_R   0.476437 0.938178 0.541855 -0.112191
C14   C     C_R   0.196150 0.303849 0.250003 -0.004581
C15   C     C_R   0.696150 0.196145 0.749988 0.005288
C16   C     C_R   0.303855 0.803850 0.249988 0.005287
C17   C     C_R   0.500000 0.000000 0.102473 0.040018
C18   C     C_R   0.500000 0.000000 0.897576 0.046793
C19   C     C_R   1.000000 0.500000 0.102473 0.040018
C20   C     C_R   0.000000 0.500000 0.897576 0.046793
C21   C     C_R   0.000000 0.500000 0.602473 0.040019
C22   C     C_R   1.000000 0.500000 0.397576 0.046793
C23   C     C_R   0.500000 0.000000 0.602473 0.040019
C24   C     C_R   0.479891 0.063012 0.458217 -0.110661
C25   C     C_R   0.500000 0.000000 0.397576 0.046794
C26   C     C_1   0.316541 0.793086 0.178530 0.244563
C27   C     C_1   0.683386 0.207002 0.821434 0.243866
C28   C     C_1   0.099912 0.209514 0.258565 0.237665
C29   C     C_1   0.900088 0.790487 0.741448 0.238154
C30   C     C_1   0.683458 0.206915 0.178530 0.244562
C31   C     C_1   0.316615 0.792997 0.821434 0.243866
C32   C     C_1   0.900088 0.790486 0.258565 0.237665
C33   C     C_1   0.099912 0.209513 0.741448 0.238154
C34   C     C_1   0.209513 0.099912 0.741448 0.238154
C35   C     C_R   0.061821 0.523564 0.541855 -0.112191
C36   C     C_1   0.790486 0.900088 0.258565 0.237665
C37   C     C_1   0.207003 0.683385 0.821434 0.243866
C38   C     C_1   0.793085 0.316542 0.178530 0.244562
C39   C     C_1   0.790487 0.900088 0.741448 0.238154
C40   C     C_1   0.209513 0.099912 0.258565 0.237665
C41   C     C_1   0.792998 0.316614 0.821434 0.243866
C42   C     C_1   0.206914 0.683459 0.178530 0.244563
C43   C     C_1   0.816544 0.293083 0.678530 0.244562
C44   C     C_1   0.183388 0.706999 0.321434 0.243867
C45   C     C_1   0.599912 0.709514 0.758566 0.237665
C46   C     C_R   0.936987 0.520109 0.458217 -0.110660
C47   C     C_1   0.400088 0.290487 0.241449 0.238154
C48   C     C_1   0.183456 0.706917 0.678530 0.244562
C49   C     C_1   0.816613 0.293000 0.321434 0.243866
C50   C     C_1   0.400088 0.290486 0.758566 0.237665
C51   C     C_1   0.599912 0.709513 0.241449 0.238154
C52   C     C_1   0.709513 0.599912 0.241449 0.238154
C53   C     C_1   0.290486 0.400088 0.758566 0.237665
C54   C     C_1   0.707000 0.183387 0.321434 0.243866
C55   C     C_1   0.293082 0.816545 0.678530 0.244562
C56   C     C_1   0.290487 0.400088 0.241449 0.238154
C57   C     C_R   0.523563 0.061822 0.541855 -0.112191
C58   C     C_1   0.709514 0.599912 0.758566 0.237665
C59   C     C_1   0.293000 0.816612 0.321434 0.243867
C60   C     C_1   0.706917 0.183456 0.678530 0.244562
C61   C     C_R   0.520109 0.936988 0.458217 -0.110661
C62   C     C_R   0.437999 0.976952 0.082117 -0.108508
C63   C     C_R   0.563160 0.980393 0.917956 -0.106663
C64   C     C_R   0.976951 0.437999 0.082117 -0.108508
C65   C     C_R   0.563012 0.979891 0.958217 -0.110661
C66   C     C_R   0.980393 0.563160 0.917956 -0.106663
C67   C     C_R   0.562001 0.023048 0.082117 -0.108508
C68   C     C_R   0.436840 0.019607 0.917956 -0.106663
C69   C     C_R   0.023048 0.562001 0.082117 -0.108508
C70   C     C_R   0.019607 0.436840 0.917956 -0.106662
C71   C     C_R   0.937999 0.476952 0.582117 -0.108508
C72   C     C_R   0.063160 0.480393 0.417956 -0.106662
C73   C     C_R   0.476953 0.937998 0.582117 -0.108507
C74   C     C_R   0.480393 0.063159 0.417956 -0.106662
C75   C     C_R   0.062001 0.523048 0.582117 -0.108508
C76   C     C_R   0.976436 0.438179 0.041855 -0.112191
C77   C     C_R   0.936840 0.519607 0.417956 -0.106662
C78   C     C_R   0.523047 0.062001 0.582117 -0.108508
C79   C     C_R   0.519607 0.936841 0.417956 -0.106662
C80   C     C_R   0.500000 0.000000 0.021357 0.031516
C81   C     C_R   0.500000 0.000000 0.978715 0.034214
C82   C     C_R   1.000000 0.500000 0.021357 0.031516
C83   C     C_R   1.000000 0.500000 0.978715 0.034213
C84   C     C_R   0.000000 0.500000 0.521357 0.031516
C85   C     C_R   1.000000 0.500000 0.478715 0.034214
C86   C     C_R   0.500000 0.000000 0.521357 0.031517
C87   C     C_R   0.979891 0.563012 0.958217 -0.110661
C88   C     C_R   0.500000 0.000000 0.478715 0.034214
C89   C     C_R   0.500000 0.000000 0.355217 0.513338
C90   C     C_R   0.500000 0.000000 0.644800 0.512922
C91   C     C_R   1.000000 0.500000 0.355217 0.513338
C92   C     C_R   0.000000 0.500000 0.644800 0.512921
C93   C     C_R   0.000000 0.500000 0.855217 0.513338
C94   C     C_R   1.000000 0.500000 0.144800 0.512921
C95   C     C_R   0.500000 0.000000 0.855217 0.513338
C96   C     C_R   0.500000 0.000000 0.144800 0.512921
C97   C     C_R   0.360048 0.139951 0.250001 0.510424
C98   C     C_R   0.561821 0.023564 0.041855 -0.112191
C99   C     C_R   0.639951 0.860048 0.750001 0.510424
C100  C     C_R   0.860045 0.360057 0.249994 0.520590
C101  C     C_R   0.139943 0.639955 0.749994 0.520590
C102  C     C_R   0.639952 0.860049 0.250001 0.510424
C103  C     C_R   0.360049 0.139952 0.750001 0.510424
C104  C     C_R   0.139955 0.639943 0.249994 0.520590
C105  C     C_R   0.860057 0.360045 0.749994 0.520590
C106  C     C_R   0.360045 0.860057 0.749994 0.520590
C107  C     C_R   0.639943 0.139955 0.249994 0.520590
C108  C     C_R   0.860048 0.639951 0.750001 0.510424
C109  C     C_R   0.436988 0.020109 0.958217 -0.110661
C110  C     C_R   0.139951 0.360048 0.250001 0.510424
C111  C     C_R   0.639955 0.139943 0.749994 0.520590
C112  C     C_R   0.360057 0.860045 0.249994 0.520590
C113  C     C_R   0.139952 0.360049 0.750001 0.510424
C114  C     C_R   0.860049 0.639952 0.250001 0.510424
C115  C     C_R   0.281903 0.772095 0.214683 -0.040687
C116  C     C_R   0.718077 0.227928 0.785287 -0.042026
C117  C     C_R   0.175930 0.229920 0.253551 -0.049820
C118  C     C_R   0.824069 0.770079 0.746459 -0.049879
C119  C     C_R   0.718097 0.227905 0.214683 -0.040687
C120  C     C_R   0.023564 0.561821 0.041855 -0.112191
C121  C     C_R   0.281923 0.772071 0.785287 -0.042026
C122  C     C_R   0.824070 0.770080 0.253551 -0.049820
C123  C     C_R   0.175931 0.229921 0.746459 -0.049879
C124  C     C_R   0.229921 0.175931 0.746459 -0.049879
C125  C     C_R   0.770080 0.824070 0.253551 -0.049820
C126  C     C_R   0.227929 0.718077 0.785287 -0.042026
C127  C     C_R   0.772095 0.281903 0.214683 -0.040687
C128  C     C_R   0.770079 0.824069 0.746459 -0.049879
C129  C     C_R   0.229920 0.175929 0.253551 -0.049820
C130  C     C_R   0.772072 0.281923 0.785287 -0.042026
C131  C     C_R   0.020109 0.436988 0.958217 -0.110660
C132  C     C_R   0.227905 0.718097 0.214683 -0.040688
C133  C     C_R   0.781904 0.272094 0.714683 -0.040687
C134  C     C_R   0.218079 0.727927 0.285287 -0.042026
C135  C     C_R   0.675930 0.729920 0.753551 -0.049820
C136  C     C_R   0.324069 0.270079 0.246459 -0.049879
C137  C     C_R   0.218096 0.727907 0.714683 -0.040687
C138  C     C_R   0.781922 0.272072 0.285287 -0.042026
C139  C     C_R   0.324070 0.270080 0.753551 -0.049820
C140  C     C_R   0.675931 0.729921 0.246459 -0.049879
C141  C     C_R   0.729921 0.675931 0.246459 -0.049879
C142  C     C_R   0.938179 0.476436 0.541855 -0.112191
C143  C     C_R   0.270080 0.324070 0.753551 -0.049820
C144  C     C_R   0.727927 0.218078 0.285287 -0.042026
C145  C     C_R   0.272093 0.781904 0.714683 -0.040687
C146  C     C_R   0.270079 0.324069 0.246459 -0.049879
C147  C     C_R   0.729920 0.675930 0.753551 -0.049820
C148  C     C_R   0.272073 0.781921 0.285287 -0.042026
C149  C     C_R   0.727906 0.218096 0.714683 -0.040687
C150  C     C_R   0.196150 0.696145 0.249988 0.005287
C151  C     C_R   0.803855 0.303850 0.749988 0.005288
C152  C     C_R   0.303849 0.196150 0.250003 -0.004581
H1    H     H_    0.390269 0.956738 0.026800 0.121665
H2    H     H_    0.111937 0.462891 0.473274 0.116650
H3    H     H_    0.456740 0.890268 0.526800 0.121665
H4    H     H_    0.462890 0.111937 0.473274 0.116649
H5    H     H_    0.109731 0.543262 0.526800 0.121665
H6    H     H_    0.888063 0.537109 0.473274 0.116650
H7    H     H_    0.543260 0.109732 0.526800 0.121665
H8    H     H_    0.537110 0.888063 0.473274 0.116649
H9    H     H_    0.389783 0.958316 0.097310 0.155823
H10   H     H_    0.612368 0.964497 0.902794 0.143753
H11   H     H_    0.958315 0.389783 0.097310 0.155823
H12   H     H_    0.611937 0.962891 0.973274 0.116650
H13   H     H_    0.964497 0.612368 0.902794 0.143753
H14   H     H_    0.610217 0.041684 0.097310 0.155823
H15   H     H_    0.387632 0.035503 0.902794 0.143753
H16   H     H_    0.041685 0.610217 0.097310 0.155823
H17   H     H_    0.035502 0.387631 0.902794 0.143753
H18   H     H_    0.889783 0.458316 0.597310 0.155822
H19   H     H_    0.112369 0.464497 0.402794 0.143753
H20   H     H_    0.458318 0.889782 0.597310 0.155822
H21   H     H_    0.464496 0.112368 0.402794 0.143753
H22   H     H_    0.110217 0.541684 0.597310 0.155822
H23   H     H_    0.956738 0.390269 0.026800 0.121665
H24   H     H_    0.887631 0.535503 0.402794 0.143753
H25   H     H_    0.541682 0.110218 0.597310 0.155822
H26   H     H_    0.535504 0.887632 0.402794 0.143753
H27   H     H_    0.962891 0.611937 0.973274 0.116650
H28   H     H_    0.609731 0.043262 0.026800 0.121665
H29   H     H_    0.388063 0.037109 0.973274 0.116650
H30   H     H_    0.043262 0.609731 0.026800 0.121665
H31   H     H_    0.037109 0.388063 0.973274 0.116650
H32   H     H_    0.890269 0.456738 0.526800 0.121665
N1    N     N_1   0.344153 0.809824 0.149743 -0.276465
N2    N     N_1   0.806708 0.960642 0.262567 -0.252248
N3    N     N_1   0.190323 0.655727 0.850217 -0.262737
N4    N     N_1   0.809823 0.344154 0.149743 -0.276465
N5    N     N_1   0.806709 0.960642 0.737449 -0.251617
N6    N     N_1   0.193292 0.039358 0.262567 -0.252248
N7    N     N_1   0.809678 0.344272 0.850217 -0.262737
N8    N     N_1   0.190176 0.655847 0.149743 -0.276465
N9    N     N_1   0.844158 0.309819 0.649743 -0.276465
N10   N     N_1   0.155731 0.690318 0.350218 -0.262737
N11   N     N_1   0.539358 0.693293 0.762568 -0.252248
N12   N     N_1   0.655728 0.190322 0.850217 -0.262737
N13   N     N_1   0.460642 0.306709 0.237451 -0.251617
N14   N     N_1   0.155842 0.690180 0.649743 -0.276464
N15   N     N_1   0.844270 0.309680 0.350218 -0.262736
N16   N     N_1   0.460642 0.306707 0.762568 -0.252248
N17   N     N_1   0.539358 0.693291 0.237450 -0.251617
N18   N     N_1   0.693291 0.539358 0.237450 -0.251617
N19   N     N_1   0.306707 0.460642 0.762568 -0.252248
N20   N     N_1   0.690319 0.155730 0.350218 -0.262736
N21   N     N_1   0.309818 0.844159 0.649743 -0.276464
N22   N     N_1   0.306709 0.460642 0.237451 -0.251617
N23   N     N_1   0.039358 0.193292 0.262567 -0.252248
N24   N     N_1   0.693293 0.539358 0.762568 -0.252248
N25   N     N_1   0.309682 0.844269 0.350218 -0.262736
N26   N     N_1   0.690180 0.155843 0.649743 -0.276464
N27   N     N_1   0.960642 0.806709 0.737449 -0.251617
N28   N     N_1   0.655846 0.190177 0.149743 -0.276465
N29   N     N_1   0.344273 0.809677 0.850217 -0.262737
N30   N     N_1   0.960642 0.806708 0.262567 -0.252248
N31   N     N_1   0.039358 0.193291 0.737450 -0.251617
N32   N     N_1   0.193291 0.039358 0.737450 -0.251617
O1    O     O_3   0.500000 0.000000 0.250000 -0.463559
O2    O     O_R   0.500000 0.939280 0.663170 -0.538022
O3    O     O_R   0.939280 0.500000 0.336830 -0.538245
O4    O     O_R   0.060720 0.500000 0.663170 -0.538022
O5    O     O_R   1.000000 0.439280 0.836830 -0.538246
O6    O     O_R   0.000000 0.560720 0.163170 -0.538022
O7    O     O_R   0.560720 0.000000 0.836830 -0.538246
O8    O     O_R   0.439280 0.000000 0.163170 -0.538022
O9    O     O_R   0.000000 0.560720 0.836830 -0.538246
O10   O     O_R   1.000000 0.439280 0.163170 -0.538022
O11   O     O_R   0.439280 0.000000 0.836830 -0.538246
O12   O     O_3   0.500000 0.000000 0.750000 -0.463559
O13   O     O_R   0.560720 0.000000 0.163170 -0.538022
O14   O     O_R   0.414510 0.146140 0.272820 -0.532997
O15   O     O_R   0.585490 0.853860 0.727180 -0.530393
O16   O     O_R   0.853860 0.414510 0.272820 -0.523998
O17   O     O_R   0.146140 0.585490 0.727180 -0.525251
O18   O     O_R   0.585490 0.853860 0.272820 -0.532997
O19   O     O_R   0.414510 0.146140 0.727180 -0.530393
O20   O     O_R   0.146140 0.585490 0.272820 -0.523998
O21   O     O_R   0.853860 0.414510 0.727180 -0.525251
O22   O     O_R   0.414510 0.853860 0.727180 -0.525251
O23   O     O_3   1.000000 0.500000 0.250000 -0.463559
O24   O     O_R   0.585490 0.146140 0.272820 -0.523998
O25   O     O_R   0.853860 0.585490 0.727180 -0.530393
O26   O     O_R   0.146140 0.414510 0.272820 -0.532997
O27   O     O_R   0.585490 0.146140 0.727180 -0.525251
O28   O     O_R   0.414510 0.853860 0.272820 -0.523998
O29   O     O_R   0.146140 0.414510 0.727180 -0.530393
O30   O     O_R   0.853860 0.585490 0.272820 -0.532997
O31   O     O_R   0.914510 0.646140 0.772820 -0.532997
O32   O     O_R   0.085490 0.353860 0.227180 -0.530393
O33   O     O_R   0.353860 0.914510 0.772820 -0.523998
O34   O     O_3   0.000000 0.500000 0.750000 -0.463559
O35   O     O_R   0.646140 0.085490 0.227180 -0.525251
O36   O     O_R   0.085490 0.353860 0.772820 -0.532996
O37   O     O_R   0.914510 0.646140 0.227180 -0.530393
O38   O     O_R   0.646140 0.085490 0.772820 -0.523998
O39   O     O_R   0.353860 0.914510 0.227180 -0.525250
O40   O     O_R   0.914510 0.353860 0.227180 -0.525251
O41   O     O_R   0.085490 0.646140 0.772820 -0.523998
O42   O     O_R   0.353860 0.085490 0.227180 -0.530393
O43   O     O_R   0.646140 0.914510 0.772820 -0.532997
O44   O     O_R   0.085490 0.646140 0.227180 -0.525251
O45   O     O_R   0.500000 0.939280 0.336830 -0.538245
O46   O     O_R   0.914510 0.353860 0.772820 -0.523998
O47   O     O_R   0.646140 0.914510 0.227180 -0.530393
O48   O     O_R   0.353860 0.085490 0.772820 -0.532996
O49   O     O_R   0.500000 0.060720 0.663170 -0.538022
O50   O     O_R   0.060720 0.500000 0.336830 -0.538245
O51   O     O_R   0.939280 0.500000 0.663170 -0.538022
O52   O     O_R   0.500000 0.060720 0.336830 -0.538245
Zn1   Zn    Zn3+2 0.413200 0.000000 0.217600 0.980905
Zn2   Zn    Zn3+2 0.086800 0.500000 0.282400 0.980024
Zn3   Zn    Zn3+2 0.500000 0.913200 0.717600 0.980905
Zn4   Zn    Zn3+2 0.500000 0.086800 0.282400 0.980024
Zn5   Zn    Zn3+2 0.086800 0.500000 0.717600 0.980905
Zn6   Zn    Zn3+2 0.913200 0.500000 0.282400 0.980024
Zn7   Zn    Zn3+2 0.500000 0.086800 0.717600 0.980905
Zn8   Zn    Zn3+2 0.500000 0.913200 0.282400 0.980024
Zn9   Zn    Zn3+2 0.586800 0.000000 0.782400 0.980024
Zn10  Zn    Zn3+2 0.000000 0.413200 0.217600 0.980905
Zn11  Zn    Zn3+2 0.000000 0.586800 0.782400 0.980024
Zn12  Zn    Zn3+2 0.586800 0.000000 0.217600 0.980905
Zn13  Zn    Zn3+2 0.413200 0.000000 0.782400 0.980024
Zn14  Zn    Zn3+2 1.000000 0.586800 0.217600 0.980905
Zn15  Zn    Zn3+2 0.000000 0.413200 0.782400 0.980024
Zn16  Zn    Zn3+2 0.913200 0.500000 0.717600 0.980905

loop_
_geom_bond_atom_site_label_1
_geom_bond_atom_site_label_2
_ccdc_geom_bond_type
O12   Zn13  S    
C45   N11   T    
C63   H10   S    
C83   C87   A    
C40   C129  S    
C63   C65   A    
C18   C95   S    
C47   C136  S    
O1    Zn8   S    
C78   H25   S    
C132  C150  A    
O34   Zn15  S    
C104  O20   A    
C54   C144  S    
C36   C125  S    
C133  C151  A    
C82   C120  A    
C7    C124  A    
O6    Zn14  S    
C10   C121  A    
C11   C119  A    
C1    C62   A    
C43   C133  S    
C38   C127  S    
C33   N31   T    
C123  C124  A    
O45   Zn8   S    
C114  O30   A    
C108  O31   A    
C35   C75   A    
C53   N19   T    
C113  O36   A    
O33   Zn13  S    
C48   C137  S    
C21   C71   A    
C9    C114  S    
O26   Zn2   S    
C106  O33   A    
O40   Zn10  S    
C70   H17   S    
C101  O17   A    
C28   C117  S    
C30   N28   T    
C41   C130  S    
C39   N5    T    
O38   Zn9   S    
C38   N4    T    
C18   C63   A    
C55   C145  S    
C62   H9    S    
C30   C119  S    
O12   Zn7   S    
C18   C68   A    
O47   Zn12  S    
C46   H6    S    
O23   Zn10  S    
C142  H32   S    
O18   Zn8   S    
C57   C86   A    
C65   H12   S    
C2    C85   A    
O29   Zn5   S    
C25   C74   A    
C104  O44   A    
O34   Zn5   S    
C104  C150  S    
C92   O4    A    
O21   Zn16  S    
C26   C115  S    
C13   H3    S    
C67   C98   A    
O8    Zn1   S    
O35   Zn12  S    
C92   O51   A    
C131  H31   S    
O49   Zn7   S    
O1    Zn12  S    
O52   Zn4   S    
C105  O46   A    
C96   O8    A    
O15   Zn3   S    
C5    C126  A    
C34   C124  S    
C103  O48   A    
C93   O9    A    
O44   Zn14  S    
C58   N24   T    
C91   O50   A    
C117  C129  A    
C11   C144  A    
O32   Zn10  S    
C4    C127  A    
C91   O3    A    
C60   C149  S    
C46   C85   A    
C32   N30   T    
C27   C116  S    
C111  O38   A    
C57   H7    S    
C2    H2    S    
C7    C103  S    
C49   C138  S    
C75   H22   S    
C6    C140  A    
O48   Zn13  S    
C43   N9    T    
C20   C70   A    
C94   O10   A    
C139  C143  A    
C23   C73   A    
C64   H11   S    
C2    C72   A    
O11   Zn13  S    
C22   C72   A    
C136  C152  A    
C52   N18   T    
C97   O42   A    
C29   N27   T    
C50   C139  S    
C115  C132  A    
C51   N17   T    
C44   C134  S    
C55   N21   T    
O23   Zn14  S    
C5    C101  S    
C17   C67   A    
C3    C135  A    
C45   C135  S    
C41   N7    T    
C86   C88   S    
C54   N20   T    
C72   H19   S    
O16   Zn6   S    
C100  O16   A    
O5    Zn15  S    
C133  C149  A    
C140  C141  A    
C31   C121  S    
C129  C152  A    
O50   Zn2   S    
O36   Zn15  S    
C76   C82   A    
C66   C87   A    
C12   C108  S    
C9    C141  A    
C58   C147  S    
C42   C132  S    
C112  O39   A    
O7    Zn9   S    
C25   C89   S    
C10   C145  A    
C20   C93   S    
C4    C138  A    
C82   C83   S    
O3    Zn6   S    
C95   O7    A    
C23   C78   A    
O39   Zn1   S    
C101  O41   A    
C53   C143  S    
C116  C130  A    
C108  O25   A    
C35   H5    S    
C83   C131  A    
C61   C88   A    
C15   C111  S    
C17   C62   A    
C3    C128  A    
C110  O26   A    
C65   C81   A    
O46   Zn15  S    
C16   C112  S    
C99   O43   A    
C19   C64   A    
C22   C91   S    
C14   C117  A    
O17   Zn5   S    
C90   O49   A    
O20   Zn2   S    
C9    C122  A    
C64   C76   A    
C79   H26   S    
C40   N6    T    
C17   C96   S    
C96   O13   A    
C84   C85   S    
C73   H20   S    
C1    H1    S    
C24   C88   A    
C20   C66   A    
C19   C94   S    
C8    C113  S    
C74   H21   S    
C71   C142  A    
C12   C118  A    
C67   H14   S    
C7    C139  A    
C81   C109  A    
O41   Zn11  S    
C77   H24   S    
C135  C147  A    
C4    C100  S    
C11   C107  S    
O42   Zn1   S    
C6    C125  A    
C61   H8    S    
C89   O45   A    
O25   Zn16  S    
C98   H28   S    
C16   C115  A    
O27   Zn7   S    
C15   C149  A    
C33   C123  S    
O37   Zn14  S    
C12   C147  A    
C32   C122  S    
O28   Zn8   S    
C37   C126  S    
C49   N15   T    
C109  H29   S    
C14   C110  S    
C114  O37   A    
C3    C99   S    
C102  O18   A    
C103  O19   A    
C39   C128  S    
O13   Zn12  S    
O23   Zn2   S    
C80   C98   A    
O4    Zn5   S    
C25   C79   A    
O34   Zn16  S    
C57   C78   A    
C76   H23   S    
C47   N13   T    
O10   Zn10  S    
C52   C141  S    
C22   C77   A    
C13   C73   A    
C80   C81   S    
O12   Zn3   S    
C46   C77   A    
C99   O15   A    
C35   C84   A    
C113  O29   A    
C8    C123  A    
C5    C137  A    
C31   N29   T    
C110  O32   A    
O12   Zn9   S    
O9    Zn11  S    
O1    Zn4   S    
C134  C148  A    
C29   C118  S    
C14   C146  A    
C69   C120  A    
C59   N25   T    
O2    Zn3   S    
C107  O35   A    
C16   C148  A    
C89   O52   A    
C111  O27   A    
O34   Zn11  S    
O24   Zn4   S    
C122  C125  A    
C95   O11   A    
O19   Zn7   S    
C69   H16   S    
C121  C126  A    
C137  C145  A    
C138  C144  A    
C51   C140  S    
C23   C90   S    
C24   C74   A    
C37   N3    T    
C107  O24   A    
O14   Zn4   S    
O51   Zn16  S    
C61   C79   A    
O31   Zn11  S    
O1    Zn1   S    
O30   Zn6   S    
C70   C131  A    
C26   N1    T    
C120  H30   S    
C60   N26   T    
C84   C142  A    
C8    C143  A    
C36   N2    T    
C68   C109  A    
C6    C102  S    
C13   C86   A    
C56   C146  S    
O22   Zn3   S    
C28   N23   T    
C71   H18   S    
C90   O2    A    
C93   O5    A    
O43   Zn9   S    
C19   C69   A    
C66   H13   S    
C87   H27   S    
C102  O47   A    
C68   H15   S    
C42   N8    T    
C112  O28   A    
C105  C151  S    
C56   N22   T    
C44   N10   T    
C21   C75   A    
C106  O22   A    
O23   Zn6   S    
C48   N14   T    
C130  C151  A    
C94   O6    A    
C10   C106  S    
C105  O21   A    
C15   C116  A    
C1    C80   A    
C97   C152  S    
C34   N32   T    
C27   N12   T    
C100  O40   A    
C134  C150  A    
C50   N16   T    
C118  C128  A    
C97   O14   A    
C136  C146  A    
C24   H4    S    
C119  C127  A    
C21   C92   S    
C59   C148  S    
