data_mof_unit_31486.cif
_audit_creation_date              2012-12-10T17:12:30-0500
_audit_creation_method            fapswitch 2.2
_symmetry_space_group_name_H-M    P1
_symmetry_Int_Tables_number       1
_space_group_crystal_system       triclinic
_cell_length_a                    11.683428
_cell_length_b                    12.980606
_cell_length_c                    11.744733
_cell_angle_alpha                 100.279386
_cell_angle_beta                  93.532913
_cell_angle_gamma                 91.416641
_cell_volume                      1748.10515851

loop_
_atom_site_label
_atom_site_type_symbol
_atom_type_description
_atom_site_fract_x
_atom_site_fract_y
_atom_site_fract_z
_atom_type_partial_charge
C1    C     C_R   0.498699 0.298958 0.477580 0.831935
C2    C     C_R   0.501299 0.701042 0.522420 0.831929
C3    C     C_R   0.355945 0.450035 0.031827 0.348767
C4    C     C_R   0.644056 0.549964 0.968173 0.348766
C5    C     C_R   0.378022 0.444651 0.151120 -0.159224
C6    C     C_R   0.621979 0.555347 0.848879 -0.159233
C7    C     C_R   0.562666 0.524849 0.153902 0.632156
C8    C     C_R   0.437334 0.475151 0.846098 0.632159
C9    C     C_R   0.552507 0.518621 0.030565 -0.238608
C10   C     C_R   0.447493 0.481379 0.969435 -0.238604
C11   C     C_R   0.284060 0.499742 0.500342 0.813150
C12   C     C_R   0.715940 0.500258 0.499658 0.813150
C13   C     C_1   0.162444 0.499777 0.500915 -0.169150
C14   C     C_1   0.837556 0.500222 0.499085 -0.169150
C15   C     C_1   0.059908 0.499897 0.500470 -0.004641
C16   C     C_1   0.940092 0.500103 0.499530 -0.004641
C17   C     C_R   0.503861 0.815248 0.537597 -0.226059
C18   C     C_R   0.496135 0.184752 0.462403 -0.226060
C19   C     C_R   0.443734 0.011868 0.350786 0.358329
C20   C     C_R   0.556259 0.988133 0.649215 0.358320
C21   C     C_R   0.457875 0.120275 0.356016 0.331867
C22   C     C_R   0.542116 0.879726 0.643986 0.331863
C23   C     C_R   0.531272 0.139851 0.557533 -0.303161
C24   C     C_R   0.468727 0.860149 0.442466 -0.303165
C25   C     C_R   0.522248 0.032199 0.551944 -0.048535
C26   C     C_R   0.477749 0.967801 0.448055 -0.048545
Cu1   Cu    Cu3+1 0.508350 0.507730 0.615930 0.974623
Cu2   Cu    Cu3+1 0.491650 0.492270 0.384070 0.974619
H1    H     H_    0.433679 0.810556 0.363428 0.210186
H2    H     H_    0.566323 0.189443 0.636570 0.210187
H3    H     H_    0.687251 0.583678 0.800305 0.163016
H4    H     H_    0.312750 0.416319 0.199695 0.163015
N1    N     N_R   0.520920 0.519350 0.790130 -0.234569
N2    N     N_R   0.479080 0.480650 0.209870 -0.234573
O1    O     O_R   0.505930 0.354460 0.582000 -0.590696
O2    O     O_R   0.494070 0.645540 0.418000 -0.590696
O3    O     O_R   0.491820 0.341410 0.386200 -0.543899
O4    O     O_R   0.508180 0.658590 0.613800 -0.543888
O5    O     O_R   0.344250 0.506540 0.597900 -0.519783
O6    O     O_R   0.655750 0.493460 0.402100 -0.519783
O7    O     O_R   0.330140 0.493480 0.402100 -0.598851
O8    O     O_R   0.669860 0.506520 0.597900 -0.598852
O9    O     O_3   0.575842 0.837102 0.740228 -0.568593
C27   C     C_3   0.489038 0.850814 0.820011 0.132655
H5    H     H_    0.421349 0.787799 0.794115 0.149097
H6    H     H_    0.447849 0.928093 0.826353 0.145101
C28   C     C_3   0.541157 0.843915 0.940277 -0.801489
H7    H     H_    0.607211 0.907849 0.968844 0.249464
H8    H     H_    0.473387 0.851803 0.003180 0.225025
H9    H     H_    0.581574 0.767403 0.939131 0.233225
O10   O     O_3   0.424136 0.162900 0.259778 -0.568600
C29   C     C_3   0.510927 0.149190 0.179981 0.132685
H10   H     H_    0.552142 0.071922 0.173654 0.145074
H11   H     H_    0.578601 0.212223 0.205849 0.149104
C30   C     C_3   0.458778 0.156049 0.059713 -0.801462
H12   H     H_    0.418335 0.232551 0.060844 0.233204
H13   H     H_    0.526539 0.148163 0.996796 0.225024
H14   H     H_    0.392736 0.092096 0.031172 0.249465
O11   O     O_3   0.403886 0.948538 0.247596 -0.594650
C31   C     C_3   0.282816 0.943566 0.242279 0.080411
H15   H     H_    0.247517 0.022191 0.240273 0.175605
H16   H     H_    0.250840 0.912799 0.317672 0.130251
C32   C     C_3   0.238509 0.869828 0.131934 -0.818802
H17   H     H_    0.272705 0.790607 0.131110 0.250459
H18   H     H_    0.143300 0.863825 0.127543 0.201859
H19   H     H_    0.265991 0.900072 0.054828 0.242417
O12   O     O_3   0.596099 0.051464 0.752406 -0.594660
C33   C     C_3   0.717170 0.056432 0.757738 0.080408
H20   H     H_    0.749157 0.087192 0.682344 0.130250
H21   H     H_    0.752463 0.977807 0.759755 0.175609
C34   C     C_3   0.761467 0.130176 0.868081 -0.818797
H22   H     H_    0.733971 0.099941 0.945188 0.242423
H23   H     H_    0.856678 0.136174 0.872485 0.201858
H24   H     H_    0.727279 0.209398 0.868892 0.250456
O13   O     O_3   0.344634 0.421761 0.780534 -0.516662
C35   C     C_3   0.357045 0.312385 0.772741 0.147644
H25   H     H_    0.445804 0.288609 0.755094 0.129383
H26   H     H_    0.336367 0.286498 0.854390 0.147671
C36   C     C_3   0.274460 0.253997 0.676013 -0.765244
H27   H     H_    0.184631 0.271702 0.695744 0.237817
H28   H     H_    0.290937 0.278018 0.592346 0.241088
H29   H     H_    0.285486 0.168279 0.667465 0.192517
O14   O     O_3   0.655366 0.578239 0.219466 -0.516662
C37   C     C_3   0.642955 0.687615 0.227259 0.147644
H30   H     H_    0.554196 0.711391 0.244905 0.129382
H31   H     H_    0.663634 0.713501 0.145610 0.147675
C38   C     C_3   0.725540 0.746003 0.323987 -0.765249
H32   H     H_    0.714516 0.831721 0.332534 0.192516
H33   H     H_    0.709061 0.721983 0.407655 0.241088
H34   H     H_    0.815369 0.728295 0.304258 0.237818
O15   O     O_3   0.246357 0.434648 0.974697 -0.542532
C39   C     C_3   0.166275 0.380641 0.030080 0.049022
H35   H     H_    0.139758 0.432377 0.109421 0.148224
H36   H     H_    0.201903 0.307049 0.051482 0.134118
C40   C     C_3   0.059543 0.350920 0.948718 -0.755589
H37   H     H_    0.023963 0.421776 0.921047 0.258743
H38   H     H_    0.081076 0.294615 0.870956 0.233783
H39   H     H_    0.993406 0.313632 0.993691 0.201143
O16   O     O_3   0.753644 0.565352 0.025303 -0.542530
C41   C     C_3   0.833723 0.619363 0.969922 0.049024
H40   H     H_    0.798091 0.692953 0.948521 0.134123
H41   H     H_    0.860243 0.567630 0.890581 0.148223
C42   C     C_3   0.940454 0.649087 0.051285 -0.755597
H42   H     H_    0.976035 0.578233 0.078957 0.258744
H43   H     H_    0.006589 0.686377 0.006313 0.201143
H44   H     H_    0.918918 0.705391 0.129047 0.233782

loop_
_geom_bond_atom_site_label_1
_geom_bond_atom_site_label_2
_ccdc_geom_bond_type
C7    O14   S    
C30   H12   S    
C32   H18   S    
C18   C21   A    
C20   O12   S    
C40   H37   S    
C37   C38   S    
C38   H32   S    
C40   H39   S    
C28   H8    S    
Cu1   N1    S    
C1    C18   S    
C31   C32   S    
C31   H16   S    
C19   C21   A    
C35   H26   S    
C20   C25   A    
Cu2   O6    S    
Cu1   O4    S    
C15   C16   S    
Cu2   O7    S    
C3    O15   S    
C19   C26   A    
C24   H1    S    
C39   H35   S    
C12   O8    A    
O14   C37   S    
C27   H6    S    
C33   H20   S    
C28   H7    S    
C35   C36   S    
C9    C10   A    
C29   C30   S    
C1    O3    A    
C5    H4    S    
C23   C25   A    
C6    H3    S    
C32   H19   S    
Cu2   N2    S    
O11   C31   S    
C6    N1    A    
C2    C17   S    
O12   C33   S    
C39   H36   S    
C29   H11   S    
C28   H9    S    
C17   C24   A    
C18   C23   A    
C23   H2    S    
C35   H25   S    
C4    C6    A    
Cu1   O5    S    
O15   C39   S    
C34   H23   S    
Cu1   O1    S    
C25   C26   A    
C39   C40   S    
O10   C29   S    
C31   H15   S    
C12   O6    A    
O13   C35   S    
C36   H29   S    
C2    O4    A    
C22   O9    S    
C5    N2    A    
C41   H41   S    
C42   H43   S    
C37   H30   S    
C11   O5    A    
C8    C10   A    
C20   C22   A    
C30   H13   S    
O9    C27   S    
C7    N2    A    
C14   C16   T    
C36   H27   S    
C4    O16   S    
C21   O10   S    
C29   H10   S    
C1    O1    A    
C36   H28   S    
C2    O2    A    
C7    C9    A    
C40   H38   S    
C27   H5    S    
C24   C26   A    
C3    C5    A    
C34   H24   S    
C27   C28   S    
C17   C22   A    
O16   C41   S    
C19   O11   S    
C13   C15   T    
C12   C14   S    
C34   H22   S    
C3    C10   A    
C11   C13   S    
Cu1   O8    S    
C30   H14   S    
Cu2   O3    S    
C33   C34   S    
C41   H40   S    
C11   O7    A    
C42   H44   S    
C8    N1    A    
C8    O13   S    
C41   C42   S    
C32   H17   S    
Cu2   O2    S    
C33   H21   S    
C38   H34   S    
C42   H42   S    
C38   H33   S    
C37   H31   S    
C4    C9    A    
Cu1   Cu2   S    
