data_mof_unit_56317.cif
_audit_creation_date              2013-03-05T15:51:39-0500
_audit_creation_method            fapswitch 2.2
_symmetry_space_group_name_H-M    P1
_symmetry_Int_Tables_number       1
_space_group_crystal_system       triclinic
_cell_length_a                    10.675165
_cell_length_b                    10.831687
_cell_length_c                    9.629922
_cell_angle_alpha                 91.936951
_cell_angle_beta                  89.566354
_cell_angle_gamma                 96.654013
_cell_volume                      1105.36827625

loop_
_atom_site_label
_atom_site_type_symbol
_atom_site_description
_atom_site_fract_x
_atom_site_fract_y
_atom_site_fract_z
_atom_type_partial_charge
O1    O     O_R   0.499990 0.319640 0.618810 -0.574662
O2    O     O_R   0.500000 0.319660 0.381240 -0.569764
C1    C     C_R   0.489096 0.261729 0.498622 0.848014
O3    O     O_R   0.316850 0.499960 0.618770 -0.615227
O4    O     O_R   0.316860 0.499980 0.381190 -0.547155
C2    C     C_R   0.259081 0.496286 0.499800 0.823583
Cu1   Cu    Cu3+1 0.499990 0.499990 0.640660 0.996806
Cu2   Cu    Cu3+1 0.500010 0.500010 0.359340 0.996953
O5    O     O_R   0.500000 0.680340 0.618760 -0.538872
O6    O     O_R   0.500010 0.680360 0.381190 -0.614560
O7    O     O_R   0.683140 0.500020 0.618810 -0.572199
O8    O     O_R   0.683150 0.500040 0.381230 -0.605118
C3    C     C_R   0.495640 0.736933 0.502250 0.827064
C4    C     C_R   0.740755 0.504700 0.499843 0.863630
C5    C     C_3   0.034893 0.466185 0.623822 -0.206631
C6    C     C_3   0.938935 0.388224 0.525764 -0.256168
H1    H     H_    0.886399 0.296085 0.546671 0.169461
H2    H     H_    0.065195 0.437503 0.726747 0.188525
C7    C     C_3   0.877539 0.506024 0.499359 -0.028975
C8    C     C_3   0.970804 0.584184 0.597514 -0.090299
C9    C     C_3   0.059246 0.614068 0.471754 -0.168213
C10   C     C_3   0.963359 0.536474 0.373557 -0.118738
C11   C     C_3   0.026616 0.420628 0.402062 0.331680
C12   C     C_3   0.121956 0.496219 0.498336 -0.106539
H3    H     H_    0.949205 0.652594 0.679297 0.178229
H4    H     H_    0.110024 0.706840 0.450126 0.180197
H5    H     H_    0.933344 0.559172 0.268738 0.183503
H6    H     H_    0.604109 0.118711 0.323945 0.186527
C13   C     C_R   0.305128 0.107095 0.678712 0.121543
C14   C     C_R   0.248078 0.040843 0.791800 0.317860
C15   C     C_R   0.267388 0.917121 0.805283 -0.214944
H7    H     H_    0.218182 0.862221 0.885171 0.209850
C16   C     C_R   0.339682 0.859081 0.708897 -0.207710
H8    H     H_    0.335455 0.760062 0.717419 0.193130
C17   C     C_R   0.410529 0.927195 0.606092 0.076482
C18   C     C_R   0.399556 0.055757 0.597022 0.042304
C19   C     C_R   0.474389 0.125775 0.496732 -0.072068
C20   C     C_R   0.547211 0.066334 0.400453 -0.185939
H9    H     H_    0.610035 0.896736 0.328500 0.185229
C21   C     C_R   0.551786 0.939877 0.404304 -0.132723
C22   C     C_R   0.486401 0.869977 0.506862 -0.039799
H10   H     H_    0.339340 0.370270 0.123558 0.212907
C23   C     C_R   0.689658 0.647887 0.152010 -0.237024
H11   H     H_    0.681328 0.670233 0.259666 0.229859
C24   C     C_R   0.800440 0.697635 0.087715 0.270488
C25   C     C_R   0.808652 0.686310 0.944366 -0.288075
H12   H     H_    0.888400 0.737823 0.894053 0.215135
C26   C     C_R   0.699371 0.650202 0.867158 0.299379
C27   C     C_R   0.596013 0.573474 0.928756 0.104325
C28   C     C_R   0.594416 0.572479 0.078015 0.140929
N1    N     N_R   0.501210 0.501210 0.147910 -0.198044
C29   C     C_R   0.411321 0.429369 0.071206 0.014055
H13   H     H_    0.337881 0.373497 0.866646 0.171106
C30   C     C_R   0.410791 0.430196 0.923811 -0.023874
N2    N     N_R   0.501250 0.501290 0.852040 -0.209843
N3    N     N_R   0.899266 0.769918 0.166225 0.140944
O9    O     O_R   0.879523 0.807676 0.293458 -0.365874
O10   O     O_R   0.010533 0.797249 0.111680 -0.328346
N4    N     N_R   0.677788 0.741839 0.770704 0.154898
O11   O     O_R   0.612480 0.830202 0.813500 -0.342778
O12   O     O_R   0.755521 0.763540 0.667291 -0.391377
N5    N     N_R   0.049933 0.331558 0.290626 0.120249
O13   O     O_R   0.956364 0.279992 0.215247 -0.301710
O14   O     O_R   0.161455 0.297205 0.271148 -0.359347
N6    N     N_2   0.236785 0.195583 0.617016 -0.457589
H14   H     H_    0.207502 0.261732 0.685055 0.277667
C31   C     C_3   0.134825 0.134675 0.532027 -0.529234
H15   H     H_    0.075099 0.202903 0.497578 0.240185
H16   H     H_    0.073028 0.065695 0.592066 0.232380
H17   H     H_    0.173120 0.087466 0.439478 0.264869
N7    N     N_R   0.154395 0.090877 0.878444 0.134751
O15   O     O_R   0.171496 0.205460 0.925403 -0.371983
O16   O     O_R   0.057449 0.018487 0.922622 -0.273300

loop_
_geom_bond_atom_site_label_1
_geom_bond_atom_site_label_2
_geom_bond_distance
_ccdc_geom_bond_type
C5    H2    1.110182 S    
C9    H4    1.110498 S    
C7    C8    1.538273 S    
Cu1   N2    2.035282 S    
C3    C22   1.454978 S    
C14   N7    1.439604 S    
Cu1   Cu2   2.709095 S    
H13   C30   1.076503 S    
Cu1   O7    1.964825 S    
C13   C18   1.425675 A    
N5    O13   1.300347 A    
C18   C19   1.429518 A    
C19   C20   1.393991 A    
O4    C2    1.293597 A    
O7    C4    1.295913 A    
C8    H3    1.104486 S    
C5    C6    1.553831 S    
N3    O9    1.301957 A    
O5    C3    1.300262 A    
N5    O14   1.298278 A    
C30   N2    1.362617 A    
C11   N5    1.458070 S    
C17   C18   1.416588 A    
C24   N3    1.441613 S    
C6    H1    1.110525 S    
N6    C31   1.449256 S    
C11   C12   1.528284 S    
C15   C16   1.383661 A    
N4    O11   1.302156 A    
C9    C10   1.552400 S    
O3    Cu1   1.967929 S    
C29   C30   1.419793 A    
C16   H8    1.074151 S    
C5    C8    1.546942 S    
C25   C26   1.398014 A    
N4    O12   1.301428 A    
C31   H15   1.091655 S    
C7    C10   1.534909 S    
O3    C2    1.302451 A    
H9    C21   1.084124 S    
N7    O16   1.301805 A    
C27   N2    1.403367 A    
N1    C29   1.367758 A    
C31   H16   1.112173 S    
C23   H11   1.062036 S    
C13   C14   1.418937 A    
C15   H7    1.083419 S    
H6    C20   1.084081 S    
Cu2   O8    1.967928 S    
C2    C12   1.463915 S    
C28   N1    1.373297 A    
C5    C12   1.539302 S    
C23   C24   1.391426 A    
Cu2   N1    2.036469 S    
C13   N6    1.418116 S    
C26   C27   1.439063 A    
O8    C4    1.298050 A    
N6    H14   1.028337 S    
C6    C11   1.534147 S    
C10   H5    1.105402 S    
C26   N4    1.421131 S    
Cu1   O5    1.971906 S    
C25   H12   1.082954 S    
C21   C22   1.397678 A    
O1    Cu1   1.957710 S    
C4    C7    1.458573 S    
O2    Cu2   1.971909 S    
O6    C3    1.301643 A    
O4    Cu2   1.964826 S    
C23   C28   1.409903 A    
C31   H17   1.111328 S    
O2    C1    1.309224 A    
N7    O15   1.299622 A    
C20   C21   1.378010 A    
C14   C15   1.389767 A    
C6    C7    1.529902 S    
C16   C17   1.416037 A    
N3    O10   1.301524 A    
C17   C22   1.420510 A    
C24   C25   1.384763 A    
C8    C9    1.549580 S    
C1    C19   1.462274 S    
Cu2   O6    1.957710 S    
C27   C28   1.437709 A    
C9    C12   1.538133 S    
C10   C11   1.525893 S    
O1    C1    1.297162 A    
H10   C29   1.075342 S    
