data_mof_unit_30074.cif
_audit_creation_date              2012-12-10T19:46:52-0500
_audit_creation_method            fapswitch 2.2
_symmetry_space_group_name_H-M    P1
_symmetry_Int_Tables_number       1
_space_group_crystal_system       triclinic
_cell_length_a                    10.962068
_cell_length_b                    10.943328
_cell_length_c                    13.123136
_cell_angle_alpha                 92.031891
_cell_angle_beta                  91.833655
_cell_angle_gamma                 90.490809
_cell_volume                      1572.40155029

loop_
_atom_site_label
_atom_site_type_symbol
_atom_type_description
_atom_site_fract_x
_atom_site_fract_y
_atom_site_fract_z
_atom_type_partial_charge
C1    C     C_R   0.496990 0.259336 0.498145 0.872289
C2    C     C_R   0.502451 0.740608 0.501813 0.828167
C3    C     C_R   0.873099 0.496630 0.504158 -0.110530
C4    C     C_R   0.126926 0.503472 0.495555 -0.099686
C5    C     C_R   0.944605 0.496988 0.595675 0.008724
C6    C     C_R   0.055308 0.501425 0.403885 0.023704
C7    C     C_R   0.363960 0.207347 0.165375 -0.286190
C8    C     C_R   0.740805 0.846021 0.800662 -0.337801
C9    C     C_R   0.368888 0.169734 0.266359 0.569015
C10   C     C_R   0.694713 0.881920 0.705062 0.537619
C11   C     C_R   0.470675 0.104109 0.301547 -0.067501
C12   C     C_R   0.567990 0.894751 0.690014 -0.025240
C13   C     C_R   0.562100 0.071364 0.233461 -0.285428
C14   C     C_R   0.488861 0.871724 0.769042 -0.353322
C15   C     C_R   0.556208 0.105328 0.131839 0.591187
C16   C     C_R   0.535740 0.838485 0.865667 0.579578
C17   C     C_R   0.455474 0.175048 0.098256 -0.337186
C18   C     C_R   0.661678 0.822670 0.879105 -0.202378
C19   C     C_R   0.475877 0.928660 0.411160 -0.270942
C20   C     C_R   0.513407 0.070633 0.589474 -0.223372
C21   C     C_R   0.498705 0.872928 0.503879 -0.081364
C22   C     C_R   0.493994 0.126780 0.496117 -0.076533
C23   C     C_R   0.259374 0.501968 0.498158 0.852538
C24   C     C_R   0.740594 0.497237 0.501735 0.816200
C25   C     C_R   0.520043 0.944654 0.593899 0.087609
C26   C     C_R   0.477362 0.054845 0.405178 0.077434
C27   C     C_1   0.499785 0.499831 0.173563 0.136094
C28   C     C_1   0.499860 0.499779 0.826418 0.135544
C29   C     C_1   0.499531 0.499538 0.050655 -0.004641
C30   C     C_1   0.499736 0.499470 0.949288 0.003383
C31   C     C_R   0.199641 0.600154 0.160699 -0.270326
C32   C     C_R   0.795648 0.370833 0.826087 -0.209815
C33   C     C_R   0.168544 0.598160 0.263313 -0.182979
C34   C     C_R   0.831764 0.383424 0.725946 -0.160942
C35   C     C_R   0.103988 0.498274 0.299623 0.147591
C36   C     C_R   0.894459 0.488698 0.698765 0.129561
C37   C     C_R   0.069535 0.401502 0.231461 -0.205876
C38   C     C_R   0.921905 0.580177 0.773668 -0.240047
C39   C     C_R   0.098395 0.404404 0.128906 -0.211660
C40   C     C_R   0.885226 0.568190 0.873733 -0.201991
C41   C     C_R   0.162208 0.503527 0.091421 0.558231
C42   C     C_R   0.822230 0.461569 0.902017 0.582002
C43   C     C_R   0.929298 0.499136 0.410142 -0.247295
C44   C     C_R   0.070562 0.502361 0.589773 -0.239944
Cu1   Cu    Cu3+1 0.499990 0.499990 0.592680 0.977683
Cu2   Cu    Cu3+1 0.500010 0.500010 0.407320 0.995508
H1    H     H_    0.638192 0.016580 0.259349 0.174655
H2    H     H_    0.391733 0.881924 0.755068 0.152026
H3    H     H_    0.460594 0.873496 0.341472 0.163634
H4    H     H_    0.531068 0.125250 0.659126 0.151219
H5    H     H_    0.251928 0.677504 0.136428 0.141223
H6    H     H_    0.747554 0.288612 0.844613 0.124951
H7    H     H_    0.193428 0.675151 0.314136 0.133978
H8    H     H_    0.812542 0.310103 0.669927 0.147316
H9    H     H_    0.017114 0.324895 0.257365 0.158245
H10   H     H_    0.974378 0.660040 0.755103 0.125194
H11   H     H_    0.069634 0.329195 0.077589 0.165651
H12   H     H_    0.908859 0.641958 0.927786 0.116776
H13   H     H_    0.874392 0.499306 0.339849 0.158448
H14   H     H_    0.125229 0.502229 0.660186 0.168272
H15   H     H_    0.444962 0.202840 0.020256 0.158642
H16   H     H_    0.699015 0.796719 0.952434 0.170565
H17   H     H_    0.287563 0.259410 0.137948 0.182220
H18   H     H_    0.838073 0.840023 0.815774 0.158540
N1    N     N_1   0.500030 0.500030 0.268070 -0.137577
N2    N     N_1   0.499970 0.499970 0.731930 -0.141700
O1    O     O_R   0.499980 0.319630 0.578260 -0.596355
O2    O     O_R   0.500020 0.680370 0.421740 -0.591376
O3    O     O_R   0.500000 0.319650 0.421740 -0.559542
O4    O     O_R   0.500000 0.680350 0.578260 -0.579565
O5    O     O_R   0.319630 0.500000 0.578260 -0.590647
O6    O     O_R   0.680370 0.500000 0.421740 -0.587791
O7    O     O_R   0.319650 0.500020 0.421740 -0.555803
O8    O     O_R   0.680350 0.499980 0.578260 -0.579020
O9    O     O_3   0.189058 0.496964 0.988359 -0.585166
C45   C     C_3   0.200282 0.612999 0.946192 -0.347348
H19   H     H_    0.126270 0.675934 0.969768 0.139805
H20   H     H_    0.193886 0.601607 0.861850 0.194253
H21   H     H_    0.291188 0.653057 0.966584 0.217487
O10   O     O_3   0.788181 0.436713 0.000898 -0.610703
C46   C     C_3   0.804662 0.536007 0.071623 -0.344225
H22   H     H_    0.770841 0.508336 0.146225 0.194903
H23   H     H_    0.750715 0.616257 0.047914 0.161831
H24   H     H_    0.902710 0.560006 0.083823 0.173460
O11   O     O_3   0.646543 0.059610 0.069067 -0.574999
C47   C     C_3   0.664065 0.130605 0.983286 -0.322505
H25   H     H_    0.668403 0.229899 0.004332 0.204735
H26   H     H_    0.591962 0.110348 0.923543 0.152210
H27   H     H_    0.752676 0.105214 0.950355 0.195309
O12   O     O_3   0.463101 0.816565 0.948128 -0.587624
C48   C     C_3   0.365769 0.899933 0.954868 -0.355648
H28   H     H_    0.287934 0.869158 0.903809 0.147333
H29   H     H_    0.393792 0.994804 0.937789 0.172208
H30   H     H_    0.333393 0.901900 0.034151 0.189464
O13   O     O_3   0.276723 0.201139 0.331444 -0.572464
C49   C     C_3   0.181418 0.114404 0.316862 -0.371753
H31   H     H_    0.212958 0.020766 0.334438 0.162169
H32   H     H_    0.141189 0.115521 0.237919 0.158866
H33   H     H_    0.108096 0.138469 0.370125 0.200100
O14   O     O_3   0.770839 0.918237 0.628870 -0.585228
C50   C     C_3   0.856722 0.826949 0.606124 -0.327557
H34   H     H_    0.816484 0.733254 0.606386 0.164522
H35   H     H_    0.937153 0.836062 0.659442 0.158560
H36   H     H_    0.889414 0.840554 0.528174 0.189149

loop_
_geom_bond_atom_site_label_1
_geom_bond_atom_site_label_2
_ccdc_geom_bond_type
C49   H33   S    
C16   O12   S    
C50   H34   S    
C27   C29   S    
O13   C49   S    
C45   H21   S    
C46   H22   S    
C39   C41   A    
O11   C47   S    
C42   O10   S    
C3    C43   A    
C35   C37   A    
C45   H20   S    
C2    O2    A    
C47   H26   S    
Cu1   O5    S    
C20   C25   A    
C39   H11   S    
C5    C36   S    
C6    C35   S    
C7    C9    A    
C19   C26   A    
C32   H6    S    
Cu2   O3    S    
C20   H4    S    
C17   H15   S    
C7    C17   A    
C49   H32   S    
Cu1   O1    S    
C31   C33   A    
C9    O13   S    
Cu2   O6    S    
C43   H13   S    
C15   O11   S    
C40   C42   A    
C1    C22   S    
C50   H35   S    
C3    C24   S    
C23   O7    A    
C46   H23   S    
C33   H7    S    
C40   H12   S    
C23   O5    A    
C45   H19   S    
Cu2   N1    S    
C4    C6    A    
C31   H5    S    
C48   H28   S    
C13   H1    S    
C4    C23   S    
C47   H25   S    
C18   H16   S    
C14   H2    S    
C4    C44   A    
C11   C26   S    
Cu1   Cu2   S    
C48   H29   S    
C8    C18   A    
Cu1   O8    S    
C32   C34   A    
C28   N2    T    
O9    C45   S    
Cu2   O2    S    
C29   C30   T    
C27   N1    T    
C41   O9    S    
C19   H3    S    
C49   H31   S    
C2    C21   S    
C10   O14   S    
C9    C11   A    
C7    H17   S    
C10   C12   A    
C8    H18   S    
C16   C18   A    
C5    C44   A    
C20   C22   A    
C34   H8    S    
C50   H36   S    
C6    C43   A    
C13   C15   A    
C14   C16   A    
C46   H24   S    
C24   O6    A    
C15   C17   A    
C21   C25   A    
C31   C41   A    
C19   C21   A    
Cu1   O4    S    
C12   C14   A    
O10   C46   S    
C3    C5    A    
C47   H27   S    
C1    O1    A    
C12   C25   S    
C36   C38   A    
C37   C39   A    
C48   H30   S    
C38   C40   A    
C11   C13   A    
C24   O8    A    
O12   C48   S    
C44   H14   S    
C28   C30   S    
O14   C50   S    
C33   C35   A    
C34   C36   A    
C1    O3    A    
C37   H9    S    
C38   H10   S    
C8    C10   A    
C22   C26   A    
Cu1   N2    S    
C32   C42   A    
C2    O4    A    
Cu2   O7    S    
