data_mof_unit_66488.cif
_audit_creation_date              2012-12-10T17:26:30-0500
_audit_creation_method            fapswitch 2.2
_symmetry_space_group_name_H-M    P1
_symmetry_Int_Tables_number       1
_space_group_crystal_system       monoclinic
_cell_length_a                    42.541744
_cell_length_b                    29.422037
_cell_length_c                    30.74598
_cell_angle_alpha                 90.0
_cell_angle_beta                  136.239937
_cell_angle_gamma                 90.0
_cell_volume                      26616.8352628

loop_
_atom_site_label
_atom_site_type_symbol
_atom_type_description
_atom_site_fract_x
_atom_site_fract_y
_atom_site_fract_z
_atom_type_partial_charge
C1    C     C_R   0.585494 0.500000 0.585946 0.822343
C2    C     C_1   0.997779 0.000000 0.333192 -0.097876
C3    C     C_3   0.522213 0.542938 0.244129 -0.382644
C4    C     C_3   0.022184 0.957047 0.244099 -0.382646
C5    C     C_3   0.022213 0.042938 0.244129 -0.382644
C6    C     C_1   0.499761 0.500000 0.119673 -0.187948
C7    C     C_1   0.999761 0.000000 0.119673 -0.187948
C8    C     C_3   0.496490 0.500001 0.285312 0.246484
C9    C     C_3   0.996490 0.000001 0.285312 0.246484
C10   C     C_3   0.497866 0.500001 0.202513 0.295706
C11   C     C_3   0.997866 0.000001 0.202513 0.295706
C12   C     C_1   0.420941 0.540369 0.207621 0.214596
C13   C     C_1   0.498985 0.500000 0.372706 -0.169263
C14   C     C_1   0.420914 0.459684 0.207594 0.214594
C15   C     C_1   0.920941 0.040369 0.207621 0.214596
C16   C     C_1   0.920914 0.959684 0.207594 0.214594
C17   C     C_1   0.998985 0.000000 0.372706 -0.169263
C18   C     C_1   0.636540 0.500000 0.636914 -0.204006
C19   C     C_1   0.136540 0.000000 0.636914 -0.204006
C20   C     C_1   0.678861 0.500000 0.679173 0.004048
C21   C     C_1   0.178861 0.000000 0.679173 0.004048
C22   C     C_1   0.729025 0.500000 0.729264 0.005911
C23   C     C_1   0.229025 0.000000 0.729264 0.005911
C24   C     C_1   0.771346 0.500000 0.771527 0.005940
C25   C     C_R   0.085494 0.000000 0.585946 0.822343
C26   C     C_1   0.271345 0.000000 0.771527 0.005940
C27   C     C_1   0.821509 0.500000 0.821625 0.005127
C28   C     C_1   0.321509 0.000000 0.821625 0.005127
C29   C     C_R   0.500160 0.500000 0.418985 0.868880
C30   C     C_R   0.000160 0.000000 0.418985 0.868881
C31   C     C_1   0.863831 0.500000 0.863899 -0.197201
C32   C     C_1   0.363831 0.000000 0.863899 -0.197201
C33   C     C_1   0.499993 0.500000 0.635299 -0.201639
C34   C     C_1   0.999993 0.000000 0.635299 -0.201639
C35   C     C_1   0.500010 0.500000 0.676698 0.014671
C36   C     C_3   0.447871 0.500018 0.168331 -0.423679
C37   C     C_1   0.000010 0.000000 0.676698 0.014671
C38   C     C_1   0.500031 0.500000 0.726143 0.004074
C39   C     C_1   0.000031 0.000000 0.726143 0.004074
C40   C     C_1   0.500047 0.500000 0.767542 0.004092
C41   C     C_1   0.000047 0.000000 0.767542 0.004092
C42   C     C_1   0.500064 0.500000 0.816982 0.014566
C43   C     C_1   0.000064 0.000000 0.816982 0.014566
C44   C     C_1   0.500068 0.500000 0.858367 -0.201127
C45   C     C_1   0.000068 0.000000 0.858367 -0.201127
C46   C     C_1   0.363416 0.500000 0.363743 -0.196905
C47   C     C_3   0.947871 0.000018 0.168331 -0.423679
C48   C     C_1   0.863416 0.000000 0.363743 -0.196905
C49   C     C_1   0.321097 0.500000 0.321343 0.010554
C50   C     C_1   0.821097 0.000000 0.321343 0.010554
C51   C     C_1   0.270936 0.500000 0.271096 0.010673
C52   C     C_1   0.770936 0.000000 0.271096 0.010673
C53   C     C_R   0.414458 0.500000 0.414886 0.829060
C54   C     C_R   0.914458 0.000000 0.414886 0.829060
C55   C     C_1   0.228617 0.500000 0.228713 0.009195
C56   C     C_1   0.728617 0.000000 0.228713 0.009195
C57   C     C_1   0.178455 0.500000 0.178490 0.007229
C58   C     C_3   0.446245 0.500018 0.217404 0.003728
C59   C     C_1   0.678455 0.000000 0.178490 0.007229
C60   C     C_1   0.136136 0.500000 0.136138 -0.195890
C61   C     C_1   0.636136 0.000000 0.136138 -0.195890
C62   C     C_R   0.500033 0.585446 0.994562 0.824809
C63   C     C_R   0.500033 0.414554 0.994562 0.824807
C64   C     C_R   0.000033 0.085446 0.994562 0.824809
C65   C     C_R   0.000033 0.914554 0.994562 0.824807
C66   C     C_R   0.499987 0.500000 0.074772 0.867365
C67   C     C_R   0.999987 0.000000 0.074772 0.867365
C68   C     C_R   0.500046 0.500000 0.908683 0.811879
C69   C     C_3   0.946245 0.000018 0.217404 0.003728
C70   C     C_R   0.000046 1.000000 0.908683 0.811879
C71   C     C_R   0.000015 0.414865 0.999130 0.815573
C72   C     C_R   0.000015 0.585134 0.999130 0.815574
C73   C     C_R   0.500015 0.914866 0.999130 0.815573
C74   C     C_R   0.500015 0.085134 0.999130 0.815574
C75   C     C_R   0.914876 0.500000 0.914902 0.815543
C76   C     C_R   0.414876 0.000000 0.914902 0.815543
C77   C     C_R   0.085093 0.500000 0.085102 0.815947
C78   C     C_R   0.585093 0.000000 0.085102 0.815947
C79   C     C_1   0.500046 0.636498 0.995396 -0.204230
C80   C     C_1   0.499051 0.500000 0.157287 -0.097598
C81   C     C_1   0.500046 0.363502 0.995396 -0.204231
C82   C     C_1   0.000046 0.136498 0.995396 -0.204230
C83   C     C_1   0.000046 0.863502 0.995396 -0.204231
C84   C     C_R   0.499975 0.500000 0.584945 0.810351
C85   C     C_R   0.999975 0.000000 0.584945 0.810351
C86   C     C_1   0.500048 0.678821 0.996119 0.004886
C87   C     C_1   0.500048 0.321180 0.996119 0.004886
C88   C     C_1   0.000048 0.178821 0.996119 0.004886
C89   C     C_1   0.000048 0.821179 0.996119 0.004886
C90   C     C_1   0.500045 0.728989 0.996977 0.006557
C91   C     C_1   0.999051 0.000000 0.157287 -0.097598
C92   C     C_1   0.500045 0.271011 0.996977 0.006557
C93   C     C_1   0.000045 0.228989 0.996977 0.006557
C94   C     C_1   0.000045 0.771011 0.996977 0.006557
C95   C     C_1   0.000040 0.271311 0.997673 0.006494
C96   C     C_1   0.000040 0.728689 0.997673 0.006494
C97   C     C_1   0.500040 0.771311 0.997673 0.006494
C98   C     C_1   0.500040 0.228689 0.997673 0.006494
C99   C     C_1   0.000033 0.321481 0.998422 0.005730
C100  C     C_1   0.000033 0.678519 0.998422 0.005730
C101  C     C_1   0.500033 0.821481 0.998422 0.005730
C102  C     C_1   0.497779 0.500000 0.333192 -0.097876
C103  C     C_1   0.500033 0.178519 0.998422 0.005730
C104  C     C_1   0.000026 0.363808 0.998907 -0.196727
C105  C     C_1   0.000025 0.636192 0.998907 -0.196727
C106  C     C_1   0.500026 0.863808 0.998907 -0.196727
C107  C     C_1   0.500025 0.136192 0.998907 -0.196727
C108  C     C_3   0.522210 0.542600 0.294170 -0.397176
C109  C     C_3   0.522181 0.457384 0.294140 -0.397173
C110  C     C_3   0.022210 0.042600 0.294170 -0.397176
C111  C     C_3   0.022181 0.957384 0.294140 -0.397173
C112  C     C_3   0.522184 0.457047 0.244099 -0.382646
Cu1   Cu    Cu3+1 0.499970 0.542470 0.500570 0.968536
Cu2   Cu    Cu3+1 0.499990 0.000000 0.958110 0.968566
Cu3   Cu    Cu3+1 0.999980 0.500000 0.041890 0.964009
Cu4   Cu    Cu3+1 0.499980 0.000000 0.041890 0.964009
Cu5   Cu    Cu3+1 0.499970 0.457530 0.500570 0.968530
Cu6   Cu    Cu3+1 0.999970 0.042470 0.500570 0.968536
Cu7   Cu    Cu3+1 0.999970 0.957530 0.500570 0.968530
Cu8   Cu    Cu3+1 0.542500 0.500000 0.035600 0.961902
Cu9   Cu    Cu3+1 0.042500 0.000000 0.035600 0.961902
Cu10  Cu    Cu3+1 0.457550 0.500000 0.950640 0.964173
Cu11  Cu    Cu3+1 0.957550 0.000000 0.950640 0.964173
Cu12  Cu    Cu3+1 0.999990 0.500000 0.958110 0.968566
H1    H     H_    0.557877 0.544061 0.267692 0.172432
H2    H     H_    0.506249 0.574344 0.290617 0.181141
H3    H     H_    0.006198 0.925651 0.290566 0.181141
H4    H     H_    0.006249 0.074344 0.290617 0.181141
H5    H     H_    0.504660 0.425905 0.214658 0.173155
H6    H     H_    0.504711 0.574092 0.214710 0.173155
H7    H     H_    0.004660 0.925905 0.214658 0.173155
H8    H     H_    0.004711 0.074092 0.214710 0.173155
H9    H     H_    0.430064 0.530243 0.136786 0.166514
H10   H     H_    0.430044 0.469805 0.136765 0.166516
H11   H     H_    0.930064 0.030243 0.136786 0.166514
H12   H     H_    0.557847 0.455899 0.267662 0.172431
H13   H     H_    0.930044 0.969805 0.136765 0.166516
H14   H     H_    0.057877 0.044061 0.267692 0.172432
H15   H     H_    0.057847 0.955899 0.267662 0.172431
H16   H     H_    0.557938 0.542388 0.341848 0.174169
H17   H     H_    0.557909 0.457572 0.341819 0.174169
H18   H     H_    0.057938 0.042388 0.341848 0.174169
H19   H     H_    0.057909 0.957572 0.341819 0.174169
H20   H     H_    0.506198 0.425651 0.290566 0.181141
N1    N     N_1   0.401187 0.571941 0.200009 -0.275519
N2    N     N_1   0.401138 0.428126 0.199959 -0.275521
N3    N     N_1   0.901187 0.071941 0.200009 -0.275519
N4    N     N_1   0.901138 0.928126 0.199959 -0.275521
O1    O     O_R   0.561950 0.535860 0.562460 -0.562035
O2    O     O_R   0.500010 0.061990 0.963800 -0.557432
O3    O     O_R   1.000000 0.438000 0.034540 -0.558708
O4    O     O_R   1.000000 0.562000 0.034540 -0.558709
O5    O     O_R   0.500000 0.938000 0.034540 -0.558708
O6    O     O_R   0.500000 0.062000 0.034540 -0.558709
O7    O     O_R   0.938010 0.500000 0.902650 -0.558051
O8    O     O_R   0.438010 0.000000 0.902650 -0.558051
O9    O     O_R   0.938010 0.500000 0.973390 -0.558452
O10   O     O_R   0.438010 0.000000 0.973390 -0.558452
O11   O     O_R   0.061960 0.500000 0.026610 -0.556594
O12   O     O_R   0.561950 0.464140 0.562460 -0.562036
O13   O     O_R   0.561960 0.000000 0.026610 -0.556594
O14   O     O_R   0.061960 0.500000 0.097350 -0.559084
O15   O     O_R   0.561960 0.000000 0.097350 -0.559084
O16   O     O_R   0.499980 0.535870 0.439370 -0.575029
O17   O     O_R   0.499980 0.464130 0.439370 -0.575034
O18   O     O_R   0.999980 0.035870 0.439370 -0.575029
O19   O     O_R   0.999980 0.964130 0.439370 -0.575034
O20   O     O_R   0.438000 0.535860 0.438500 -0.559929
O21   O     O_R   0.438000 0.464140 0.438500 -0.559930
O22   O     O_R   0.938000 0.035860 0.438500 -0.559929
O23   O     O_R   0.061950 0.035860 0.562460 -0.562035
O24   O     O_R   0.938000 0.964140 0.438500 -0.559930
O25   O     O_R   0.499970 0.535850 0.561590 -0.557629
O26   O     O_R   0.499970 0.464150 0.561590 -0.557630
O27   O     O_R   0.999970 0.035850 0.561590 -0.557629
O28   O     O_R   0.999970 0.964150 0.561590 -0.557630
O29   O     O_R   0.535890 0.561890 0.029840 -0.561261
O30   O     O_R   0.535890 0.438110 0.029840 -0.561260
O31   O     O_R   0.035890 0.061890 0.029840 -0.561261
O32   O     O_R   0.035890 0.938110 0.029840 -0.561260
O33   O     O_R   0.464160 0.561920 0.958100 -0.560851
O34   O     O_R   0.061950 0.964140 0.562460 -0.562035
O35   O     O_R   0.464160 0.438080 0.958100 -0.560851
O36   O     O_R   0.964160 0.061920 0.958100 -0.560851
O37   O     O_R   0.964160 0.938080 0.958100 -0.560851
O38   O     O_R   0.535890 0.500000 0.090110 -0.576597
O39   O     O_R   0.035890 0.000000 0.090110 -0.576597
O40   O     O_R   0.464150 0.500000 0.018360 -0.574512
O41   O     O_R   0.964150 1.000000 0.018360 -0.574512
O42   O     O_R   0.535900 0.500000 0.967880 -0.558072
O43   O     O_R   0.035900 0.000000 0.967880 -0.558072
O44   O     O_R   0.464160 0.500000 0.896130 -0.558353
O45   O     O_R   0.964160 0.000000 0.896130 -0.558353
O46   O     O_R   0.000010 0.438010 0.963800 -0.557431
O47   O     O_R   0.000010 0.561990 0.963800 -0.557432
O48   O     O_R   0.500010 0.938010 0.963800 -0.557431

loop_
_geom_bond_atom_site_label_1
_geom_bond_atom_site_label_2
_ccdc_geom_bond_type
Cu5   O26   S    
C9    C111  S    
C15   N3    T    
C71   C104  S    
C11   C91   S    
C2    C17   T    
C66   O40   A    
C34   C37   T    
C54   O22   A    
Cu4   O15   S    
C11   C47   S    
C24   C27   S    
C36   H9    S    
C62   O29   A    
C92   C98   T    
C5    H14   S    
Cu9   O31   S    
C48   C54   S    
C46   C49   T    
C76   O10   A    
C100  C105  T    
C63   O30   A    
Cu2   O48   S    
Cu3   O9    S    
C4    H7    S    
C13   C29   S    
C19   C21   T    
C9    C69   S    
C30   O19   A    
C5    C11   S    
C36   C58   S    
C15   C69   S    
C95   C99   S    
C65   C83   S    
C5    C110  S    
C68   O44   A    
C98   C103  S    
C3    H6    S    
Cu12  O11   S    
C77   O14   A    
C85   O28   A    
C74   O6    A    
C18   C20   T    
C23   C26   T    
C29   O17   A    
C89   C94   S    
C110  H18   S    
Cu8   O30   S    
Cu6   Cu7   S    
C47   C69   S    
C8    C58   S    
C74   C107  S    
C73   O48   A    
C31   C75   S    
C5    H8    S    
C71   O3    A    
C85   O27   A    
Cu8   Cu10  S    
C72   O4    A    
Cu3   O4    S    
C50   C52   S    
C1    O1    A    
C112  H5    S    
Cu11  O41   S    
C90   C97   T    
Cu4   O6    S    
C53   O21   A    
Cu7   O24   S    
C12   C58   S    
C75   O9    A    
C48   C50   T    
C99   C104  T    
C78   O15   A    
C93   C95   T    
C87   C92   S    
Cu5   O12   S    
C17   C30   S    
C41   C43   S    
C29   O16   A    
C47   H13   S    
C42   C44   T    
C112  H12   S    
C83   C89   T    
C8    C108  S    
Cu2   O8    S    
C67   O39   A    
C70   O43   A    
Cu9   O32   S    
Cu10  O33   S    
C14   C58   S    
C65   O37   A    
C60   C77   S    
C59   C61   T    
C63   O35   A    
C109  H17   S    
C27   C31   T    
C54   O24   A    
C62   C79   S    
C28   C32   T    
C35   C38   S    
C30   O18   A    
C39   C41   T    
C86   C90   S    
C109  C112  S    
Cu5   O17   S    
C108  H16   S    
C64   O31   A    
C10   C80   S    
C71   O46   A    
C49   C51   S    
C76   O8    A    
Cu8   O38   S    
C10   C112  S    
C34   C85   S    
C12   N1    T    
Cu11  O37   S    
Cu8   O29   S    
Cu4   O10   S    
Cu11  O36   S    
Cu8   O42   S    
Cu7   O28   S    
Cu9   O39   S    
C53   O20   A    
Cu10  O40   S    
C68   O42   A    
C61   C78   S    
Cu1   O20   S    
C7    C91   T    
C84   O26   A    
C3    H1    S    
C1    C18   S    
Cu6   O18   S    
C4    C11   S    
C94   C96   T    
C43   C45   T    
C64   C82   S    
Cu4   O5    S    
C81   C87   T    
C77   O11   A    
Cu1   Cu5   S    
Cu10  O35   S    
C4    C111  S    
C20   C22   S    
Cu6   O27   S    
C73   O5    A    
C21   C23   S    
C111  H3    S    
C6    C80   T    
C22   C24   T    
C44   C68   S    
Cu2   O2    S    
Cu12  O46   S    
C84   O25   A    
Cu7   O19   S    
C25   O34   A    
Cu1   O25   S    
C101  C106  T    
C88   C93   S    
Cu3   Cu12  S    
C63   C81   S    
Cu1   O1    S    
C47   H11   S    
C45   C70   S    
C1    O12   A    
Cu11  O45   S    
C16   C69   S    
Cu2   O13   S    
C72   O47   A    
C57   C60   T    
C36   H10   S    
C32   C76   S    
Cu2   Cu4   S    
C67   O41   A    
Cu10  O44   S    
C9    C110  S    
C65   O32   A    
C111  H19   S    
C3    C108  S    
C14   N2    T    
C26   C28   S    
C56   C59   S    
C16   N4    T    
Cu3   O14   S    
C55   C57   S    
C37   C39   S    
C66   O38   A    
C8    C109  S    
Cu9   O43   S    
C4    H15   S    
C38   C40   T    
C25   O23   A    
C73   C106  S    
C46   C53   S    
Cu6   O23   S    
C70   O45   A    
C82   C88   T    
C96   C100  S    
Cu12  O47   S    
C40   C42   S    
C33   C35   T    
C10   C36   S    
Cu5   O21   S    
C109  H20   S    
C51   C55   T    
C19   C25   S    
C33   C84   S    
Cu9   Cu11  S    
C7    C67   S    
C64   O36   A    
C75   O7    A    
C6    C66   S    
C72   C105  S    
C78   O13   A    
Cu12  O7    S    
Cu3   O3    S    
C3    C10   S    
Cu6   O22   S    
C74   O2    A    
C103  C107  T    
C108  H2    S    
C13   C102  T    
C2    C9    S    
C8    C102  S    
Cu7   O34   S    
C79   C86   T    
C97   C101  S    
C52   C56   T    
C110  H4    S    
Cu1   O16   S    
C62   O33   A    
