data_mof_unit_39724.cif
_audit_creation_date              2012-12-10T20:34:47-0500
_audit_creation_method            fapswitch 2.2
_symmetry_space_group_name_H-M    P1
_symmetry_Int_Tables_number       1
_space_group_crystal_system       triclinic
_cell_length_a                    10.614551
_cell_length_b                    10.742873
_cell_length_c                    9.917407
_cell_angle_alpha                 90.65004
_cell_angle_beta                  91.435181
_cell_angle_gamma                 92.007728
_cell_volume                      1129.75625182

loop_
_atom_site_label
_atom_site_type_symbol
_atom_type_description
_atom_site_fract_x
_atom_site_fract_y
_atom_site_fract_z
_atom_type_partial_charge
C1    C     C_R   0.495225 0.260532 0.499017 0.893871
C2    C     C_3   0.877744 0.489438 0.499126 0.150299
C3    C     C_3   0.929421 0.625649 0.491009 -0.398682
C4    C     C_3   0.922230 0.414840 0.374701 -0.403207
C5    C     C_R   0.540964 0.068124 0.607603 0.104736
C6    C     C_R   0.493288 0.128833 0.496610 -0.167431
C7    C     C_R   0.444965 0.062117 0.384257 -0.336904
C8    C     C_R   0.442193 0.932676 0.385440 0.462027
C9    C     C_R   0.494263 0.872247 0.498762 -0.257629
C10   C     C_R   0.548827 0.940784 0.606909 0.058987
C11   C     C_3   0.513758 0.935688 0.752727 -0.024377
C12   C     C_R   0.257784 0.494363 0.498625 0.817286
C13   C     C_3   0.493798 0.073970 0.747822 -0.463936
C14   C     C_R   0.393197 0.468480 0.067657 0.201612
C15   C     C_R   0.602378 0.540065 0.077475 -0.292941
C16   C     C_R   0.605092 0.541922 0.932034 0.486789
C17   C     C_R   0.392726 0.469410 0.925783 0.131941
C18   C     C_3   0.319904 0.348401 0.917110 -0.500706
C19   C     C_3   0.321179 0.347173 0.070033 -0.496770
C20   C     C_R   0.497287 0.739754 0.500270 0.909385
C21   C     C_R   0.741458 0.492178 0.500519 0.841945
C22   C     C_3   0.072263 0.435997 0.630580 -0.408189
C23   C     C_3   0.928725 0.425272 0.626979 -0.412275
C24   C     C_3   0.074095 0.629550 0.479012 -0.000453
C25   C     C_3   0.066686 0.411690 0.378170 -0.454353
C26   C     C_3   0.120984 0.494038 0.497378 0.135029
H1    H     H_    0.104771 0.493499 0.719265 0.176024
H2    H     H_    0.890729 0.459191 0.279243 0.178408
H3    H     H_    0.096669 0.658131 0.374320 0.168072
H4    H     H_    0.887092 0.672444 0.401907 0.142062
H5    H     H_    0.400750 0.109948 0.300995 0.165426
H6    H     H_    0.424723 0.880594 0.768298 0.138748
H7    H     H_    0.391971 0.094950 0.748754 0.163757
H8    H     H_    0.553740 0.133636 0.817231 0.205345
H9    H     H_    0.682164 0.568486 0.140998 0.148187
H10   H     H_    0.110447 0.341576 0.644294 0.165879
H11   H     H_    0.224044 0.358070 0.872078 0.194570
H12   H     H_    0.375039 0.273575 0.872507 0.208866
H13   H     H_    0.226024 0.356140 0.112170 0.190349
H14   H     H_    0.377286 0.271311 0.113768 0.205913
H15   H     H_    0.897448 0.325192 0.625574 0.164100
H16   H     H_    0.891911 0.466147 0.720300 0.230948
H17   H     H_    0.900154 0.677529 0.581074 0.187363
H18   H     H_    0.101833 0.446466 0.280350 0.175715
H19   H     H_    0.096724 0.313974 0.389274 0.176032
H20   H     H_    0.881108 0.318061 0.374488 0.168684
N1    N     N_R   0.499150 0.499140 0.142800 -0.114090
N2    N     N_R   0.499150 0.499180 0.857150 -0.142780
O1    O     O_R   0.500020 0.316790 0.614690 -0.622267
O2    O     O_R   0.500000 0.316760 0.385350 -0.623476
O3    O     O_R   0.314800 0.500000 0.614670 -0.634392
O4    O     O_R   0.314790 0.499960 0.385330 -0.618894
O5    O     O_R   0.500000 0.683240 0.614650 -0.624495
O6    O     O_R   0.499980 0.683210 0.385310 -0.582893
O7    O     O_R   0.685210 0.500040 0.614670 -0.556630
O8    O     O_R   0.685200 0.500000 0.385330 -0.645279
Zn1   Zn    Zn3+2 0.500010 0.500020 0.653130 0.964061
Zn2   Zn    Zn3+2 0.499990 0.499980 0.346870 0.939334
O9    O     O_3   0.366294 0.866483 0.292205 -0.601579
C27   C     C_3   0.422467 0.868371 0.164872 0.131462
H21   H     H_    0.516200 0.824896 0.170100 0.142134
H22   H     H_    0.433858 0.964902 0.126299 0.116771
C28   C     C_3   0.337562 0.793405 0.065655 -0.835521
H23   H     H_    0.252553 0.846404 0.039452 0.238294
H24   H     H_    0.389045 0.773189 0.972463 0.189794
H25   H     H_    0.306965 0.703875 0.111286 0.267876
C29   C     C_3   0.622592 0.899239 0.848663 -0.350264
C30   C     C_3   0.750606 0.966126 0.825769 -0.856323
H26   H     H_    0.785545 0.943504 0.724109 0.251678
H27   H     H_    0.746031 0.068489 0.836964 0.250819
H28   H     H_    0.820034 0.935847 0.902925 0.242069
H29   H     H_    0.595327 0.917394 0.954018 0.177621
H30   H     H_    0.633556 0.797984 0.836583 0.251771
O10   O     O_3   0.712941 0.582421 0.863426 -0.590057
C31   C     C_3   0.808844 0.637872 0.949955 0.048433
H31   H     H_    0.850945 0.566226 0.015827 0.140929
H32   H     H_    0.770442 0.714386 0.011726 0.133864
C32   C     C_3   0.915563 0.696444 0.870931 -0.881923
H33   H     H_    0.973531 0.760809 0.937647 0.213084
H34   H     H_    0.978220 0.624283 0.834880 0.232987
H35   H     H_    0.877619 0.749736 0.785529 0.273531
C33   C     C_3   0.138971 0.729256 0.574962 -0.388642
C34   C     C_3   0.102438 0.861841 0.540222 -0.883194
H36   H     H_    0.123630 0.882261 0.433455 0.284581
H37   H     H_    0.000784 0.875120 0.556923 0.248455
H38   H     H_    0.157796 0.929297 0.605826 0.248085
H39   H     H_    0.116630 0.710592 0.681405 0.215413
H40   H     H_    0.242668 0.726999 0.566667 0.219152

loop_
_geom_bond_atom_site_label_1
_geom_bond_atom_site_label_2
_ccdc_geom_bond_type
C28   H24   S    
C17   N2    A    
C15   N1    A    
C16   N2    A    
C4    C25   S    
C7    C8    A    
C4    H20   S    
C3    H17   S    
C23   H16   S    
C27   C28   S    
C16   O10   S    
C18   H11   S    
C24   C26   S    
C18   C19   S    
C8    O9    S    
O6    Zn2   S    
C5    C6    A    
C32   H34   S    
C15   C16   A    
O1    Zn1   S    
C27   H22   S    
C29   H29   S    
C24   C33   S    
C24   H3    S    
C12   O4    A    
C8    C9    A    
C29   H30   S    
C1    O2    A    
C5    C13   S    
C28   H25   S    
O9    C27   S    
C14   C17   A    
C3    C24   S    
C25   H18   S    
C15   H9    S    
C4    H2    S    
C11   C29   S    
O4    Zn2   S    
C7    H5    S    
O10   C31   S    
C1    C6    S    
O2    Zn2   S    
N2    Zn1   S    
C20   O6    A    
C19   H14   S    
C21   O7    A    
O5    Zn1   S    
C32   H33   S    
C30   H26   S    
C25   C26   S    
C29   C30   S    
C12   C26   S    
C27   H21   S    
C3    H4    S    
C2    C4    S    
C31   H31   S    
C13   H7    S    
C9    C20   S    
C34   H36   S    
C2    C21   S    
C17   C18   S    
C31   H32   S    
C6    C7    A    
C19   H13   S    
O3    Zn1   S    
C34   H37   S    
C11   H6    S    
C22   H1    S    
O7    Zn1   S    
C25   H19   S    
C12   O3    A    
C9    C10   A    
C14   C19   S    
C20   O5    A    
C21   O8    A    
C14   N1    A    
C22   H10   S    
C23   H15   S    
C2    C3    S    
C18   H12   S    
C5    C10   A    
N1    Zn2   S    
C11   C13   S    
C32   H35   S    
C30   H28   S    
C33   H40   S    
O8    Zn2   S    
C31   C32   S    
C10   C11   S    
C28   H23   S    
C13   H8    S    
C34   H38   S    
C30   H27   S    
C33   C34   S    
C22   C26   S    
C2    C23   S    
C22   C23   S    
C1    O1    A    
C33   H39   S    
