data_mof_unit_56358.cif
_audit_creation_date              2012-12-11T15:36:01-0500
_audit_creation_method            fapswitch 2.2
_symmetry_space_group_name_H-M    P1
_symmetry_Int_Tables_number       1
_space_group_crystal_system       triclinic
_cell_length_a                    7.047298
_cell_length_b                    11.873321
_cell_length_c                    35.747135
_cell_angle_alpha                 89.974152
_cell_angle_beta                  91.527797
_cell_angle_gamma                 89.761691
_cell_volume                      2990.04582993

loop_
_atom_site_label
_atom_site_type_symbol
_atom_type_description
_atom_site_fract_x
_atom_site_fract_y
_atom_site_fract_z
_atom_type_partial_charge
O1    O     O_R   0.379730 0.148600 0.662710 -0.536948
O2    O     O_R   0.620270 0.851400 0.337290 -0.538223
O3    O     O_R   0.120270 0.648600 0.337290 -0.538395
O4    O     O_R   0.879730 0.351400 0.662710 -0.537699
O5    O     O_R   0.722480 0.134490 0.741330 -0.538626
O6    O     O_R   0.277520 0.865510 0.258670 -0.537494
O7    O     O_R   0.777520 0.634490 0.258670 -0.541073
O8    O     O_R   0.222480 0.365510 0.741330 -0.545115
O9    O     O_R   0.892880 0.345890 0.741600 -0.537687
O10   O     O_R   0.107120 0.654110 0.258400 -0.532868
O11   O     O_R   0.607120 0.845890 0.258400 -0.535722
O12   O     O_R   0.392880 0.154110 0.741600 -0.538752
C1    C     C_R   0.555817 0.118950 0.755877 0.695681
C2    C     C_R   0.445345 0.887217 0.245703 0.691545
C3    C     C_R   0.945525 0.615516 0.244796 0.695891
C4    C     C_R   0.054738 0.383455 0.755390 0.698164
O13   O     O_R   0.709490 0.135560 0.662990 -0.539200
O14   O     O_R   0.290510 0.864440 0.337010 -0.540621
O15   O     O_R   0.790510 0.635560 0.337010 -0.540093
O16   O     O_R   0.209490 0.364440 0.662990 -0.539211
C5    C     C_R   0.539245 0.107611 0.651015 0.702455
C6    C     C_R   0.460760 0.892497 0.348948 0.694052
C7    C     C_R   0.960738 0.607501 0.348969 0.697409
C8    C     C_R   0.039269 0.392434 0.651010 0.701526
O17   O     O_3   0.552800 0.316610 0.702160 -0.369314
O18   O     O_3   0.447200 0.683390 0.297840 -0.367156
O19   O     O_3   0.947200 0.816610 0.297840 -0.367847
O20   O     O_3   0.052800 0.183390 0.702160 -0.367669
V1    V     V_3+5 0.827630 0.234380 0.702160 1.418871
V2    V     V_3+5 0.172370 0.765620 0.297840 1.428614
V3    V     V_3+5 0.672370 0.734380 0.297840 1.421356
V4    V     V_3+5 0.327630 0.265620 0.702160 1.410388
C9    C     C_R   0.034829 0.627116 0.923177 0.561521
C10   C     C_R   0.002396 0.345815 0.081611 0.538434
C11   C     C_R   0.535455 0.192660 0.093346 0.525794
C12   C     C_R   0.539400 0.897760 0.927890 0.564099
O21   O     O_2   0.039784 0.515978 0.930920 -0.552524
O22   O     O_2   0.976976 0.455070 0.072429 -0.556669
O23   O     O_2   0.585675 0.085473 0.086001 -0.555466
O24   O     O_2   0.530189 0.009420 0.934425 -0.550931
N1    N     N_R   0.031960 0.663084 0.886629 -0.541171
N2    N     N_R   0.002823 0.312587 0.118573 -0.545705
N3    N     N_R   0.493616 0.225746 0.129352 -0.545010
N4    N     N_R   0.548272 0.858530 0.891738 -0.543180
C13   C     C_R   0.024717 0.776117 0.878734 0.579519
C14   C     C_R   0.018465 0.199211 0.126922 0.559543
C15   C     C_R   0.471293 0.339838 0.136137 0.544458
C16   C     C_R   0.561392 0.744824 0.885372 0.545640
C17   C     C_R   0.183352 0.599626 0.828754 -0.126406
C18   C     C_R   0.872543 0.367493 0.180051 -0.072277
C19   C     C_R   0.516128 0.164774 0.197729 -0.075949
C20   C     C_R   0.413822 0.909669 0.829133 -0.097924
C21   C     C_R   0.186850 0.534918 0.796361 -0.190036
C22   C     C_R   0.857060 0.439406 0.210718 -0.182825
C23   C     C_R   0.509481 0.081750 0.225286 -0.193061
C24   C     C_R   0.417766 0.969881 0.795696 -0.186815
C25   C     C_R   0.912174 0.433413 0.816962 -0.213984
C26   C     C_R   0.058803 0.572709 0.180307 -0.195486
C27   C     C_R   0.401336 0.947294 0.179230 -0.217594
C28   C     C_R   0.670760 0.084249 0.821814 -0.204062
C29   C     C_R   0.913082 0.497081 0.850060 -0.050028
C30   C     C_R   0.067328 0.501535 0.148962 -0.053454
C31   C     C_R   0.411805 0.029760 0.151354 -0.063853
C32   C     C_R   0.660492 0.026129 0.855948 -0.077209
C33   C     C_R   0.044669 0.584264 0.855674 0.379026
C34   C     C_R   0.980174 0.394732 0.148878 0.360488
C35   C     C_R   0.474696 0.140809 0.159390 0.372794
C36   C     C_R   0.538182 0.933852 0.859473 0.369434
C37   C     C_R   0.041876 0.822193 0.944858 -0.049453
C38   C     C_R   0.024848 0.150151 0.060976 -0.025656
C39   C     C_R   0.517540 0.386014 0.070672 -0.016532
C40   C     C_R   0.534893 0.704675 0.951614 -0.041025
C41   C     C_R   0.034067 0.706197 0.952867 -0.039932
C42   C     C_R   0.022659 0.265903 0.052592 -0.039908
C43   C     C_R   0.532530 0.270322 0.063412 -0.045797
C44   C     C_R   0.537718 0.821377 0.958485 -0.033221
C45   C     C_R   0.029212 0.671995 0.990227 -0.120348
C46   C     C_R   0.033959 0.299487 0.015263 -0.110830
C47   C     C_R   0.550765 0.234193 0.026452 -0.112733
C48   C     C_R   0.534633 0.858800 0.995583 -0.120544
C49   C     C_R   0.045853 0.856439 0.907348 -0.052891
C50   C     C_R   0.015975 0.117059 0.098488 -0.000052
C51   C     C_R   0.499542 0.420937 0.107783 -0.016360
C52   C     C_R   0.538557 0.667021 0.914472 -0.052903
C53   C     C_R   0.048466 0.452910 0.789610 -0.049058
C54   C     C_R   0.954464 0.541488 0.211613 -0.040677
C55   C     C_R   0.453908 0.972625 0.216181 -0.011133
C56   C     C_R   0.550787 0.055170 0.791249 -0.038405
H1    H     H_    0.807180 0.367849 0.813033 0.116713
H2    H     H_    0.132330 0.652642 0.179959 0.105929
H3    H     H_    0.352883 0.863486 0.171864 0.097454
H4    H     H_    0.769891 0.153183 0.819474 0.109272
H5    H     H_    0.810791 0.478865 0.870939 0.132692
H6    H     H_    0.146987 0.529352 0.125502 0.152028
H7    H     H_    0.365886 0.005275 0.123619 0.153169
H8    H     H_    0.749241 0.052509 0.879227 0.142348
H9    H     H_    0.025067 0.583591 0.997398 0.166358
H10   H     H_    0.032237 0.387741 0.007789 0.169456
H11   H     H_    0.565983 0.145670 0.019914 0.166217
H12   H     H_    0.535747 0.947929 0.001898 0.160160
C57   C     C_R   0.025721 0.950863 0.041013 0.042464
C58   C     C_R   0.055701 0.020621 0.965197 0.060422
C59   C     C_R   0.525300 0.508064 0.973654 0.042166
C60   C     C_R   0.521959 0.583908 0.049155 0.058645
C61   C     C_R   0.046911 0.102963 0.994168 0.014135
C62   C     C_R   0.032139 0.868431 0.011934 0.022668
C63   C     C_R   0.527852 0.664152 0.019252 0.020243
C64   C     C_R   0.531061 0.428397 0.003441 0.009336
C65   C     C_R   0.033142 0.067629 0.031935 0.067595
C66   C     C_R   0.043581 0.904041 0.974152 0.067168
C67   C     C_R   0.529292 0.625417 0.981670 0.068264
C68   C     C_R   0.523310 0.466516 0.040972 0.097825
C69   C     C_R   0.007789 0.921058 0.079077 -0.171741
C70   C     C_R   0.077252 0.050528 0.927241 -0.112754
C71   C     C_R   0.511003 0.474410 0.935768 -0.103727
C72   C     C_R   0.517159 0.616180 0.087249 -0.166714
C73   C     C_R   0.003045 0.002366 0.107058 -0.114452
C74   C     C_R   0.071768 0.970000 0.899037 -0.159773
C75   C     C_R   0.517123 0.552493 0.906921 -0.142253
C76   C     C_R   0.506357 0.536399 0.115805 -0.156638
O25   O     O_2   0.040654 0.164590 0.162724 -0.537447
O26   O     O_2   0.990565 0.811057 0.843253 -0.521040
O27   O     O_2   0.603391 0.706657 0.851014 -0.525719
O28   O     O_2   0.416916 0.376872 0.169777 -0.544526
C77   C     C_R   0.027703 0.750905 0.019124 -0.153924
C78   C     C_R   0.046720 0.220286 0.986710 -0.165515
C79   C     C_R   0.548472 0.311112 0.997075 -0.161555
C80   C     C_R   0.530430 0.782300 0.025313 -0.161889
H13   H     H_    0.773603 0.413596 0.234224 0.122052
H14   H     H_    0.295917 0.550720 0.776243 0.141984
H15   H     H_    0.320431 0.947626 0.772942 0.132734
H16   H     H_    0.545664 0.103352 0.254056 0.099513
H17   H     H_    0.802086 0.288530 0.180539 0.143938
H18   H     H_    0.287833 0.663342 0.832585 0.154948
H19   H     H_    0.315821 0.842012 0.831024 0.152657
H20   H     H_    0.554831 0.246520 0.207971 0.146019
H21   H     H_    0.989709 0.974512 0.135735 0.155562
H22   H     H_    0.085608 0.997758 0.870366 0.151849
H23   H     H_    0.502097 0.522585 0.878393 0.141926
H24   H     H_    0.499980 0.566017 0.144414 0.154116
H25   H     H_    0.996258 0.835289 0.088450 0.113015
H26   H     H_    0.098286 0.135806 0.918098 0.115487
H27   H     H_    0.490741 0.388118 0.927344 0.116060
H28   H     H_    0.518894 0.702822 0.096101 0.111872
H29   H     H_    0.023874 0.716218 0.046904 0.141996
H30   H     H_    0.051918 0.254627 0.958900 0.143992
H31   H     H_    0.566870 0.275713 0.969668 0.143439
H32   H     H_    0.529081 0.819079 0.052822 0.139012
C81   C     C_R   0.970951 0.527137 0.379864 -0.026997
C82   C     C_R   0.029085 0.472745 0.620097 -0.028296
C83   C     C_R   0.525281 0.027874 0.620047 -0.027328
C84   C     C_R   0.474714 0.972323 0.379885 -0.024559
C85   C     C_R   0.930636 0.339605 0.403814 -0.192057
C86   C     C_R   0.069479 0.660246 0.596128 -0.192179
C87   C     C_R   0.471367 0.840513 0.596634 -0.193647
C88   C     C_R   0.528595 0.159730 0.403261 -0.193182
C89   C     C_R   0.928201 0.414529 0.373900 -0.209461
C90   C     C_R   0.071857 0.585354 0.626048 -0.208750
C91   C     C_R   0.485037 0.915397 0.626479 -0.207512
C92   C     C_R   0.514904 0.084794 0.373425 -0.208343
C93   C     C_R   0.004550 0.566335 0.416012 -0.217939
C94   C     C_R   0.995562 0.433503 0.583950 -0.217995
C95   C     C_R   0.539454 0.067174 0.583653 -0.218657
C96   C     C_R   0.460547 0.933093 0.416283 -0.218162
C97   C     C_R   0.990643 0.494219 0.447391 0.058328
C98   C     C_R   0.009460 0.505600 0.552564 0.058505
C99   C     C_R   0.511532 0.994846 0.552524 0.059042
C100  C     C_R   0.488571 0.005450 0.447397 0.058530
C101  C     C_R   0.969644 0.375697 0.440898 0.133044
C102  C     C_R   0.030464 0.624128 0.559049 0.132899
C103  C     C_R   0.493941 0.876336 0.559285 0.133613
C104  C     C_R   0.506142 0.123950 0.440622 0.133544
C105  C     C_R   0.998688 0.537492 0.484692 0.025332
C106  C     C_R   0.001396 0.462318 0.515263 0.025221
C107  C     C_R   0.504104 0.037852 0.515183 0.025236
C108  C     C_R   0.496082 0.962461 0.484737 0.025422
C109  C     C_R   0.004020 0.345453 0.507848 -0.291495
C110  C     C_R   0.996023 0.654356 0.492103 -0.291494
C111  C     C_R   0.503161 0.845678 0.492265 -0.292862
C112  C     C_R   0.497118 0.154636 0.507650 -0.292804
C113  C     C_R   0.988312 0.299694 0.471723 0.125576
C114  C     C_R   0.011760 0.700123 0.528225 0.125554
C115  C     C_R   0.500796 0.800122 0.528480 0.126221
C116  C     C_R   0.499398 0.200176 0.471428 0.126376
H33   H     H_    0.958963 0.345777 0.581522 0.098902
H34   H     H_    0.041217 0.654049 0.418445 0.098864
H35   H     H_    0.424260 0.845506 0.419139 0.097546
H36   H     H_    0.575646 0.154778 0.580812 0.097481
H37   H     H_    0.106270 0.615624 0.654000 0.114136
H38   H     H_    0.893768 0.384288 0.345945 0.111938
H39   H     H_    0.533993 0.114991 0.345164 0.108887
H40   H     H_    0.465880 0.885146 0.654729 0.113302
H41   H     H_    0.892177 0.255435 0.396848 0.151107
H42   H     H_    0.107946 0.744420 0.603086 0.151258
H43   H     H_    0.435963 0.756411 0.603980 0.150542
H44   H     H_    0.563950 0.243825 0.395896 0.150297
H45   H     H_    0.024242 0.285553 0.530202 0.129302
H46   H     H_    0.975741 0.714251 0.469750 0.129223
H47   H     H_    0.516188 0.785788 0.469884 0.129973
H48   H     H_    0.484243 0.214539 0.530031 0.130046
C117  C     C_3   0.995755 0.169878 0.471215 -0.340494
C118  C     C_3   0.033780 0.104789 0.435336 -0.753722
H49   H     H_    0.900145 0.088404 0.419317 0.226580
H50   H     H_    0.138596 0.148374 0.418007 0.244310
H51   H     H_    0.091243 0.020243 0.442747 0.218088
H52   H     H_    0.111552 0.143463 0.491055 0.191276
H53   H     H_    0.864988 0.136476 0.483461 0.187319
C119  C     C_3   0.004371 0.829941 0.528731 -0.340694
C120  C     C_3   0.966159 0.895026 0.564603 -0.753255
H54   H     H_    0.861353 0.851398 0.581922 0.244369
H55   H     H_    0.099727 0.911473 0.580636 0.226590
H56   H     H_    0.908625 0.979548 0.557183 0.218088
H57   H     H_    0.135210 0.863328 0.516511 0.187298
H58   H     H_    0.888692 0.856380 0.508868 0.191263
C121  C     C_3   0.508834 0.670318 0.529069 -0.339459
C122  C     C_3   0.560449 0.605369 0.564808 -0.753541
H59   H     H_    0.672021 0.648875 0.581608 0.243885
H60   H     H_    0.433175 0.589272 0.581442 0.227476
H61   H     H_    0.614639 0.520696 0.557226 0.218122
H62   H     H_    0.373705 0.636730 0.517372 0.186795
H63   H     H_    0.617121 0.643912 0.508793 0.191027
C123  C     C_3   0.491292 0.329977 0.470835 -0.339293
C124  C     C_3   0.439766 0.394914 0.435090 -0.754004
H64   H     H_    0.567066 0.410942 0.418456 0.227490
H65   H     H_    0.328137 0.351444 0.418294 0.243839
H66   H     H_    0.385665 0.479614 0.442664 0.218137
H67   H     H_    0.382921 0.356360 0.491097 0.191040
H68   H     H_    0.626378 0.363590 0.482546 0.186796

loop_
_geom_bond_atom_site_label_1
_geom_bond_atom_site_label_2
_ccdc_geom_bond_type
C25   H1    S    
C26   C30   A    
N4    C16   A    
C17   H18   S    
C84   C92   A    
O1    C5    A    
C119  H57   S    
O12   V4    S    
O13   V1    S    
C117  C118  S    
O3    C7    A    
C124  H64   S    
C10   N2    A    
C122  H61   S    
C40   C44   A    
C96   H35   S    
O15   V3    S    
C16   O27   S    
C28   C56   A    
C124  H66   S    
C23   H16   S    
C105  C106  A    
C116  C123  S    
C62   C77   A    
C11   C43   A    
C18   C22   A    
C17   C33   A    
C61   C78   A    
C112  H48   S    
C32   C36   A    
C47   H11   S    
O20   V1    S    
C88   H44   S    
O9    C4    A    
C122  H60   S    
C2    C55   S    
C86   C90   A    
C74   H22   S    
O10   C3    A    
N4    C36   S    
N2    C14   A    
O4    C8    A    
O11   C2    A    
C72   C76   A    
C24   C56   A    
C106  C109  A    
C97   C105  A    
C109  C113  A    
C31   H7    S    
C120  H56   S    
C57   C69   A    
C86   C102  A    
C58   C61   A    
C59   C67   A    
C19   H20   S    
O10   V2    S    
C89   H38   S    
C61   C65   A    
C12   C44   A    
C93   H34   S    
C14   C50   A    
C48   H12   S    
C108  C111  A    
C82   C90   A    
O16   C8    A    
C25   C53   A    
C119  C120  S    
C23   C55   A    
C118  H51   S    
C46   H10   S    
C112  C116  A    
C117  H52   S    
C14   O25   S    
C45   H9    S    
C59   C64   A    
C76   H24   S    
C15   C51   A    
C11   N3    A    
O5    V1    S    
O4    V1    S    
C20   C36   A    
C12   N4    A    
O9    V1    S    
O17   V4    S    
O7    C3    A    
C110  H46   S    
C40   C67   A    
O11   V3    S    
O18   V3    S    
O8    C4    A    
C60   C72   A    
C102  C114  A    
O19   V2    S    
C115  C121  S    
C21   C53   A    
C73   H21   S    
C26   C54   A    
C80   H32   S    
O16   V4    S    
C111  C115  A    
C28   H4    S    
C97   C101  A    
C82   C94   A    
C6    C84   S    
C98   C106  A    
O7    V3    S    
C118  H49   S    
C30   C34   A    
C87   C91   A    
O8    V4    S    
C12   O24   S    
C87   H43   S    
C122  H59   S    
C32   H8    S    
C72   H28   S    
C90   H37   S    
C22   C54   A    
C94   C98   A    
O15   C7    A    
C7    C81   S    
C19   C35   A    
C48   C80   A    
C19   C23   A    
O19   V3    S    
C49   C74   A    
C88   C104  A    
O1    V4    S    
O13   C5    A    
C64   C68   A    
C95   H36   S    
C83   C91   A    
C51   C76   A    
O3    V2    S    
C11   O23   S    
C121  C122  S    
C31   C35   A    
C38   C42   A    
C59   C71   A    
C58   C70   A    
C38   C65   A    
C87   C103  A    
O6    C2    A    
C18   C34   A    
C37   C66   A    
C104  C116  A    
C107  C108  A    
C70   C74   A    
O20   V4    S    
C95   C99   A    
C8    C82   S    
C39   C68   A    
C120  H54   S    
C117  H53   S    
C27   H3    S    
N1    C13   A    
C37   C41   A    
C26   H2    S    
C114  C119  S    
C101  C113  A    
C40   C52   A    
C118  H50   S    
C10   C42   A    
C3    C54   S    
O14   V2    S    
C96   C100  A    
C9    C41   A    
O6    V2    S    
C98   C102  A    
C83   C95   A    
C30   H6    S    
C4    C53   S    
C69   C73   A    
C27   C31   A    
C58   C66   A    
C81   C93   A    
C46   C78   A    
C70   H26   S    
C45   C77   A    
C60   C68   A    
C62   C66   A    
C103  C115  A    
C57   C62   A    
C100  C108  A    
C22   H13   S    
C47   C79   A    
C119  H58   S    
C109  H45   S    
C10   O22   S    
C123  H67   S    
C63   C67   A    
C91   H40   S    
C113  C117  S    
C44   C48   A    
C92   H39   S    
N3    C15   A    
C84   C96   A    
C18   H17   S    
C63   C80   A    
C94   H33   S    
C29   C33   A    
C124  H65   S    
C25   C29   A    
C107  C112  A    
C88   C92   A    
C13   O26   S    
C110  C114  A    
C71   C75   A    
C78   H30   S    
C99   C103  A    
C28   C32   A    
C9    N1    A    
O14   C6    A    
C75   H23   S    
N1    C33   S    
C77   H29   S    
O2    C6    A    
C111  H47   S    
C39   C43   A    
O17   V1    S    
C15   O28   S    
C43   C47   A    
C105  C110  A    
C52   C75   A    
C17   C21   A    
O5    C1    A    
C1    C56   S    
C120  H55   S    
C71   H27   S    
C69   H25   S    
C9    O21   S    
C99   C107  A    
C13   C49   A    
C5    C83   S    
C64   C79   A    
C85   C89   A    
C123  C124  S    
C38   C50   A    
C27   C55   A    
C24   H15   S    
C37   C49   A    
C86   H42   S    
C16   C52   A    
C100  C104  A    
C85   H41   S    
O12   C1    A    
N3    C35   S    
C123  H68   S    
C42   C46   A    
C85   C101  A    
N2    C34   S    
C20   H19   S    
C41   C45   A    
O2    V3    S    
C39   C51   A    
C21   H14   S    
C50   C73   A    
C81   C89   A    
C121  H63   S    
C121  H62   S    
C29   H5    S    
C57   C65   A    
C60   C63   A    
C93   C97   A    
C20   C24   A    
C79   H31   S    
O18   V2    S    
