data_mof_unit_25242.cif
_audit_creation_date              2013-03-05T16:31:38-0500
_audit_creation_method            fapswitch 2.2
_symmetry_space_group_name_H-M    P1
_symmetry_Int_Tables_number       1
_space_group_crystal_system       triclinic
_cell_length_a                    9.55073
_cell_length_b                    10.83299
_cell_length_c                    15.437983
_cell_angle_alpha                 89.741942
_cell_angle_beta                  74.382901
_cell_angle_gamma                 89.907652
_cell_volume                      1538.27652788

loop_
_atom_site_label
_atom_site_type_symbol
_atom_site_description
_atom_site_fract_x
_atom_site_fract_y
_atom_site_fract_z
_atom_type_partial_charge
O1    O     O_R   0.118810 0.319640 0.500000 -0.575368
O2    O     O_R   0.881230 0.319680 0.499990 -0.584387
C1    C     C_R   0.000557 0.262401 0.498910 0.831630
O3    O     O_R   0.055580 0.499970 0.629840 -0.583522
O4    O     O_R   0.818000 0.500010 0.629830 -0.586476
C2    C     C_R   0.918259 0.497061 0.672150 0.852674
Cu1   Cu    Cu3+1 0.140670 0.499980 0.500000 0.959577
Cu2   Cu    Cu3+1 0.859330 0.500020 0.500000 0.954209
O5    O     O_R   0.118770 0.680320 0.500010 -0.579103
O6    O     O_R   0.881190 0.680360 0.500000 -0.586239
O7    O     O_R   0.182000 0.499990 0.370170 -0.589237
O8    O     O_R   0.944420 0.500030 0.370160 -0.582206
C3    C     C_R   0.000481 0.737660 0.498732 0.798586
C4    C     C_R   0.081827 0.501265 0.327751 0.790220
C5    C     C_R   0.872525 0.477175 0.769733 -0.123639
C6    C     C_R   0.127104 0.507751 0.229159 -0.049956
C7    C     C_R   0.906262 0.373409 0.902519 0.327116
C8    C     C_R   0.960497 0.412342 0.813144 -0.210627
C9    C     C_R   0.731161 0.508489 0.816557 -0.240097
C10   C     C_R   0.669274 0.466906 0.904914 0.060291
C11   C     C_R   0.759092 0.399639 0.948849 0.027200
C12   C     C_R   0.519843 0.488758 0.949862 0.093501
C13   C     C_R   0.465886 0.454739 0.041872 0.075531
C14   C     C_R   0.555906 0.384494 0.082287 -0.231761
C15   C     C_R   0.697763 0.355628 0.036210 -0.159543
C16   C     C_R   0.421188 0.539829 0.905223 -0.196189
C17   C     C_R   0.277494 0.563694 0.950745 -0.179473
C18   C     C_R   0.227472 0.541320 0.042714 0.185965
C19   C     C_R   0.321597 0.488301 0.089681 0.096361
C20   C     C_R   0.083810 0.571810 0.088356 -0.109163
C21   C     C_R   0.033303 0.553268 0.180828 -0.167071
C22   C     C_R   0.269625 0.475177 0.183610 -0.246643
H1    H     H_    0.757368 0.296763 0.070301 0.203527
H2    H     H_    0.339872 0.444283 0.223507 0.144573
H3    H     H_    0.922827 0.578822 0.214811 0.138144
H4    H     H_    0.205577 0.602040 0.913807 0.145458
H5    H     H_    0.070678 0.388758 0.776585 0.211055
H6    H     H_    0.671455 0.564787 0.781197 0.153251
H7    H     H_    0.517453 0.345086 0.148705 0.145026
H8    H     H_    0.449615 0.559161 0.834106 0.142135
H9    H     H_    0.010685 0.610528 0.052471 0.134651
C23   C     C_R   0.127966 0.063288 0.494833 0.003754
C24   C     C_R   0.004024 0.129391 0.491255 -0.046335
C25   C     C_R   0.885244 0.064879 0.476130 -0.179828
H10   H     H_    0.789995 0.113167 0.468268 0.160930
C26   C     C_R   0.885154 0.936164 0.476193 -0.193316
H11   H     H_    0.789653 0.888600 0.468783 0.149741
C27   C     C_R   0.004113 0.870837 0.490857 -0.049796
C28   C     C_R   0.128479 0.936160 0.493959 0.043132
C29   C     C_3   0.219600 0.926958 0.558817 -0.482101
C30   C     C_3   0.219407 0.067432 0.559990 0.179910
H12   H     H_    0.161103 0.882477 0.623505 0.230636
H13   H     H_    0.328982 0.888032 0.527298 0.160869
H14   H     H_    0.328454 0.109119 0.530785 0.100358
C31   C     C_R   0.606144 0.535035 0.424987 0.258469
N1    N     N_R   0.648210 0.500930 0.499430 -0.191267
C32   C     C_R   0.543438 0.453754 0.570786 -0.071013
H15   H     H_    0.573114 0.417467 0.628722 0.162206
C33   C     C_R   0.394697 0.454344 0.570951 -0.065632
H16   H     H_    0.313986 0.419654 0.629113 0.180018
N2    N     N_R   0.352300 0.500890 0.499430 -0.194212
C34   C     C_R   0.458943 0.534220 0.424808 0.256780
C35   C     C_3   0.471795 0.655545 0.377658 -0.491503
C36   C     C_3   0.630010 0.657765 0.379168 -0.507884
H17   H     H_    0.457690 0.646813 0.308772 0.198381
H18   H     H_    0.405043 0.728726 0.419317 0.214983
H19   H     H_    0.706397 0.652881 0.310983 0.190392
H20   H     H_    0.653963 0.731367 0.422853 0.207750
N3    N     N_R   0.143287 0.118131 0.647859 0.154978
O9    O     O_R   0.211515 0.193035 0.687944 -0.364120
O10   O     O_R   0.011030 0.084524 0.688705 -0.341291
N4    N     N_R   0.000239 0.302506 0.942720 0.112414
O11   O     O_R   0.091577 0.224128 0.894255 -0.283086
O12   O     O_R   0.011151 0.328670 0.022748 -0.394300

loop_
_geom_bond_atom_site_label_1
_geom_bond_atom_site_label_2
_geom_bond_distance
_ccdc_geom_bond_type
C5    C8    1.394763 A    
C31   N1    1.364916 A    
C35   H17   1.111819 S    
C9    C10   1.405051 A    
Cu2   N1    2.018746 S    
Cu1   Cu2   2.687001 S    
C6    C21   1.399137 A    
Cu1   O7    1.935746 S    
C1    C24   1.445857 S    
C16   C17   1.387571 A    
C36   H20   1.109691 S    
C18   C19   1.417498 A    
C8    H5    1.082502 S    
C19   C22   1.407171 A    
O4    C2    1.296655 A    
O7    C4    1.296747 A    
C32   C33   1.419909 A    
C31   C34   1.406667 A    
C14   H7    1.078096 S    
N1    C32   1.370794 A    
N3    O10   1.302409 A    
O5    C3    1.293131 A    
Cu1   N2    2.018910 S    
C2    C5    1.466219 S    
C29   H12   1.112550 S    
C13   C14   1.410664 A    
C20   H9    1.084374 S    
C23   C30   1.500016 S    
C35   H18   1.109393 S    
C33   H16   1.080235 S    
N2    C34   1.364021 A    
O3    Cu1   1.949682 S    
C25   C26   1.394366 A    
C7    C8    1.400221 A    
C26   C27   1.406183 A    
C33   N2    1.368350 A    
C29   H13   1.110267 S    
C36   H19   1.109043 S    
C14   C15   1.386043 A    
O3    C2    1.298622 A    
C7    C11   1.423812 A    
O1    C1    1.293409 A    
C22   H2    1.077688 S    
C5    C9    1.391298 A    
C24   C25   1.405889 A    
C34   C35   1.488662 S    
C9    H6    1.076373 S    
C3    C27   1.446965 S    
Cu2   O8    1.949682 S    
C31   C36   1.491862 S    
C29   C30   1.521926 S    
N4    O12   1.300066 A    
C27   C28   1.395537 A    
C10   C12   1.428835 A    
C21   H3    1.080510 S    
C23   C24   1.396133 A    
C13   C19   1.424494 A    
C25   H10   1.083169 S    
Cu1   O5    1.964447 S    
C11   C15   1.399676 A    
C26   H11   1.081084 S    
O1    Cu1   1.965080 S    
O2    Cu2   1.964446 S    
O8    C4    1.299396 A    
N4    O11   1.301389 A    
O6    C3    1.293786 A    
O4    Cu2   1.935743 S    
C17   H4    1.085066 S    
C6    C22   1.398981 A    
C30   H14   1.112998 S    
C18   C20   1.402956 A    
O2    C1    1.292948 A    
C16   H8    1.077310 S    
C32   H15   1.080647 S    
C20   C21   1.392103 A    
C4    C6    1.467434 S    
N3    O9    1.299754 A    
C23   C28   1.377287 A    
C35   C36   1.517746 S    
C10   C11   1.426087 A    
C7    N4    1.440184 S    
Cu2   O6    1.965080 S    
C28   C29   1.495937 S    
C12   C16   1.418898 A    
C17   C18   1.391014 A    
C12   C13   1.421553 A    
C30   N3    1.464505 S    
C15   H1    1.079266 S    
