data_mof_unit_24057.cif
_audit_creation_date              2012-12-10T20:44:41-0500
_audit_creation_method            fapswitch 2.2
_symmetry_space_group_name_H-M    P1
_symmetry_Int_Tables_number       1
_space_group_crystal_system       triclinic
_cell_length_a                    9.871197
_cell_length_b                    10.691717
_cell_length_c                    16.882906
_cell_angle_alpha                 89.111271
_cell_angle_beta                  94.857942
_cell_angle_gamma                 90.484227
_cell_volume                      1775.1627267

loop_
_atom_site_label
_atom_site_type_symbol
_atom_type_description
_atom_site_fract_x
_atom_site_fract_y
_atom_site_fract_z
_atom_type_partial_charge
C1    C     C_R   0.499929 0.260195 0.502242 0.870962
C2    C     C_R   0.645848 0.457375 0.782264 -0.238805
C3    C     C_R   0.543737 0.435878 0.139243 -0.193290
C4    C     C_R   0.552492 0.432449 0.221046 -0.311789
C5    C     C_R   0.449422 0.514934 0.096841 0.232512
C6    C     C_R   0.467632 0.507526 0.261559 -0.100656
C7    C     C_R   0.369109 0.584607 0.220246 0.164687
C8    C     C_R   0.358104 0.585748 0.136900 0.144412
C9    C     C_R   0.622733 0.064864 0.507599 0.029680
C10   C     C_R   0.501682 0.128634 0.512511 -0.094883
C11   C     C_R   0.384277 0.063167 0.530523 -0.217047
C12   C     C_R   0.518268 0.499470 0.652984 0.878882
C13   C     C_R   0.384700 0.933691 0.530359 -0.222039
C14   C     C_R   0.503004 0.871202 0.512974 -0.076302
C15   C     C_R   0.624086 0.937435 0.509300 0.032600
C16   C     C_3   0.733737 0.929175 0.453582 -0.513219
C17   C     C_3   0.731701 0.072305 0.450262 0.436046
C18   C     C_R   0.077468 0.421110 0.549652 0.200406
C19   C     C_R   0.065748 0.568563 0.445835 -0.199554
C20   C     C_R   0.921416 0.567297 0.444563 0.233074
C21   C     C_R   0.935120 0.421252 0.549699 0.215102
C22   C     C_3   0.941788 0.418044 0.638140 -0.532811
C23   C     C_R   0.500632 0.739942 0.501970 0.876326
C24   C     C_3   0.095572 0.418243 0.638247 -0.493861
C25   C     C_R   0.481578 0.502603 0.347173 0.914317
C26   C     C_R   0.531062 0.506146 0.738564 -0.074083
C27   C     C_R   0.428774 0.563428 0.776642 -0.239793
C28   C     C_R   0.438371 0.568233 0.858401 -0.191651
C29   C     C_R   0.550238 0.513835 0.903502 0.241440
C30   C     C_R   0.657384 0.461910 0.865072 0.223022
H1    H     H_    0.699766 0.882354 0.397068 0.197099
H2    H     H_    0.724000 0.411865 0.752132 0.160230
N1    N     N_2   0.555923 0.507933 0.987113 -0.209115
N2    N     N_2   0.443565 0.523778 0.013580 -0.197117
N3    N     N_R   0.142860 0.499130 0.500540 -0.119688
N4    N     N_R   0.857210 0.499170 0.500530 -0.125089
O1    O     O_R   0.614690 0.316790 0.499990 -0.617398
O2    O     O_R   0.385350 0.316760 0.500000 -0.624501
O3    O     O_R   0.627460 0.498860 0.616130 -0.625752
O4    O     O_R   0.398120 0.498820 0.616130 -0.622678
O5    O     O_R   0.614650 0.683240 0.500000 -0.603211
O6    O     O_R   0.385310 0.683210 0.500010 -0.623206
O7    O     O_R   0.601880 0.501180 0.383870 -0.600302
O8    O     O_R   0.372540 0.501140 0.383870 -0.594847
Zn1   Zn    Zn3+2 0.653130 0.500020 0.499990 0.957948
Zn2   Zn    Zn3+2 0.346870 0.499980 0.500010 0.944731
H3    H     H_    0.625339 0.370653 0.252837 0.167649
H4    H     H_    0.291180 0.883649 0.539261 0.167166
H5    H     H_    0.827882 0.889393 0.484572 0.179401
N5    N     N_2   0.856703 0.129177 0.486032 -0.307657
H6    H     H_    0.878579 0.108320 0.545642 0.212125
C31   C     C_3   0.974899 0.121917 0.440976 -0.804565
H7    H     H_    0.060431 0.174836 0.471861 0.234357
H8    H     H_    0.953619 0.164100 0.380774 0.253772
H9    H     H_    0.006395 0.023113 0.435761 0.234143
N6    N     N_2   0.689196 0.127286 0.372011 -0.287511
H10   H     H_    0.711562 0.221337 0.366908 0.240927
C32   C     C_3   0.559040 0.094618 0.330533 -0.823397
H11   H     H_    0.565063 0.109316 0.265709 0.243844
H12   H     H_    0.477994 0.156034 0.349327 0.233229
H13   H     H_    0.530322 0.995832 0.340877 0.250773
H14   H     H_    0.115707 0.626000 0.403543 0.171207
N7    N     N_2   0.844270 0.639510 0.386165 -0.257547
H15   H     H_    0.871892 0.732526 0.388417 0.199201
C33   C     C_3   0.847372 0.593539 0.306131 -0.752979
H16   H     H_    0.948991 0.610326 0.284074 0.206314
H17   H     H_    0.769997 0.643401 0.266086 0.245160
H18   H     H_    0.824294 0.491722 0.304283 0.248882
H19   H     H_    0.901726 0.504609 0.663054 0.215796
H20   H     H_    0.900131 0.329122 0.661335 0.200554
H21   H     H_    0.143659 0.505045 0.663184 0.214383
H22   H     H_    0.610899 0.376954 0.108906 0.162408
H23   H     H_    0.142705 0.329705 0.661836 0.203044
N8    N     N_2   0.772221 0.406635 0.908918 -0.308031
H24   H     H_    0.761074 0.386341 0.967906 0.234249
C34   C     C_3   0.901984 0.464706 0.896807 -0.800703
H25   H     H_    0.984408 0.412051 0.931127 0.240453
H26   H     H_    0.903766 0.562841 0.917639 0.242040
H27   H     H_    0.922256 0.463344 0.833144 0.248378
N9    N     N_2   0.286112 0.664215 0.262582 -0.293233
H28   H     H_    0.189304 0.677884 0.236159 0.242212
C35   C     C_3   0.351269 0.780148 0.288212 -0.781632
H29   H     H_    0.284071 0.831341 0.325917 0.236987
H30   H     H_    0.370674 0.839804 0.235816 0.241642
H31   H     H_    0.448989 0.761751 0.323910 0.228124
H32   H     H_    0.356968 0.612944 0.886279 0.160387
N10   N     N_2   0.260984 0.664181 0.093855 -0.310304
H33   H     H_    0.298845 0.712847 0.047225 0.236678
C36   C     C_3   0.133434 0.602123 0.070445 -0.815752
H34   H     H_    0.060577 0.671044 0.041835 0.244105
H35   H     H_    0.088618 0.560644 0.123133 0.243686
H36   H     H_    0.149291 0.527233 0.027352 0.247182
H37   H     H_    0.341442 0.604767 0.743196 0.157347
H38   H     H_    0.290902 0.111078 0.539985 0.164723

loop_
_geom_bond_atom_site_label_1
_geom_bond_atom_site_label_2
_ccdc_geom_bond_type
N10   H33   S    
N7    C33   S    
C18   C21   A    
C19   C20   A    
C34   H27   S    
C25   O7    A    
C7    C8    A    
C21   N4    A    
C16   H1    S    
O4    Zn2   S    
C26   C27   A    
C23   O6    A    
N8    C34   S    
C18   C24   S    
C28   C29   A    
C34   H26   S    
C30   N8    S    
C24   H23   S    
C6    C25   S    
C19   H14   S    
C32   H12   S    
C15   C16   S    
C29   N1    S    
N6    H10   S    
C2    H2    S    
O6    Zn2   S    
O8    Zn2   S    
C16   C17   S    
C33   H17   S    
N5    C31   S    
C36   H35   S    
C18   N3    A    
C22   H19   S    
C31   H9    S    
C1    O1    A    
O3    Zn1   S    
C32   H13   S    
C21   C22   S    
C25   O8    A    
C31   H8    S    
N1    N2    D    
N8    H24   S    
C16   H5    S    
C4    C6    A    
C32   H11   S    
C12   C26   S    
C14   C23   S    
C12   O4    A    
C29   C30   A    
C5    C8    A    
C33   H18   S    
C5    N2    S    
N5    H6    S    
N4    Zn1   S    
C2    C26   A    
C34   H25   S    
C36   H36   S    
O7    Zn1   S    
C17   N6    S    
C1    O2    A    
C11   H38   S    
C9    C17   S    
C35   H29   S    
C35   H30   S    
N10   C36   S    
C28   H32   S    
C22   C24   S    
C27   H37   S    
O1    Zn1   S    
C3    C4    A    
C31   H7    S    
C9    C10   A    
C1    C10   S    
N9    H28   S    
C3    C5    A    
C17   N5    S    
C13   H4    S    
C6    C7    A    
C35   H31   S    
C23   O5    A    
C2    C30   A    
C8    N10   S    
C12   O3    A    
C3    H22   S    
C9    C15   A    
C19   N3    A    
C11   C13   A    
C20   N7    S    
N9    C35   S    
N6    C32   S    
O2    Zn2   S    
C10   C11   A    
N7    H15   S    
C20   N4    A    
C33   H16   S    
C27   C28   A    
O5    Zn1   S    
C14   C15   A    
C36   H34   S    
C13   C14   A    
N3    Zn2   S    
C22   H20   S    
C24   H21   S    
C7    N9    S    
C4    H3    S    
