data_mof_unit_11105.cif
_audit_creation_date              2012-12-10T19:53:42-0500
_audit_creation_method            fapswitch 2.2
_symmetry_space_group_name_H-M    P1
_symmetry_Int_Tables_number       1
_space_group_crystal_system       triclinic
_cell_length_a                    14.988913
_cell_length_b                    14.417566
_cell_length_c                    10.46438
_cell_angle_alpha                 90.364642
_cell_angle_beta                  92.981779
_cell_angle_gamma                 90.049154
_cell_volume                      2258.28166531

loop_
_atom_site_label
_atom_site_type_symbol
_atom_type_description
_atom_site_fract_x
_atom_site_fract_y
_atom_site_fract_z
_atom_type_partial_charge
C1    C     C_R   0.328169 0.499938 0.499583 0.837090
C2    C     C_R   0.671807 0.499990 0.500312 0.836740
C3    C     C_R   0.465419 0.102271 0.396194 -0.296054
C4    C     C_R   0.561345 0.895769 0.575963 -0.286177
C5    C     C_R   0.532755 0.103348 0.605080 -0.294488
C6    C     C_R   0.437365 0.894628 0.425047 -0.273100
C7    C     C_R   0.464220 0.200721 0.395623 0.218545
C8    C     C_R   0.558524 0.797727 0.580875 0.220825
C9    C     C_R   0.534904 0.201798 0.605117 0.219490
C10   C     C_R   0.442155 0.796812 0.417982 0.276980
C11   C     C_R   0.498915 0.051853 0.500786 0.104300
C12   C     C_R   0.498879 0.946381 0.501071 0.079921
C13   C     C_R   0.501328 0.499625 0.257816 0.850894
C14   C     C_R   0.499071 0.500205 0.742129 0.851384
C15   C     C_3   0.416739 0.509672 0.037724 -0.205061
C16   C     C_3   0.584171 0.488995 0.961923 -0.195009
C17   C     C_3   0.466757 0.580732 0.958130 -0.154886
C18   C     C_3   0.534266 0.417929 0.041500 -0.153928
C19   C     C_3   0.448878 0.429071 0.954054 -0.158731
C20   C     C_3   0.552050 0.569506 0.045704 -0.160263
C21   C     C_3   0.498969 0.500215 0.877236 0.046641
C22   C     C_3   0.501934 0.498591 0.122551 0.036388
C23   C     C_R   0.092389 0.577138 0.454534 -0.179501
C24   C     C_R   0.903699 0.421681 0.453030 -0.181708
C25   C     C_R   0.907859 0.576658 0.546728 -0.179092
C26   C     C_R   0.095740 0.421041 0.541802 -0.181232
C27   C     C_R   0.184504 0.577627 0.455358 -0.201545
C28   C     C_R   0.811663 0.421743 0.454200 -0.202573
C29   C     C_R   0.815776 0.577123 0.546637 -0.200592
C30   C     C_R   0.187801 0.421122 0.541398 -0.203630
C31   C     C_R   0.232217 0.499601 0.498772 -0.018757
C32   C     C_R   0.767695 0.499678 0.500404 -0.018342
C33   C     C_R   0.048045 0.499038 0.498363 0.116334
C34   C     C_R   0.951789 0.499119 0.499359 0.115841
H1    H     H_    0.406583 0.372086 0.912399 0.127790
H2    H     H_    0.594351 0.625540 0.089507 0.139529
H3    H     H_    0.348810 0.517928 0.073808 0.125047
H4    H     H_    0.652132 0.480731 0.925977 0.127023
H5    H     H_    0.438368 0.646280 0.918856 0.135149
H6    H     H_    0.563681 0.351970 0.077693 0.124251
H7    H     H_    0.055747 0.637223 0.419013 0.129569
H8    H     H_    0.937264 0.361878 0.414799 0.130792
H9    H     H_    0.944797 0.636253 0.584606 0.129938
H10   H     H_    0.061850 0.360809 0.577390 0.130764
H11   H     H_    0.218155 0.638358 0.420940 0.139464
H12   H     H_    0.774968 0.361684 0.417325 0.149979
H13   H     H_    0.782438 0.637265 0.583984 0.142293
H14   H     H_    0.224139 0.360622 0.576141 0.149285
H15   H     H_    0.440777 0.064317 0.312174 0.133345
H16   H     H_    0.613391 0.932098 0.631556 0.141315
H17   H     H_    0.556857 0.066140 0.689339 0.131423
H18   H     H_    0.385744 0.929898 0.368073 0.150744
N1    N     N_R   0.500000 0.252470 0.500000 -0.110468
N2    N     N_R   0.500000 0.747530 0.500000 -0.131155
O1    O     O_R   0.369060 0.579480 0.500010 -0.637544
O2    O     O_R   0.630940 0.420520 0.499990 -0.635525
O3    O     O_R   0.630940 0.579480 0.499990 -0.638598
O4    O     O_R   0.369060 0.420520 0.500010 -0.635798
O5    O     O_R   0.499980 0.579460 0.313950 -0.636372
O6    O     O_R   0.500020 0.420540 0.686050 -0.639182
O7    O     O_R   0.500020 0.579460 0.686050 -0.631180
O8    O     O_R   0.499980 0.420540 0.313950 -0.637187
Zn1   Zn    Zn3+2 0.500000 0.606140 0.500000 0.913020
Zn2   Zn    Zn3+2 0.500000 0.393860 0.500000 0.913737
C35   C     C_3   0.423728 0.241632 0.271877 -0.384489
C36   C     C_3   0.333745 0.291173 0.286747 -0.250281
C37   C     C_3   0.264895 0.266436 0.179070 -0.966879
H19   H     H_    0.290696 0.284883 0.084864 0.264056
H20   H     H_    0.249421 0.191090 0.180436 0.266821
H21   H     H_    0.202296 0.305731 0.192211 0.260593
H22   H     H_    0.305240 0.272928 0.379316 0.224748
H23   H     H_    0.343555 0.367119 0.282642 0.240173
H24   H     H_    0.472772 0.283182 0.223327 0.197688
H25   H     H_    0.412166 0.185617 0.199284 0.172902
C38   C     C_3   0.625294 0.752707 0.674178 -0.398527
C39   C     C_3   0.610005 0.780153 0.813481 -0.369100
C40   C     C_3   0.683667 0.741291 0.903922 -0.898941
H26   H     H_    0.749460 0.770486 0.880769 0.260849
H27   H     H_    0.670428 0.760641 0.004023 0.249757
H28   H     H_    0.686282 0.664542 0.895589 0.261946
H29   H     H_    0.609441 0.856709 0.825532 0.217014
H30   H     H_    0.544382 0.753109 0.840835 0.231037
H31   H     H_    0.623073 0.677227 0.668875 0.260413
H32   H     H_    0.693490 0.774296 0.649479 0.174448
C41   C     C_3   0.575390 0.243745 0.729314 -0.380373
C42   C     C_3   0.665459 0.293264 0.714689 -0.252803
C43   C     C_3   0.733542 0.271156 0.824019 -0.972221
H33   H     H_    0.706748 0.291129 0.917324 0.264131
H34   H     H_    0.749560 0.195939 0.824367 0.268098
H35   H     H_    0.796029 0.310739 0.811317 0.261161
H36   H     H_    0.694714 0.273117 0.623063 0.225162
H37   H     H_    0.655613 0.369206 0.716759 0.239561
H38   H     H_    0.526366 0.285125 0.779442 0.200624
H39   H     H_    0.587388 0.188063 0.801240 0.171316
C44   C     C_3   0.382430 0.751069 0.315065 -0.407610
C45   C     C_3   0.420008 0.757936 0.181373 -0.326021
C46   C     C_3   0.411950 0.854292 0.121942 -0.897914
H40   H     H_    0.343094 0.881698 0.128373 0.257267
H41   H     H_    0.460654 0.902905 0.169681 0.262174
H42   H     H_    0.427338 0.849806 0.019395 0.242100
H43   H     H_    0.491168 0.736345 0.185103 0.237801
H44   H     H_    0.381615 0.708987 0.117279 0.206642
H45   H     H_    0.372901 0.677574 0.333949 0.225920
H46   H     H_    0.314335 0.781725 0.314230 0.162605

loop_
_geom_bond_atom_site_label_1
_geom_bond_atom_site_label_2
_ccdc_geom_bond_type
C43   H33   S    
C16   C21   S    
C45   H44   S    
C24   H8    S    
C44   C45   S    
C4    C8    A    
C25   H9    S    
C46   H40   S    
C3    H15   S    
C2    O3    A    
C26   H10   S    
C40   H26   S    
C15   C19   S    
C28   H12   S    
C29   H13   S    
C14   C21   S    
C30   H14   S    
C19   C21   S    
C5    C11   A    
C29   C32   A    
C3    C7    A    
C42   H36   S    
C6    C12   A    
C30   C31   A    
N1    Zn2   S    
C38   H32   S    
N2    Zn1   S    
C1    C31   S    
C17   C20   S    
C35   H24   S    
C2    C32   S    
C18   C19   S    
C17   H5    S    
O7    Zn1   S    
C18   H6    S    
C15   H3    S    
O8    Zn2   S    
C9    C41   S    
C41   H38   S    
C15   C22   S    
C36   H23   S    
C13   O8    A    
C23   C33   A    
O1    Zn1   S    
O2    Zn2   S    
C23   C27   A    
C4    C12   A    
C25   C34   A    
C27   H11   S    
C36   C37   S    
C45   H43   S    
O4    Zn2   S    
C46   H41   S    
C44   H45   S    
O3    Zn1   S    
C40   H27   S    
C25   C29   A    
C27   C31   A    
C37   H19   S    
C28   C32   A    
C39   C40   S    
C8    N2    A    
C42   C43   S    
C41   C42   S    
C14   O7    A    
C8    C38   S    
C24   C34   A    
C35   H25   S    
C4    H16   S    
C37   H20   S    
C38   C39   S    
C5    C9    A    
C7    C35   S    
C41   H39   S    
C26   C33   A    
C36   H22   S    
C16   C20   S    
C45   C46   S    
C33   C34   S    
C2    O2    A    
C20   C22   S    
C26   C30   A    
C43   H34   S    
C9    N1    A    
C7    N1    A    
C39   H30   S    
C46   H42   S    
C44   H46   S    
C40   H28   S    
C15   C17   S    
C18   C22   S    
C24   C28   A    
C39   H29   S    
C6    C10   A    
C11   C12   S    
C13   O5    A    
C14   O6    A    
O5    Zn1   S    
C23   H7    S    
O6    Zn2   S    
C37   H21   S    
C1    O1    A    
C19   H1    S    
C1    O4    A    
C38   H31   S    
C10   C44   S    
C13   C22   S    
C10   N2    A    
C17   C21   S    
C3    C11   A    
C20   H2    S    
C16   C18   S    
C35   C36   S    
C43   H35   S    
C5    H17   S    
C42   H37   S    
C6    H18   S    
C16   H4    S    
