data_mof_unit_39466.cif
_audit_creation_date              2012-12-11T16:41:24-0500
_audit_creation_method            fapswitch 2.2
_symmetry_space_group_name_H-M    P1
_symmetry_Int_Tables_number       1
_space_group_crystal_system       triclinic
_cell_length_a                    6.971734
_cell_length_b                    23.014873
_cell_length_c                    23.661786
_cell_angle_alpha                 112.582822
_cell_angle_beta                  90.846602
_cell_angle_gamma                 90.551488
_cell_volume                      3504.64991095

loop_
_atom_site_label
_atom_site_type_symbol
_atom_type_description
_atom_site_fract_x
_atom_site_fract_y
_atom_site_fract_z
_atom_type_partial_charge
O1    O     O_R   0.505740 0.453370 0.547760 -0.533432
O2    O     O_R   0.169520 0.427650 0.423350 -0.536339
O3    O     O_R   0.005620 0.546630 0.452240 -0.530058
C1    C     C_R   0.335920 0.409793 0.398599 0.704755
O4    O     O_R   0.175610 0.445960 0.545510 -0.536505
O5    O     O_R   0.011740 0.565080 0.575280 -0.526795
C2    C     C_R   0.344984 0.435444 0.563882 0.691788
O6    O     O_R   0.499610 0.434920 0.424720 -0.531045
O7    O     O_3   0.341310 0.539060 0.509620 -0.359434
V1    V     V_3+5 0.063960 0.492750 0.498220 1.491514
O8    O     O_R   0.682400 0.572350 0.576650 -0.541669
C3    C     C_R   0.853073 0.591494 0.599817 0.726447
O9    O     O_R   0.676320 0.554040 0.454490 -0.540484
C4    C     C_R   0.844656 0.566891 0.438765 0.699048
V2    V     V_3+5 0.564740 0.507250 0.501780 1.486387
O10   O     O_3   0.837250 0.460940 0.490380 -0.365410
C5    C     C_R   0.922186 0.925833 0.164687 0.321975
C6    C     C_R   0.909502 0.888877 0.199667 -0.088341
H1    H     H_    0.887225 0.911844 0.248466 0.168839
C7    C     C_R   0.923711 0.823207 0.173082 0.029881
C8    C     C_R   0.952517 0.793626 0.109419 0.239247
C9    C     C_R   0.976127 0.830566 0.073950 0.075760
C10   C     C_R   0.956128 0.896635 0.100949 -0.210502
C11   C     C_R   0.062224 0.750773 0.219571 0.356650
C12   C     C_R   0.044938 0.715985 0.256893 -0.254774
H2    H     H_    0.167377 0.690266 0.263021 0.154730
C13   C     C_R   0.873504 0.714443 0.286786 -0.053585
C14   C     C_R   0.715027 0.749375 0.278947 0.251905
C15   C     C_R   0.735945 0.787640 0.244433 0.310529
C16   C     C_R   0.906959 0.786418 0.212936 -0.016777
C17   C     C_R   0.780956 0.702223 0.384749 -0.096695
H3    H     H_    0.722041 0.749062 0.401135 0.180707
C18   C     C_R   0.770323 0.667612 0.422272 0.379010
C19   C     C_R   0.853328 0.606929 0.402481 -0.143171
C20   C     C_R   0.944495 0.583372 0.345801 -0.181734
H4    H     H_    0.008599 0.537334 0.329747 0.136845
C21   C     C_R   0.948933 0.617722 0.308248 -0.121938
H5    H     H_    0.015518 0.597052 0.264040 0.142376
C22   C     C_R   0.866173 0.677476 0.326951 0.029608
C23   C     C_R   0.865887 0.646968 0.658524 -0.124799
C24   C     C_R   0.942138 0.859502 0.837301 -0.129665
C25   C     C_R   0.989121 0.821772 0.726530 0.386196
C26   C     C_R   0.982890 0.871900 0.785014 0.068194
C27   C     C_R   0.878618 0.799356 0.830209 -0.219324
C28   C     C_R   0.872267 0.749860 0.772400 0.052856
C29   C     C_R   0.938110 0.759227 0.719877 0.036253
C30   C     C_R   0.945162 0.705680 0.662875 0.151139
C31   C     C_R   0.791622 0.640821 0.710514 -0.187495
C32   C     C_R   0.799849 0.690957 0.767012 -0.101858
H6    H     H_    0.730893 0.596234 0.707610 0.127787
H7    H     H_    0.746429 0.683831 0.806701 0.149682
H8    H     H_    0.831610 0.791214 0.869974 0.160146
C33   C     C_R   0.336468 0.355771 0.337543 -0.200043
C34   C     C_R   0.470510 0.147319 0.159557 -0.067951
C35   C     C_R   0.625930 0.212869 0.256559 -0.096758
C36   C     C_R   0.623587 0.159339 0.202003 -0.118683
C37   C     C_R   0.319728 0.190573 0.172786 -0.163328
C38   C     C_R   0.322955 0.246028 0.226965 0.023881
C39   C     C_R   0.477727 0.256762 0.269390 0.124722
C40   C     C_R   0.482966 0.311045 0.324030 -0.232888
C41   C     C_R   0.186110 0.346543 0.293378 0.336565
C42   C     C_R   0.178004 0.291621 0.239328 0.151114
H9    H     H_    0.599698 0.317821 0.356856 0.150707
H10   H     H_    0.745906 0.220469 0.288375 0.122512
H11   H     H_    0.741786 0.127018 0.193088 0.129966
H12   H     H_    0.203462 0.181153 0.139622 0.152810
C43   C     C_R   0.460312 0.167676 0.921535 0.349275
C44   C     C_R   0.452121 0.199508 0.881695 -0.177609
H13   H     H_    0.458713 0.250500 0.900623 0.188971
C45   C     C_R   0.430169 0.166996 0.818227 -0.043993
C46   C     C_R   0.420014 0.100697 0.793697 0.436062
C47   C     C_R   0.445656 0.067597 0.832992 0.052446
C48   C     C_R   0.456501 0.100900 0.897107 -0.219581
C49   C     C_R   0.557704 0.198962 0.734555 0.130068
C50   C     C_R   0.544197 0.235250 0.697592 0.317974
C51   C     C_R   0.390943 0.276971 0.705389 -0.046809
C52   C     C_R   0.249914 0.280840 0.748069 -0.202047
H14   H     H_    0.131891 0.312857 0.754037 0.174237
C53   C     C_R   0.258231 0.244847 0.784005 0.371008
C54   C     C_R   0.413741 0.203387 0.777857 -0.027769
C55   C     C_R   0.211968 0.318842 0.636101 -0.140952
H15   H     H_    0.090815 0.288450 0.634691 0.158980
C56   C     C_R   0.201633 0.357618 0.602747 -0.176578
H16   H     H_    0.072784 0.355472 0.575832 0.164982
C57   C     C_R   0.356254 0.397705 0.603125 -0.154727
C58   C     C_R   0.521265 0.399373 0.640097 0.325833
C59   C     C_R   0.532265 0.358434 0.671172 -0.058409
H17   H     H_    0.659398 0.359989 0.698676 0.153021
C60   C     C_R   0.378659 0.318087 0.669773 0.087469
O11   O     O_R   0.309730 0.065160 0.075230 -0.546821
O12   O     O_R   0.633800 0.053970 0.954410 -0.526722
O13   O     O_R   0.797580 0.934860 0.924760 -0.526384
C61   C     C_R   0.465026 0.065266 0.937377 0.756762
O14   O     O_R   0.639820 0.072410 0.076610 -0.544583
O15   O     O_R   0.803650 0.953440 0.047830 -0.537496
C62   C     C_R   0.473001 0.091214 0.100560 0.678192
O16   O     O_R   0.303670 0.046590 0.952160 -0.529034
O17   O     O_3   0.468000 0.960960 0.990410 -0.359367
V3    V     V_3+5 0.745380 0.007240 0.001780 1.513238
O18   O     O_R   0.132940 0.946010 0.045600 -0.529430
C63   C     C_R   0.964863 0.934352 0.062400 0.724734
O19   O     O_R   0.126920 0.927560 0.923400 -0.525682
C64   C     C_R   0.956203 0.910035 0.899163 0.797963
V4    V     V_3+5 0.244590 0.992720 0.998240 1.523683
O20   O     O_3   0.972110 0.039040 0.009600 -0.374663
O21   O     O_3   0.902999 0.990082 0.195237 -0.634436
H18   H     H_    0.924412 0.011913 0.167085 0.272492
O22   O     O_3   0.681070 0.695745 0.477765 -0.609100
H19   H     H_    0.697797 0.670109 0.502673 0.304223
I1    I     I_    0.084140 0.707556 0.583011 -0.255914
O23   O     O_3   0.029448 0.834143 0.675399 -0.590776
H20   H     H_    0.110355 0.872688 0.687463 0.344342
I2    I     I_    0.994752 0.968082 0.793787 -0.303408
O24   O     O_3   0.046128 0.390750 0.300752 -0.617642
H21   H     H_    0.100984 0.432967 0.325131 0.281779
I3    I     I_    0.947661 0.282834 0.175741 -0.318219
O25   O     O_3   0.473899 0.203965 0.983534 -0.609913
H22   H     H_    0.476338 0.176748 0.007254 0.281504
O26   O     O_3   0.386892 0.070254 0.731427 -0.598478
H23   H     H_    0.348425 0.026051 0.722019 0.345379
I4    I     I_    0.491669 0.967997 0.796294 -0.305992
I5    I     I_    0.804131 0.141830 0.729272 -0.279725
I6    I     I_    0.941390 0.693018 0.066157 -0.234217
O27   O     O_3   0.676839 0.231523 0.653509 -0.641569
H24   H     H_    0.755604 0.193772 0.644492 0.326707
O28   O     O_3   0.111775 0.252554 0.824868 -0.616733
H25   H     H_    0.111370 0.217692 0.839492 0.318805
O29   O     O_3   0.672509 0.441057 0.648522 -0.643116
H26   H     H_    0.620064 0.481261 0.649551 0.281237
I7    I     I_    0.045237 0.786983 0.979411 -0.344689
O30   O     O_3   0.230189 0.751066 0.189451 -0.604700
H27   H     H_    0.320573 0.721017 0.195783 0.329892
O31   O     O_3   0.536884 0.745595 0.302195 -0.656652
H28   H     H_    0.521879 0.703855 0.304734 0.292864
O32   O     O_3   0.588780 0.824863 0.238450 -0.616773
H29   H     H_    0.489393 0.828375 0.268988 0.355540

loop_
_geom_bond_atom_site_label_1
_geom_bond_atom_site_label_2
_ccdc_geom_bond_type
C38   C42   A    
C23   C30   A    
C35   C36   A    
C8    I6    S    
O28   H25   S    
C35   C39   A    
C47   I4    S    
O23   H20   S    
C48   C61   S    
C37   H12   S    
C59   H17   S    
O29   H26   S    
O24   H21   S    
O32   H29   S    
C7    C16   S    
C28   C29   A    
C5    C10   A    
C15   O32   S    
C40   H9    S    
C8    C9    A    
C14   C15   A    
C20   C21   A    
C21   H5    S    
C6    H1    S    
C57   C58   A    
C1    C33   S    
O15   V3    S    
O21   H18   S    
C10   C63   S    
C36   H11   S    
O18   V4    S    
O22   H19   S    
C5    C6    A    
C19   C20   A    
C25   C29   A    
O13   C64   A    
C33   C41   A    
C20   H4    S    
C13   C22   S    
C44   H13   S    
C32   H7    S    
C17   C18   A    
C45   C46   A    
C43   C48   A    
O7    V1    S    
C34   C62   S    
C1    O6    A    
C51   C60   S    
C55   C60   A    
C27   H8    S    
C31   H6    S    
C39   C40   A    
C49   C54   A    
O9    C4    A    
C9    I7    S    
C24   C26   A    
C41   C42   A    
C18   O22   S    
O8    V2    S    
C50   O27   S    
V4    O20   S    
C55   C56   A    
C33   C40   A    
C55   H15   S    
C52   C53   A    
V3    O20   S    
C34   C36   A    
C49   C50   A    
C45   C54   S    
C43   C44   A    
C11   C12   A    
O4    C2    A    
C58   C59   A    
C12   H2    S    
C52   H14   S    
C58   O29   S    
C14   O31   S    
C3    C23   S    
O2    C1    A    
C50   C51   A    
C42   I3    S    
C15   C16   A    
O12   C61   A    
C17   H3    S    
C28   C32   A    
O8    C3    A    
C35   H10   S    
C18   C19   A    
C51   C52   A    
O14   C62   A    
C43   O25   S    
O11   V4    S    
O3    C4    A    
O1    V2    S    
C31   C32   A    
C56   C57   A    
C53   O28   S    
O6    V2    S    
C59   C60   A    
O31   H28   S    
C24   C27   A    
C56   H16   S    
C25   C26   A    
O30   H27   S    
O2    V1    S    
C61   O16   A    
C41   O24   S    
C27   C28   A    
C23   C31   A    
C29   C30   A    
C49   I5    S    
O1    C2    A    
C25   O23   S    
C47   C48   A    
C4    C19   S    
O5    V1    S    
O26   H23   S    
O11   C62   A    
C12   C13   A    
C30   I1    S    
O15   C63   A    
C46   O26   S    
O9    V2    S    
C38   C39   A    
O4    V1    S    
C21   C22   A    
O3    V1    S    
V1    O10   S    
O25   H22   S    
C26   I2    S    
O5    C3    A    
C11   O30   S    
C37   C38   A    
C2    C57   S    
O14   V3    S    
O19   V4    S    
O17   V4    S    
O18   C63   A    
C17   C22   A    
C6    C7    A    
O7    V2    S    
O19   C64   A    
C11   C16   A    
O16   V4    S    
C53   C54   A    
C24   C64   S    
C46   C47   A    
C7    C8    A    
C44   C45   A    
O17   V3    S    
C13   C14   A    
C9    C10   A    
O12   V3    S    
C5    O21   S    
V2    O10   S    
O13   V3    S    
O27   H24   S    
C34   C37   A    
