data_mof_unit_23031.cif
_audit_creation_date              2012-12-11T14:06:35-0500
_audit_creation_method            fapswitch 2.2
_symmetry_space_group_name_H-M    P1
_symmetry_Int_Tables_number       1
_space_group_crystal_system       triclinic
_cell_length_a                    6.937014
_cell_length_b                    17.322863
_cell_length_c                    23.978218
_cell_angle_alpha                 103.826766
_cell_angle_beta                  90.495193
_cell_angle_gamma                 89.797277
_cell_volume                      2797.83325224

loop_
_atom_site_label
_atom_site_type_symbol
_atom_type_description
_atom_site_fract_x
_atom_site_fract_y
_atom_site_fract_z
_atom_type_partial_charge
O1    O     O_R   0.494290 0.391990 0.999150 -0.534180
O2    O     O_R   0.827170 0.534410 0.082350 -0.556168
O3    O     O_R   0.994360 0.608010 0.000850 -0.554861
C1    C     C_R   0.658282 0.545735 0.106450 0.679891
O4    O     O_R   0.824210 0.388010 0.004470 -0.549566
O5    O     O_R   0.991370 0.460560 0.922410 -0.545692
C2    C     C_R   0.654660 0.354876 0.001499 0.775397
O6    O     O_R   0.497270 0.539440 0.077590 -0.536330
O7    O     O_3   0.659770 0.523970 0.973170 -0.358855
V1    V     V_3+5 0.935840 0.495550 0.004980 1.399245
O8    O     O_R   0.320910 0.465590 0.917650 -0.502411
C3    C     C_R   0.151303 0.453048 0.893660 0.754795
O9    O     O_R   0.323870 0.611990 0.995530 -0.529163
C4    C     C_R   0.154480 0.645304 0.999985 0.654958
V2    V     V_3+5 0.435470 0.504450 0.995020 1.480128
O10   O     O_3   0.161670 0.476030 0.026830 -0.379338
C5    C     C_2   0.144978 0.732499 0.007109 0.245300
C6    C     C_2   0.976320 0.769103 0.999377 -0.452992
H1    H     H_    0.845065 0.734366 0.989189 0.135137
C7    C     C_R   0.081193 0.270625 0.626132 0.591457
N1    N     N_R   0.094399 0.351359 0.646487 -0.553002
C8    C     C_R   0.094938 0.400580 0.609446 0.563255
C9    C     C_R   0.078295 0.368768 0.549660 -0.016750
C10   C     C_R   0.050753 0.286140 0.528533 -0.076997
C11   C     C_R   0.042910 0.236901 0.567321 -0.190407
C12   C     C_R   0.083590 0.417765 0.510761 -0.151100
C13   C     C_R   0.069068 0.385155 0.451701 -0.121730
C14   C     C_R   0.045038 0.302839 0.430030 -0.041873
C15   C     C_R   0.030465 0.253093 0.468661 -0.019238
C16   C     C_R   0.994599 0.170912 0.447482 -0.164984
C17   C     C_R   0.958301 0.123622 0.487514 -0.129834
C18   C     C_R   0.985984 0.156647 0.547130 0.436750
C19   C     C_R   0.031053 0.269395 0.370566 0.578051
N2    N     N_R   0.008876 0.189110 0.350140 -0.550478
C20   C     C_R   0.997413 0.139653 0.386866 0.562839
O11   O     O_2   0.104775 0.223298 0.662961 -0.483433
O12   O     O_2   0.110614 0.479853 0.630271 -0.527703
H2    H     H_    0.100953 0.481503 0.525746 0.168032
H3    H     H_    0.075753 0.424837 0.423058 0.195475
O13   O     O_2   0.040144 0.316755 0.333435 -0.502031
O14   O     O_2   0.997595 0.060499 0.364476 -0.536553
C21   C     C_R   0.162883 0.148679 0.254877 -0.082413
H4    H     H_    0.300180 0.169916 0.274323 0.115808
C22   C     C_R   0.152480 0.113888 0.195794 -0.195965
H5    H     H_    0.283013 0.109832 0.170807 0.128548
C23   C     C_R   0.975704 0.085498 0.169315 -0.055533
C24   C     C_R   0.810003 0.092569 0.203763 -0.194723
H6    H     H_    0.671577 0.071543 0.185067 0.127720
C25   C     C_R   0.821090 0.126862 0.262931 -0.093057
H7    H     H_    0.692216 0.131361 0.288685 0.112149
C26   C     C_R   0.997346 0.155460 0.288877 0.387926
C27   C     C_R   0.271835 0.418954 0.733930 -0.129030
H8    H     H_    0.391946 0.424608 0.706715 0.125873
C28   C     C_R   0.291132 0.443558 0.794329 0.420338
C29   C     C_R   0.138091 0.429835 0.829531 -0.190826
C30   C     C_R   0.965635 0.396642 0.803192 -0.234843
H9    H     H_    0.845734 0.387917 0.829682 0.208562
C31   C     C_R   0.945051 0.374232 0.743129 0.016850
C32   C     C_R   0.101465 0.383926 0.708049 0.238369
C33   C     C_R   0.409719 0.848651 0.613538 0.568322
N3    N     N_R   0.481320 0.806314 0.650682 -0.586592
C34   C     C_R   0.557506 0.731819 0.630806 0.584906
C35   C     C_R   0.567578 0.697598 0.571352 -0.057333
C36   C     C_R   0.502939 0.741476 0.532406 -0.065607
C37   C     C_R   0.420305 0.817634 0.553340 -0.125421
C38   C     C_R   0.637919 0.620151 0.550123 -0.223183
C39   C     C_R   0.643979 0.585718 0.490846 0.409692
C40   C     C_R   0.594688 0.631602 0.451057 -0.116601
C41   C     C_R   0.520779 0.709032 0.472377 -0.070163
C42   C     C_R   0.461615 0.753847 0.433656 -0.066278
C43   C     C_R   0.369974 0.827032 0.454391 -0.196215
C44   C     C_R   0.351168 0.859877 0.513342 0.472596
C45   C     C_R   0.612642 0.602311 0.390647 0.613549
N4    N     N_R   0.567284 0.649630 0.353638 -0.554184
C46   C     C_R   0.494283 0.724677 0.374650 0.594898
O15   O     O_2   0.329931 0.920593 0.635036 -0.484849
O16   O     O_2   0.623211 0.690982 0.668477 -0.508447
H10   H     H_    0.683509 0.584602 0.579422 0.188946
O17   O     O_2   0.673872 0.527218 0.369184 -0.486022
O18   O     O_2   0.457145 0.772278 0.338730 -0.531841
H11   H     H_    0.310122 0.859056 0.424638 0.191892
C47   C     C_R   0.444261 0.628339 0.253647 -0.018187
H12   H     H_    0.306395 0.653172 0.269724 0.150902
C48   C     C_R   0.471172 0.605534 0.194438 -0.151743
H13   H     H_    0.353426 0.615594 0.167045 0.130808
C49   C     C_R   0.644148 0.569710 0.170698 -0.152701
C50   C     C_R   0.791811 0.556191 0.209122 -0.067906
C51   C     C_R   0.767030 0.585303 0.269024 -0.066597
H14   H     H_    0.882167 0.578721 0.298332 0.179884
C52   C     C_R   0.592964 0.620572 0.291903 0.296654
C53   C     C_R   0.316308 0.828127 0.744710 0.039689
C54   C     C_R   0.309968 0.865099 0.803768 -0.139941
H15   H     H_    0.187264 0.855266 0.828861 0.160025
C55   C     C_R   0.462346 0.912961 0.831232 -0.135939
C56   C     C_R   0.622409 0.924280 0.798735 -0.151041
H16   H     H_    0.740603 0.960951 0.819808 0.166782
C57   C     C_R   0.630087 0.889875 0.739257 0.037585
C58   C     C_R   0.476326 0.841224 0.711932 0.217713
C59   C     C_2   0.642820 0.269655 0.001904 -0.333906
H17   H     H_    0.777196 0.238603 0.005234 0.149380
C60   C     C_2   0.472692 0.230328 0.998016 -0.327079
H18   H     H_    0.338316 0.261385 0.994696 0.150053
O19   O     O_R   0.618210 0.960470 0.922400 -0.538530
O20   O     O_R   0.291310 0.111960 0.995450 -0.547065
O21   O     O_R   0.124210 0.039530 0.077580 -0.543497
C61   C     C_R   0.460856 0.145102 0.998420 0.766831
O22   O     O_R   0.288310 0.965490 0.917650 -0.538259
O23   O     O_R   0.121180 0.892010 0.999220 -0.504117
C62   C     C_R   0.456154 0.948569 0.894140 0.731494
O24   O     O_R   0.621230 0.107990 0.000760 -0.537253
O25   O     O_3   0.455770 0.976060 0.026840 -0.368495
V3    V     V_3+5 0.179680 0.004440 0.995020 1.457976
O26   O     O_R   0.791670 0.888040 0.004570 -0.543026
C63   C     C_R   0.961891 0.855101 0.001881 0.805595
O27   O     O_R   0.794680 0.034510 0.082370 -0.550335
C64   C     C_R   0.964030 0.051050 0.106048 0.686476
V4    V     V_3+5 0.680070 0.995560 0.005010 1.430641
O28   O     O_3   0.953840 0.023940 0.973160 -0.373461
O29   O     O_3   0.311643 0.776184 0.024116 -0.532460
C65   C     C_3   0.334186 0.786565 0.084186 0.133246
H19   H     H_    0.327003 0.728965 0.097170 0.085144
H20   H     H_    0.220469 0.827167 0.107262 0.106126
C66   C     C_3   0.530109 0.823051 0.103185 -0.669945
H21   H     H_    0.541503 0.882469 0.093790 0.233899
H22   H     H_    0.548862 0.829885 0.150155 0.172395
H23   H     H_    0.646244 0.783866 0.080571 0.203690
O30   O     O_3   0.463093 0.475476 0.819643 -0.541284
C67   C     C_3   0.517665 0.542348 0.799304 0.085135
H24   H     H_    0.391466 0.580241 0.794089 0.125269
H25   H     H_    0.593578 0.522856 0.757642 0.143829
C68   C     C_3   0.656109 0.593113 0.842341 -0.637212
H26   H     H_    0.785588 0.557885 0.848141 0.212408
H27   H     H_    0.702145 0.645378 0.826534 0.197686
H28   H     H_    0.583973 0.614365 0.884424 0.216759
C69   C     C_2   0.760006 0.340253 0.717234 0.428679
H29   H     H_    0.728029 0.337264 0.672400 0.008235
O31   O     O_2   0.641517 0.314547 0.745533 -0.514478
O32   O     O_3   0.698346 0.506885 0.472637 -0.531728
C70   C     C_3   0.533908 0.459601 0.474406 0.149767
H30   H     H_    0.419554 0.472293 0.444921 0.133321
H31   H     H_    0.476269 0.470396 0.518841 0.105223
C71   C     C_3   0.586379 0.372050 0.455228 -0.651952
H32   H     H_    0.686787 0.355958 0.486840 0.213137
H33   H     H_    0.455513 0.334851 0.452876 0.172138
H34   H     H_    0.653555 0.359403 0.412133 0.252116
O33   O     O_3   0.253473 0.931152 0.530933 -0.499715
C72   C     C_3   0.381947 0.995072 0.533182 0.218378
H35   H     H_    0.529180 0.982950 0.547948 0.109594
H36   H     H_    0.325635 0.047209 0.565328 0.191995
C73   C     C_3   0.393840 0.017519 0.475432 -0.761092
H37   H     H_    0.491401 0.976130 0.446307 0.211133
H38   H     H_    0.250811 0.014198 0.454450 0.272144
H39   H     H_    0.450442 0.078891 0.481659 0.166227
C74   C     C_2   0.964894 0.506779 0.189038 0.382886
H40   H     H_    0.970601 0.467956 0.146442 0.071645
O34   O     O_2   0.102153 0.506068 0.221128 -0.526544
C75   C     C_2   0.156098 0.775405 0.717467 0.444500
H41   H     H_    0.155035 0.749330 0.671595 0.064685
O35   O     O_2   0.022933 0.760054 0.746003 -0.524996
C76   C     C_2   0.799104 0.904848 0.705790 0.428671
H42   H     H_    0.809901 0.876763 0.660367 0.062020
O36   O     O_2   0.929156 0.948933 0.728527 -0.515705
C77   C     C_2   0.872969 0.042640 0.468507 0.442025
H43   H     H_    0.784840 0.027402 0.430044 0.088783
O37   O     O_2   0.896788 0.992290 0.495892 -0.483228
O38   O     O_3   0.949005 0.110726 0.585866 -0.497469
C78   C     C_3   0.760040 0.127266 0.607163 0.175568
H44   H     H_    0.652380 0.113397 0.571711 0.059630
H45   H     H_    0.742370 0.190778 0.629747 0.111909
C79   C     C_3   0.718316 0.077250 0.649837 -0.529452
H46   H     H_    0.816364 0.094712 0.687586 0.254412
H47   H     H_    0.566823 0.086500 0.664582 0.185483
H48   H     H_    0.740688 0.013329 0.629349 0.215104

loop_
_geom_bond_atom_site_label_1
_geom_bond_atom_site_label_2
_ccdc_geom_bond_type
C50   C51   A    
C75   H41   S    
C18   O38   S    
O22   V3    S    
C34   O16   S    
C56   H16   S    
C4    C5    S    
C1    O6    A    
C68   H28   S    
C67   H24   S    
C6    C63   S    
O20   C61   A    
C57   C58   A    
C66   H21   S    
C24   C25   A    
O19   V4    S    
C27   H8    S    
C12   C13   A    
C60   H18   S    
C2    C59   S    
C16   C20   A    
C14   C15   A    
C77   O37   D    
C48   C49   A    
N2    C20   A    
O5    C3    A    
C16   C17   A    
C70   C71   S    
C66   H22   S    
C1    C49   S    
C7    C11   A    
O27   C64   A    
C30   H9    S    
C6    H1    S    
C45   N4    A    
C9    C12   A    
O23   C63   A    
C39   O32   S    
C10   C15   A    
O21   C64   A    
C72   H35   S    
C28   C29   A    
O8    V2    S    
O25   V3    S    
C65   H20   S    
C40   C41   A    
O27   V4    S    
C73   H39   S    
C9    C10   A    
C42   C43   A    
O1    V2    S    
C15   C16   A    
C46   O18   S    
C74   O34   D    
C65   C66   S    
C21   C26   A    
C51   H14   S    
C11   C18   A    
C38   C39   A    
C35   C38   A    
C75   O35   D    
O9    C4    A    
O22   C62   A    
C71   H34   S    
N3    C34   A    
C21   C22   A    
O24   V4    S    
C27   C28   A    
C5    C6    D    
C78   C79   S    
C45   O17   S    
C38   H10   S    
C17   C77   S    
C19   O13   S    
N4    C46   A    
O33   C72   S    
C39   C40   A    
C3    C29   S    
C57   C76   S    
C69   H29   S    
C72   C73   S    
C10   C11   A    
C78   H45   S    
C13   H3    S    
C78   H44   S    
O20   V3    S    
C49   C50   A    
C12   H2    S    
C66   H23   S    
C22   C23   A    
C25   C26   A    
C31   C32   A    
C8    O12   S    
C33   O15   S    
O23   V3    S    
C33   N3    A    
C76   O36   D    
O2    C1    A    
O5    V1    S    
C34   C35   A    
C27   C32   A    
C65   H19   S    
C24   H6    S    
C70   H30   S    
C29   C30   A    
C54   C55   A    
C19   N2    A    
N2    C26   S    
C50   C74   S    
C55   C56   A    
C36   C41   A    
C48   H13   S    
C74   H40   S    
O3    C4    A    
O26   V4    S    
C59   C60   D    
O21   V3    S    
C51   C52   A    
C14   C19   A    
C47   H12   S    
O6    V2    S    
C47   C48   A    
O9    V2    S    
O38   C78   S    
C73   H38   S    
C21   H4    S    
O30   C67   S    
O2    V1    S    
C67   C68   S    
C53   C54   A    
C22   H5    S    
O4    C2    A    
O26   C63   A    
O7    V1    S    
C60   C61   S    
C69   O31   D    
C23   C24   A    
C72   H36   S    
O1    C2    A    
C17   C18   A    
C68   H27   S    
C68   H26   S    
C67   H25   S    
C33   C37   A    
O29   C65   S    
C56   C57   A    
N1    C32   S    
C31   C69   S    
C37   C44   A    
C28   O30   S    
C55   C62   S    
C47   C52   A    
C59   H17   S    
C23   C64   S    
O19   C62   A    
C36   C37   A    
N4    C52   S    
C40   C45   A    
O4    V1    S    
O3    V1    S    
V1    O10   S    
V4    O28   S    
C76   H42   S    
V3    O28   S    
C70   H31   S    
N3    C58   S    
C79   H47   S    
C44   O33   S    
C54   H15   S    
C30   C31   A    
C71   H33   S    
C53   C58   A    
O7    V2    S    
C41   C42   A    
C20   O14   S    
C53   C75   S    
C77   H43   S    
O32   C70   S    
C5    O29   S    
O25   V4    S    
C35   C36   A    
C7    O11   S    
C43   C44   A    
C7    N1    A    
C42   C46   A    
C61   O24   A    
C25   H7    S    
C79   H46   S    
C13   C14   A    
C71   H32   S    
C8    C9    A    
N1    C8    A    
V2    O10   S    
O8    C3    A    
C73   H37   S    
C43   H11   S    
C79   H48   S    
