data_mof_unit_16508.cif
_audit_creation_date              2012-10-26T20:03:01-0400
_audit_creation_method            fapswitch 2.2
_symmetry_space_group_name_H-M    P1
_symmetry_Int_Tables_number       1
_space_group_crystal_system       triclinic
_cell_length_a                    10.747195
_cell_length_b                    12.311013
_cell_length_c                    13.228447
_cell_angle_alpha                 116.720144
_cell_angle_beta                  76.630153
_cell_angle_gamma                 102.369305
_cell_volume                      1508.68014736

loop_
_atom_site_label
_atom_site_type_symbol
_atom_type_description
_atom_site_fract_x
_atom_site_fract_y
_atom_site_fract_z
_atom_type_partial_charge
C1    C     C_R   0.510571 0.854727 0.286656 0.535344
C2    C     C_R   0.494544 0.566324 0.009792 0.037182
C3    C     C_R   0.459293 0.648433 0.125299 0.025681
C4    C     C_R   0.740904 0.998264 0.495728 0.564718
C5    C     C_R   0.456289 0.438616 0.976826 0.030643
C6    C     C_R   0.373226 0.396174 0.055681 0.055027
C7    C     C_R   0.327248 0.479798 0.164414 -0.146889
C8    C     C_R   0.368058 0.603985 0.198169 -0.129978
C9    C     C_R   0.499624 0.351409 0.868028 -0.137859
C10   C     C_R   0.374768 0.186025 0.913433 -0.141874
C11   C     C_R   0.515390 0.772941 0.164040 -0.004341
C12   C     C_3   0.123619 0.993019 0.488796 0.056647
C13   C     C_R   0.681941 0.335241 0.309643 -0.165071
C14   C     C_R   0.331190 0.762192 0.651219 0.065410
C15   C     C_R   0.296963 0.667634 0.687610 0.242015
C16   C     C_R   0.481128 0.145039 0.713443 0.543128
C17   C     C_R   0.362633 0.564541 0.631811 -0.125592
C18   C     C_R   0.460715 0.553044 0.537486 -0.060222
C19   C     C_R   0.491978 0.652410 0.503862 0.157709
C20   C     C_R   0.529008 0.447154 0.475299 -0.012519
C21   C     C_R   0.621501 0.440818 0.377841 0.042908
C22   C     C_R   0.653142 0.539667 0.348675 -0.177873
C23   C     C_3   0.050432 0.043289 0.613381 -0.280002
C24   C     C_R   0.592505 0.644170 0.412174 -0.089558
C25   C     C_R   0.509725 0.346001 0.504248 0.020285
C26   C     C_R   0.653763 0.237232 0.339787 0.013143
C27   C     C_R   0.260888 0.995517 0.493695 0.563318
C28   C     C_3   0.968559 0.092894 0.447614 0.204088
C29   C     C_3   0.112568 0.076494 0.430240 0.156026
C30   C     C_3   0.905221 0.031966 0.612891 -0.294917
C31   C     C_3   0.919135 0.867610 0.410971 -0.200295
C32   C     C_3   0.880555 0.997663 0.490589 0.014071
C33   C     C_3   0.038826 0.657355 0.396794 -0.013041
C34   C     C_3   0.059033 0.860085 0.419004 0.166214
C35   C     C_3   0.068756 0.579812 0.448694 -0.371036
C36   C     C_3   0.960022 0.195517 0.338583 0.016629
C37   C     C_3   0.976675 0.176154 0.214339 -0.370251
C38   C     C_3   0.082780 0.657057 0.755169 -0.139023
C39   C     C_3   0.262924 0.093745 0.273874 0.000266
C40   C     C_3   0.312135 0.022367 0.147570 -0.362081
C41   C     C_R   0.334782 0.270351 0.023979 -0.137205
C42   C     C_R   0.455097 0.227118 0.834611 -0.002809
C43   C     C_R   0.587290 0.817609 0.084481 -0.136414
C44   C     C_R   0.608967 0.739834 0.969008 -0.135770
C45   C     C_R   0.565459 0.615359 0.931714 -0.113413
Cu1   Cu    Cu3+1 0.529690 0.098270 0.475420 0.913458
Cu2   Cu    Cu3+1 0.470310 0.901730 0.524580 0.921389
H1    H     H_    0.952469 0.185507 0.518404 0.051657
H2    H     H_    0.663244 0.775631 0.908225 0.116085
H3    H     H_    0.323971 0.664232 0.281274 0.156328
H4    H     H_    0.695205 0.153434 0.285047 0.136513
H5    H     H_    0.727008 0.536929 0.276424 0.097837
H6    H     H_    0.749393 0.327988 0.232681 0.090947
H7    H     H_    0.442244 0.343782 0.577661 0.118120
H8    H     H_    0.283053 0.843616 0.696518 0.136026
H9    H     H_    0.334236 0.494794 0.663734 0.116403
H10   H     H_    0.628557 0.716744 0.386253 0.178568
H11   H     H_    0.164379 0.170278 0.474138 0.063029
H12   H     H_    0.852802 0.960466 0.642441 0.163731
H13   H     H_    0.868592 0.120262 0.674604 0.105692
H14   H     H_    0.088108 0.141272 0.660667 0.090476
H15   H     H_    0.850307 0.799144 0.435479 0.127303
H16   H     H_    0.911710 0.844698 0.320893 0.129556
H17   H     H_    0.115979 0.824937 0.331112 0.137290
H18   H     H_    0.101771 0.636433 0.312563 0.107911
H19   H     H_    0.936963 0.628917 0.382063 0.127371
H20   H     H_    0.002462 0.593607 0.530199 0.142703
H21   H     H_    0.055304 0.481353 0.388716 0.075474
H22   H     H_    0.170047 0.605774 0.465214 0.161980
H23   H     H_    0.065784 0.992520 0.660133 0.171604
H24   H     H_    0.047605 0.253462 0.374712 0.086726
H25   H     H_    0.878103 0.248061 0.389463 0.139157
H26   H     H_    0.893174 0.115491 0.173469 0.144964
H27   H     H_    0.985605 0.265788 0.210438 0.078296
H28   H     H_    0.064939 0.132660 0.165303 0.154856
H29   H     H_    0.065106 0.563041 0.686554 0.103097
H30   H     H_    0.067312 0.726983 0.729294 0.116861
H31   H     H_    0.010541 0.662915 0.831839 0.148696
H32   H     H_    0.345342 0.120614 0.320689 0.178139
H33   H     H_    0.230445 0.178345 0.284796 0.110386
H34   H     H_    0.339309 0.089689 0.888559 0.125161
H35   H     H_    0.233416 0.995618 0.096137 0.165885
H36   H     H_    0.392165 0.079870 0.117472 0.094109
H37   H     H_    0.348243 0.938308 0.134661 0.171764
H38   H     H_    0.259556 0.449096 0.223856 0.097923
H39   H     H_    0.271237 0.237592 0.083800 0.094775
H40   H     H_    0.567837 0.377594 0.806665 0.114983
H41   H     H_    0.629084 0.912765 0.111725 0.124489
H42   H     H_    0.586406 0.560771 0.840844 0.101037
N1    N     N_R   0.574690 0.246280 0.438200 -0.244637
N2    N     N_R   0.426100 0.754320 0.561190 -0.270221
O1    O     O_R   0.537340 0.972510 0.318130 -0.509585
O2    O     O_3   0.936576 0.080371 0.344121 -0.505547
O3    O     O_3   0.206927 0.679837 0.784141 -0.570346
O4    O     O_3   0.161206 0.018954 0.310744 -0.540983
O5    O     O_R   0.487200 0.806530 0.359650 -0.530153
O6    O     O_R   0.707380 0.082980 0.479220 -0.466479
O7    O     O_R   0.657240 0.917000 0.520740 -0.529406
O8    O     O_R   0.512800 0.193470 0.640350 -0.513865
O9    O     O_R   0.462660 0.027490 0.681870 -0.508730
O10   O     O_R   0.342760 0.083000 0.479260 -0.535886
O11   O     O_R   0.292620 0.917020 0.520780 -0.469690
O12   O     O_3   0.058170 0.782961 0.473342 -0.555641

loop_
_geom_bond_atom_site_label_1
_geom_bond_atom_site_label_2
_ccdc_geom_bond_type
C44   H2    S    
Cu1   O8    S    
C4    O7    A    
C12   C29   S    
C10   C42   A    
C40   H37   S    
C40   H36   S    
C37   H27   S    
C15   O3    S    
C33   H18   S    
C7    C8    A    
C38   H29   S    
C41   H39   S    
C12   C23   S    
C25   N1    A    
Cu2   O7    S    
C43   H41   S    
C28   C29   S    
C5    C6    A    
Cu1   O1    S    
C20   C25   A    
C18   C19   A    
C36   O2    S    
C24   H10   S    
C6    C41   A    
C30   H13   S    
Cu2   O5    S    
C11   C43   A    
C45   H42   S    
C36   H24   S    
C14   H8    S    
C37   H28   S    
Cu2   O11   S    
C4    O6    A    
C10   C41   A    
C31   H15   S    
C33   H19   S    
C13   H6    S    
C2    C45   A    
Cu1   O10   S    
C12   C27   S    
C23   C30   S    
C40   H35   S    
C28   C32   S    
C3    C11   A    
C25   H7    S    
C3    C8    A    
C39   C40   S    
C29   O4    S    
C16   O9    A    
C38   H31   S    
C27   O10   A    
Cu2   O9    S    
C28   O2    S    
C39   H32   S    
C43   C44   A    
C5    C9    A    
C31   H16   S    
C31   C32   S    
C35   H20   S    
C30   H12   S    
C38   O3    S    
C34   H17   S    
C17   C18   A    
C9    C42   A    
C31   C34   S    
C13   C21   A    
C20   C21   A    
C17   H9    S    
C39   O4    S    
C4    C32   S    
Cu1   O6    S    
C1    O1    A    
C22   C24   A    
C13   C26   A    
C2    C5    A    
C12   C34   S    
C8    H3    S    
C44   C45   A    
C22   H5    S    
C15   C17   A    
C37   H26   S    
Cu1   Cu2   S    
C28   H1    S    
C27   O11   A    
C33   O12   S    
C16   C42   S    
Cu2   N2    S    
C23   H23   S    
C16   O8    A    
C6    C7    A    
Cu1   N1    S    
C38   H30   S    
C26   N1    A    
C10   H34   S    
C34   O12   S    
C39   H33   S    
C2    C3    A    
C26   H4    S    
C9    H40   S    
C30   C32   S    
C7    H38   S    
C35   H21   S    
C1    O5    A    
C33   C35   S    
C19   C24   A    
C18   C20   A    
C14   N2    A    
C19   N2    A    
C23   H14   S    
C29   H11   S    
C35   H22   S    
C36   C37   S    
C14   C15   A    
C1    C11   S    
C21   C22   A    
C36   H25   S    
