data_mof_unit_63112.cif
_audit_creation_date              2012-12-10T20:13:24-0500
_audit_creation_method            fapswitch 2.2
_symmetry_space_group_name_H-M    P1
_symmetry_Int_Tables_number       1
_space_group_crystal_system       triclinic
_cell_length_a                    19.062446
_cell_length_b                    18.449557
_cell_length_c                    15.754448
_cell_angle_alpha                 90.065391
_cell_angle_beta                  90.836244
_cell_angle_gamma                 90.74315
_cell_volume                      5539.67880937

loop_
_atom_site_label
_atom_site_type_symbol
_atom_type_description
_atom_site_fract_x
_atom_site_fract_y
_atom_site_fract_z
_atom_type_partial_charge
C1    C     C_R   0.364638 0.499394 0.503743 0.946329
C2    C     C_R   0.825025 0.556614 0.500806 -0.078802
C3    C     C_R   0.849344 0.516112 0.431073 0.012714
C4    C     C_R   0.709290 0.502262 0.478588 -0.185028
C5    C     C_R   0.966135 0.548914 0.372430 -0.088734
C6    C     C_R   0.955091 0.454271 0.478611 -0.236948
C7    C     C_R   0.499607 0.499947 0.338197 0.925830
C8    C     C_R   0.038847 0.543257 0.376823 0.604020
C9    C     C_R   0.027243 0.449367 0.484579 0.607757
C10   C     C_R   0.069751 0.494625 0.434564 -0.214907
C11   C     C_R   0.924691 0.505199 0.424556 -0.102815
C12   C     C_3   0.568723 0.503322 0.954761 -0.341506
C13   C     C_R   0.181584 0.431263 0.457297 -0.078767
C14   C     C_R   0.178513 0.561504 0.472569 -0.085025
C15   C     C_R   0.250390 0.430477 0.487758 -0.066038
C16   C     C_R   0.248459 0.563110 0.499640 -0.060399
C17   C     C_R   0.286956 0.497495 0.501337 -0.195247
C18   C     C_R   0.145484 0.496174 0.450247 0.150690
C19   C     C_R   0.534154 0.721834 0.567048 0.048717
C20   C     C_R   0.533074 0.279256 0.567870 0.064874
C21   C     C_R   0.539024 0.797660 0.573971 -0.302206
C22   C     C_R   0.537973 0.203600 0.574972 -0.315799
C23   C     C_3   0.566066 0.509753 0.051930 -0.259963
C24   C     C_R   0.509237 0.841643 0.510888 0.082235
C25   C     C_R   0.509172 0.158626 0.511365 0.067042
C26   C     C_R   0.634551 0.500444 0.497131 0.914302
C27   C     C_R   0.475483 0.807661 0.441523 0.657833
C28   C     C_R   0.476527 0.191445 0.441182 0.648513
C29   C     C_R   0.470680 0.731349 0.437031 -0.121808
C30   C     C_R   0.471853 0.267642 0.436333 -0.119093
C31   C     C_R   0.449509 0.961392 0.519899 0.630288
C32   C     C_R   0.449383 0.037194 0.520122 0.640085
C33   C     C_R   0.512363 0.077472 0.517596 -0.162323
C34   C     C_1   0.496199 0.499812 0.825565 -0.036687
C35   C     C_R   0.512616 0.922923 0.516755 -0.156886
C36   C     C_R   0.576889 0.039909 0.517730 -0.161395
C37   C     C_R   0.577178 0.962387 0.516947 -0.166396
C38   C     C_R   0.500197 0.500040 0.661878 0.941056
C39   C     C_3   0.445079 0.563960 0.048041 0.358351
C40   C     C_3   0.462570 0.422470 0.047718 0.372798
C41   C     C_3   0.454932 0.428612 0.948803 -0.324722
C42   C     C_3   0.449779 0.565611 0.948321 -0.329820
C43   C     C_1   0.498417 0.500054 0.750486 -0.103611
C44   C     C_3   0.489417 0.498424 0.082872 -0.062986
C45   C     C_1   0.492841 0.499133 0.174483 0.121098
C46   C     C_3   0.493181 0.499315 0.917103 -0.005851
C47   C     C_2   0.278929 0.358502 0.510909 1.025579
C48   C     C_2   0.276942 0.633511 0.531282 0.994973
C49   C     C_2   0.434486 0.698591 0.362831 1.052450
C50   C     C_2   0.436969 0.299160 0.361118 1.030619
C51   C     C_2   0.643311 0.082003 0.511625 1.000991
C52   C     C_2   0.644090 0.922536 0.509396 0.994271
C53   C     C_2   0.369305 0.561385 0.077444 0.929495
C54   C     C_2   0.394791 0.392528 0.085143 0.901361
C55   C     C_2   0.476707 0.359704 0.903335 1.109108
C56   C     C_1   0.496280 0.499690 0.249594 -0.019058
C57   C     C_2   0.476342 0.638195 0.914575 1.081542
C58   C     C_2   0.683393 0.422751 0.351221 0.967260
C59   C     C_2   0.727523 0.591213 0.598481 0.988947
C60   C     C_2   0.830760 0.429294 0.309382 0.964407
C61   C     C_2   0.875165 0.601689 0.552429 0.976748
C62   C     C_R   0.733126 0.464775 0.406221 -0.116232
C63   C     C_R   0.754482 0.549476 0.524949 -0.113889
C64   C     C_R   0.803647 0.471474 0.382530 -0.069926
F1    F     F_    0.079027 0.586693 0.327197 -0.599394
F2    F     F_    0.055270 0.404392 0.543852 -0.623356
F3    F     F_    0.446914 0.848762 0.378675 -0.566125
F4    F     F_    0.448798 0.149276 0.377972 -0.568543
F5    F     F_    0.387164 0.925024 0.522392 -0.565919
F6    F     F_    0.386961 0.071752 0.522491 -0.564886
F7    F     F_    0.513074 0.371479 0.068364 -0.599605
F8    F     F_    0.474166 0.627580 0.081706 -0.609140
H1    H     H_    0.396400 0.558793 0.919663 0.172920
H2    H     H_    0.601957 0.469269 0.081005 0.245024
H3    H     H_    0.598919 0.549651 0.928182 0.217320
H4    H     H_    0.598556 0.454401 0.937432 0.247386
H5    H     H_    0.942235 0.588571 0.330842 0.217171
H6    H     H_    0.922710 0.421124 0.519623 0.208347
H7    H     H_    0.285852 0.252280 0.482060 0.378425
H8    H     H_    0.282067 0.742048 0.516592 0.378408
H9    H     H_    0.422764 0.696489 0.235405 0.403848
H10   H     H_    0.425522 0.298614 0.233647 0.377372
H11   H     H_    0.734097 0.113897 0.568195 0.368964
H12   H     H_    0.398164 0.435281 0.932815 0.152152
H13   H     H_    0.698029 0.845068 0.448904 0.369584
H14   H     H_    0.268771 0.529956 0.055504 0.391962
H15   H     H_    0.319848 0.314302 0.079342 0.378208
H16   H     H_    0.553084 0.289247 0.875302 0.355342
H17   H     H_    0.552550 0.715143 0.913644 0.359967
H18   H     H_    0.624777 0.331879 0.334966 0.368212
H19   H     H_    0.670512 0.590417 0.705452 0.344365
H20   H     H_    0.890608 0.428476 0.204835 0.371511
H21   H     H_    0.913498 0.627973 0.668619 0.373417
H22   H     H_    0.154251 0.380509 0.443926 0.210066
H23   H     H_    0.148368 0.610960 0.473105 0.202332
H24   H     H_    0.558213 0.688706 0.615673 0.169015
H25   H     H_    0.556268 0.313116 0.617065 0.166645
H26   H     H_    0.565817 0.821825 0.628297 0.193850
H27   H     H_    0.563870 0.180331 0.629970 0.197551
H28   H     H_    0.586897 0.563909 0.071765 0.249038
N1    N     N_R   0.499980 0.689440 0.500010 -0.156323
N2    N     N_R   0.499980 0.310560 0.500010 -0.146930
O1    O     O_R   0.398180 0.560840 0.500000 -0.565229
O2    O     O_R   0.264126 0.298347 0.459276 -0.742325
O3    O     O_2   0.312974 0.635905 0.596140 -0.583454
O4    O     O_R   0.259806 0.697584 0.488899 -0.726004
O5    O     O_2   0.388060 0.653306 0.372427 -0.567608
O6    O     O_R   0.451612 0.721997 0.281266 -0.689912
O7    O     O_2   0.392255 0.345273 0.369295 -0.577988
O8    O     O_R   0.453465 0.273873 0.280237 -0.699968
O9    O     O_2   0.655067 0.117782 0.447999 -0.554217
O10   O     O_R   0.691213 0.082528 0.579604 -0.731045
O11   O     O_2   0.693175 0.935701 0.557989 -0.541528
O12   O     O_R   0.398180 0.439160 0.500000 -0.571520
O13   O     O_R   0.650452 0.868994 0.447185 -0.758051
O14   O     O_2   0.354579 0.587854 0.146047 -0.518807
O15   O     O_R   0.316417 0.528276 0.027864 -0.823272
O16   O     O_2   0.368846 0.419359 0.148152 -0.622839
O17   O     O_R   0.363864 0.330455 0.048931 -0.714847
O18   O     O_2   0.433188 0.325479 0.861235 -0.565558
O19   O     O_R   0.545776 0.335390 0.908857 -0.734379
O20   O     O_2   0.440003 0.672101 0.864233 -0.584372
O21   O     O_R   0.541408 0.666710 0.940982 -0.740482
O22   O     O_2   0.665827 0.446902 0.281989 -0.632708
O23   O     O_R   0.500010 0.560840 0.377160 -0.614624
O24   O     O_R   0.658461 0.355007 0.377738 -0.721185
O25   O     O_2   0.740387 0.656121 0.605017 -0.585920
O26   O     O_R   0.686616 0.556239 0.659432 -0.804400
O27   O     O_2   0.814155 0.365478 0.300170 -0.554723
O28   O     O_R   0.875470 0.462694 0.251309 -0.777425
O29   O     O_2   0.915004 0.644281 0.517476 -0.581579
O30   O     O_R   0.877172 0.594706 0.640802 -0.757112
O31   O     O_R   0.500010 0.439160 0.377160 -0.613980
O32   O     O_R   0.601820 0.560790 0.500040 -0.622602
O33   O     O_R   0.601820 0.439210 0.500040 -0.590918
O34   O     O_R   0.500000 0.560790 0.622880 -0.613075
O35   O     O_R   0.500000 0.439210 0.622880 -0.617873
O36   O     O_2   0.312137 0.350944 0.577272 -0.573434
Zn1   Zn    Zn3+2 0.500000 0.581210 0.500030 1.035143
Zn2   Zn    Zn3+2 0.500000 0.418790 0.500030 1.042225

loop_
_geom_bond_atom_site_label_1
_geom_bond_atom_site_label_2
_ccdc_geom_bond_type
C58   C62   S    
C55   O19   S    
C51   O10   S    
C40   F7    S    
C4    C62   A    
C27   C29   A    
C14   C18   A    
C24   C27   A    
C15   C47   S    
C16   C48   S    
C6    C9    A    
N1    Zn1   S    
O12   Zn2   S    
C49   O5    D    
C29   C49   S    
C3    C64   A    
O23   Zn1   S    
C25   C28   A    
C4    C63   A    
C13   C18   A    
H10   O8    S    
C22   H27   S    
C36   C37   A    
C35   C37   A    
C7    O31   A    
C53   O15   S    
C6    H6    S    
C20   N2    A    
C59   O25   D    
H8    O4    S    
C50   O8    S    
C33   C36   A    
C42   C46   S    
C9    F2    S    
C41   C55   S    
C62   C64   A    
C26   O33   A    
C61   O30   S    
C57   O20   D    
C48   O4    S    
C20   H25   S    
C48   O3    D    
C45   C56   T    
C16   C17   A    
C22   C25   A    
C41   C46   S    
C34   C46   S    
C38   O34   A    
C39   C42   S    
H21   O30   S    
C9    C10   A    
C1    O1    A    
C53   O14   D    
C23   H28   S    
C30   C50   S    
H9    O6    S    
C8    F1    S    
C54   O17   S    
C7    C56   S    
O34   Zn1   S    
C42   C57   S    
C49   O6    S    
C55   O18   D    
O33   Zn2   S    
O35   Zn2   S    
C24   C35   S    
H19   O26   S    
C34   C43   T    
H13   O13   S    
C27   F3    S    
C58   O22   D    
C12   C46   S    
C60   O28   S    
C6    C11   A    
C37   C52   S    
C32   F6    S    
H17   O21   S    
C59   O26   S    
C52   O11   D    
C41   H12   S    
C50   O7    D    
C23   C44   S    
H20   O28   S    
H15   O17   S    
C26   O32   A    
O1    Zn1   S    
C57   O21   S    
C31   C32   A    
C12   C23   S    
C40   C44   S    
C39   F8    S    
C30   N2    A    
H18   O24   S    
C29   N1    A    
N2    Zn2   S    
C7    O23   A    
C36   C51   S    
C40   C41   S    
C20   C22   A    
C58   O24   S    
C40   C54   S    
C13   C15   A    
C12   H4    S    
C31   C35   A    
H7    O2    S    
C12   H3    S    
C1    O12   A    
C23   H2    S    
C5    H5    S    
C14   H23   S    
O32   Zn1   S    
C2    C63   A    
C52   O13   S    
C15   C17   A    
C42   H1    S    
C51   O9    D    
C47   O2    S    
C28   F4    S    
C1    C17   S    
C44   C45   S    
H16   O19   S    
C60   O27   D    
C5    C8    A    
C4    C26   S    
C2    C61   S    
C5    C11   A    
C39   C44   S    
C59   C63   S    
C13   H22   S    
C60   C64   S    
C32   C33   A    
C54   O16   D    
C2    C3    A    
C38   C43   S    
C21   H26   S    
C19   N1    A    
C39   C53   S    
C10   C18   S    
C47   O36   D    
C28   C30   A    
C38   O35   A    
H14   O15   S    
C14   C16   A    
C3    C11   S    
C61   O29   D    
C31   F5    S    
O31   Zn2   S    
C8    C10   A    
C21   C24   A    
H11   O10   S    
C19   H24   S    
C25   C33   S    
C19   C21   A    
