data_mof_unit_59232.cif
_audit_creation_date              2012-12-10T17:07:48-0500
_audit_creation_method            fapswitch 2.2
_symmetry_space_group_name_H-M    P1
_symmetry_Int_Tables_number       1
_space_group_crystal_system       triclinic
_cell_length_a                    10.824027
_cell_length_b                    10.73403
_cell_length_c                    10.023195
_cell_angle_alpha                 88.44868
_cell_angle_beta                  89.56577
_cell_angle_gamma                 91.151117
_cell_volume                      1163.8490192

loop_
_atom_site_label
_atom_site_type_symbol
_atom_type_description
_atom_site_fract_x
_atom_site_fract_y
_atom_site_fract_z
_atom_type_partial_charge
C1    C     C_R   0.507049 0.262189 0.501755 0.964872
C2    C     C_3   0.879887 0.487532 0.507019 -0.110679
C3    C     C_3   0.935379 0.620168 0.488497 -0.460099
C4    C     C_3   0.924815 0.408770 0.385459 -0.159040
C5    C     C_2   0.474339 0.934534 0.389065 -0.123462
C6    C     C_2   0.450881 0.863177 0.496450 -0.381763
C7    C     C_2   0.481575 0.068013 0.398182 -0.132864
C8    C     C_2   0.524921 0.129120 0.504891 0.023745
C9    C     C_2   0.521122 0.596953 0.923191 -0.122822
C10   C     C_2   0.554700 0.584550 0.067018 0.408076
C11   C     C_R   0.259187 0.483714 0.502641 0.955715
C12   C     C_R   0.484769 0.735337 0.498652 0.937892
C13   C     C_R   0.742766 0.498709 0.501190 0.892499
C14   C     C_3   0.070231 0.407574 0.650085 0.640932
C15   C     C_3   0.925285 0.431848 0.648387 -0.184840
C16   C     C_3   0.077547 0.616393 0.493675 -0.150344
C17   C     C_3   0.069456 0.407755 0.383162 0.268965
C18   C     C_3   0.123257 0.475506 0.511687 -0.296092
H1    H     H_    0.902497 0.467827 0.297251 0.233187
H2    H     H_    0.110953 0.649268 0.392979 0.194779
H3    H     H_    0.906993 0.662158 0.390920 0.229962
H4    H     H_    0.489626 0.895847 0.292129 0.225798
H5    H     H_    0.418658 0.902037 0.589105 0.178573
H6    H     H_    0.447441 0.118175 0.310791 0.180195
H7    H     H_    0.529976 0.687613 0.873368 0.209409
H8    H     H_    0.506511 0.415766 0.900709 0.161262
H9    H     H_    0.429526 0.451511 0.107118 0.175673
H10   H     H_    0.877998 0.339473 0.655286 0.192001
H11   H     H_    0.896985 0.682777 0.564137 0.189857
H12   H     H_    0.092615 0.475083 0.299793 0.138657
N1    N     N_2   0.501360 0.501330 0.852150 -0.173457
N2    N     N_2   0.501390 0.501360 0.147810 -0.256911
O1    O     O_R   0.499980 0.319060 0.613040 -0.590899
O2    O     O_R   0.500020 0.319100 0.386900 -0.637923
O3    O     O_R   0.314770 0.499960 0.613070 -0.533101
O4    O     O_R   0.314820 0.500000 0.386930 -0.601683
O5    O     O_R   0.499980 0.680900 0.613100 -0.632525
O6    O     O_R   0.500020 0.680940 0.386960 -0.556437
O7    O     O_R   0.685180 0.500000 0.613070 -0.648671
O8    O     O_R   0.685230 0.500040 0.386930 -0.557197
Zn1   Zn    Zn3+2 0.499970 0.499970 0.650990 1.017685
Zn2   Zn    Zn3+2 0.500030 0.500030 0.349010 1.038332
S1    S     S_3+6 0.147983 0.449468 0.811531 0.075781
O9    O     O_2   0.177298 0.585500 0.824634 -0.339364
O10   O     O_2   0.070481 0.409021 0.930689 -0.270384
O11   O     O_3   0.281939 0.374013 0.830185 -0.480910
H13   H     H_    0.266248 0.306858 0.898259 0.385222
C19   C     C_3   0.588670 0.068876 0.626312 -0.408567
C20   C     C_3   0.709325 0.133843 0.664010 -0.893641
H14   H     H_    0.777502 0.126149 0.582207 0.258680
H15   H     H_    0.695063 0.232590 0.686336 0.266216
H16   H     H_    0.747580 0.087546 0.754676 0.283817
H17   H     H_    0.524391 0.069042 0.713282 0.239246
H18   H     H_    0.616481 0.972113 0.609099 0.240187
S2    S     S_3+6 0.683541 0.679553 0.111186 0.006946
O12   O     O_2   0.651712 0.773624 0.212358 -0.301777
O13   O     O_2   0.784537 0.600215 0.164756 -0.363035
O14   O     O_3   0.737892 0.756671 0.973797 -0.598005
H19   H     H_    0.818144 0.793864 0.000571 0.393573
S3    S     S_3+6 0.093529 0.237989 0.661323 0.037381
O15   O     O_2   0.228645 0.209054 0.656449 -0.241728
O16   O     O_2   0.043671 0.190597 0.794266 -0.311350
O17   O     O_3   0.023553 0.153556 0.546203 -0.573650
H20   H     H_    0.993663 0.076416 0.593330 0.366567
C21   C     C_3   0.878077 0.507736 0.772028 -0.231729
C22   C     C_3   0.809094 0.422529 0.874281 -0.751198
H21   H     H_    0.717461 0.394820 0.836209 0.231575
H22   H     H_    0.859760 0.335701 0.895779 0.289856
H23   H     H_    0.796019 0.471567 0.968271 0.284277
H24   H     H_    0.948976 0.563874 0.821395 0.249214
H25   H     H_    0.818764 0.587146 0.746771 0.219007
C23   C     C_3   0.128728 0.718465 0.586710 -0.339460
C24   C     C_3   0.122912 0.849004 0.521824 -0.807995
H26   H     H_    0.180881 0.855278 0.429880 0.275666
H27   H     H_    0.026299 0.871859 0.495916 0.268490
H28   H     H_    0.158763 0.918762 0.592429 0.289529
H29   H     H_    0.073215 0.720050 0.679955 0.257818
H30   H     H_    0.226724 0.703831 0.611504 0.247460
S4    S     S_3+6 0.151057 0.278290 0.308452 0.078546
O18   O     O_2   0.244756 0.224922 0.401464 -0.270232
O19   O     O_2   0.068893 0.174042 0.262472 -0.256848
O20   O     O_3   0.227280 0.335877 0.172980 -0.534150
H31   H     H_    0.281975 0.268022 0.145659 0.356106
C25   C     C_3   0.847386 0.286410 0.359773 -0.287719
C26   C     C_3   0.806602 0.275593 0.214250 -0.765763
H32   H     H_    0.738637 0.348237 0.188490 0.264617
H33   H     H_    0.887156 0.286092 0.145444 0.306720
H34   H     H_    0.761735 0.183008 0.199817 0.245037
H35   H     H_    0.893006 0.200568 0.386533 0.295565
H36   H     H_    0.762425 0.281484 0.421430 0.167148

loop_
_geom_bond_atom_site_label_1
_geom_bond_atom_site_label_2
_ccdc_geom_bond_type
C22   H22   S    
S2    O12   D    
C11   C18   S    
C1    C8    S    
C24   H26   S    
C14   C18   S    
O4    Zn2   S    
C16   C23   S    
C20   H14   S    
C9    H7    S    
C7    C8    D    
O7    Zn1   S    
C26   H32   S    
C19   H18   S    
S3    O17   S    
C11   O4    A    
O6    Zn2   S    
C6    C12   S    
C5    C6    D    
C22   H23   S    
C21   H24   S    
C15   C21   S    
C17   S4    S    
S3    O16   D    
C12   O5    A    
C3    H11   S    
C2    C13   S    
C13   O8    A    
C23   H30   S    
C4    H1    S    
C5    H4    S    
C20   H15   S    
O2    Zn2   S    
C9    C10   S    
O8    Zn2   S    
C22   H21   S    
H8    N1    S    
C12   O6    A    
C17   H12   S    
C24   H27   S    
C25   H36   S    
C1    O2    A    
C26   H33   S    
C19   H17   S    
C1    O1    A    
C25   C26   S    
S4    O19   D    
O14   H19   S    
C21   H25   S    
O17   H20   S    
S3    O15   D    
C2    C4    S    
S1    O9    D    
C8    C19   S    
C23   H29   S    
C2    C15   S    
C4    C25   S    
C16   H2    S    
C20   H16   S    
C17   C18   S    
C10   S2    S    
S1    O10   D    
C4    C17   S    
C19   C20   S    
O20   H31   S    
S2    O13   D    
C24   H28   S    
C3    H3    S    
C25   H35   S    
C5    C7    S    
C26   H34   S    
O11   H13   S    
N1    Zn1   S    
H9    N2    S    
C23   C24   S    
S4    O20   S    
C14   S3    S    
O1    Zn1   S    
C11   O3    A    
C2    C3    S    
C15   H10   S    
C6    H5    S    
O5    Zn1   S    
O3    Zn1   S    
S1    O11   S    
C13   O7    A    
C9    N1    D    
S4    O18   D    
C10   N2    D    
C16   C18   S    
C21   C22   S    
S2    O14   S    
N2    Zn2   S    
C14   C15   S    
C3    C16   S    
C7    H6    S    
C14   S1    S    
