data_mof_unit_54061.cif
_audit_creation_date              2012-12-11T14:08:43-0500
_audit_creation_method            fapswitch 2.2
_symmetry_space_group_name_H-M    P1
_symmetry_Int_Tables_number       1
_space_group_crystal_system       triclinic
_cell_length_a                    28.21551
_cell_length_b                    7.193681
_cell_length_c                    17.198446
_cell_angle_alpha                 90.079525
_cell_angle_beta                  101.91189
_cell_angle_gamma                 89.987249
_cell_volume                      3415.65252765

loop_
_atom_site_label
_atom_site_type_symbol
_atom_type_description
_atom_site_fract_x
_atom_site_fract_y
_atom_site_fract_z
_atom_type_partial_charge
O1    O     O_R   0.000700 0.436510 0.857920 -0.533030
O2    O     O_R   0.999300 0.563490 0.142080 -0.533029
O3    O     O_R   0.999300 0.936510 0.642080 -0.533035
O4    O     O_R   0.000700 0.063490 0.357920 -0.533034
O5    O     O_R   0.930080 0.766380 0.721890 -0.542399
O6    O     O_R   0.069920 0.233620 0.278110 -0.542394
O7    O     O_R   0.069920 0.266380 0.778110 -0.542493
O8    O     O_R   0.930080 0.733620 0.221890 -0.542496
C1    C     C_R   0.910569 0.597592 0.708987 0.696329
C2    C     C_R   0.089431 0.402408 0.291011 0.696337
C3    C     C_R   0.089433 0.097628 0.791005 0.696255
C4    C     C_R   0.910566 0.902373 0.208995 0.696250
O9    O     O_R   0.996180 0.766230 0.862310 -0.543325
O10   O     O_R   0.003820 0.233770 0.137690 -0.543329
O11   O     O_R   0.003820 0.266230 0.637690 -0.543032
O12   O     O_R   0.996180 0.733770 0.362310 -0.543033
O13   O     O_R   0.065870 0.936460 0.783500 -0.539417
O14   O     O_R   0.934130 0.063540 0.216500 -0.539414
O15   O     O_R   0.934130 0.436460 0.716500 -0.539556
O16   O     O_R   0.065870 0.563540 0.283500 -0.539555
C5    C     C_R   0.998486 0.596502 0.894502 0.760349
C6    C     C_R   0.001514 0.403498 0.105497 0.760339
C7    C     C_R   0.001516 0.096389 0.605530 0.761737
C8    C     C_R   0.998484 0.903611 0.394470 0.761742
O17   O     O_3   0.022790 0.603020 0.723980 -0.377874
O18   O     O_3   0.977210 0.396980 0.276020 -0.377870
O19   O     O_3   0.977210 0.103020 0.776020 -0.378391
O20   O     O_3   0.022790 0.896980 0.223980 -0.378392
V1    V     V_3+5 0.995770 0.877900 0.754830 1.411238
V2    V     V_3+5 0.004230 0.122100 0.245170 1.411256
V3    V     V_3+5 0.004230 0.377900 0.745170 1.411608
V4    V     V_3+5 0.995770 0.622100 0.254830 1.411620
C9    C     C_2   0.001709 0.082611 0.519609 -0.330109
C10   C     C_2   0.998291 0.917389 0.480391 -0.330109
C11   C     C_2   0.998301 0.582678 0.980465 -0.330458
C12   C     C_2   0.001699 0.417322 0.019535 -0.330459
H1    H     H_    0.004507 0.211456 0.488008 0.153824
H2    H     H_    0.995493 0.788544 0.511992 0.153824
H3    H     H_    0.995523 0.711536 0.012213 0.153552
H4    H     H_    0.004476 0.288463 0.987787 0.153553
C13   C     C_R   0.681269 0.867386 0.035313 0.580073
C14   C     C_R   0.318690 0.131769 0.964921 0.580050
C15   C     C_R   0.315805 0.523627 0.467221 0.578377
C16   C     C_R   0.684195 0.476930 0.532664 0.578356
O21   O     O_2   0.708718 0.782906 0.990093 -0.513591
O22   O     O_2   0.291208 0.215419 0.010310 -0.513486
O23   O     O_2   0.285724 0.586281 0.513095 -0.515397
O24   O     O_2   0.714275 0.414779 0.486689 -0.515363
N1    N     N_R   0.702791 0.942970 0.107135 -0.558407
N2    N     N_R   0.297203 0.057040 0.892908 -0.558476
N3    N     N_R   0.297034 0.444427 0.394882 -0.558611
N4    N     N_R   0.702967 0.555602 0.605112 -0.558654
C17   C     C_R   0.675561 0.030990 0.153524 0.576422
C18   C     C_R   0.324463 0.969869 0.846337 0.576437
C19   C     C_R   0.327012 0.377520 0.347966 0.577350
C20   C     C_R   0.672994 0.621986 0.652139 0.577352
C21   C     C_R   0.777945 0.759559 0.149065 -0.079890
C22   C     C_R   0.222037 0.240489 0.851223 -0.079923
C23   C     C_R   0.221821 0.260007 0.355664 -0.079520
C24   C     C_R   0.778171 0.740001 0.644486 -0.079578
C25   C     C_R   0.828390 0.749451 0.173798 -0.193313
C26   C     C_R   0.171594 0.250594 0.826472 -0.193266
C27   C     C_R   0.171412 0.249537 0.330348 -0.193690
C28   C     C_R   0.828579 0.750465 0.669799 -0.193700
C29   C     C_R   0.833233 0.085209 0.168351 -0.193432
C30   C     C_R   0.166781 0.914762 0.831397 -0.193394
C31   C     C_R   0.166890 0.585813 0.328166 -0.193220
C32   C     C_R   0.833118 0.414189 0.671668 -0.193208
C33   C     C_R   0.782847 0.094883 0.143601 -0.084493
C34   C     C_R   0.217168 0.905090 0.856154 -0.084509
C35   C     C_R   0.217238 0.595852 0.353347 -0.084590
C36   C     C_R   0.782770 0.404158 0.646482 -0.084637
C37   C     C_R   0.754787 0.932307 0.133632 0.374287
C38   C     C_R   0.245209 0.067705 0.866396 0.374430
C39   C     C_R   0.245106 0.433227 0.367592 0.375243
C40   C     C_R   0.754895 0.566788 0.632399 0.375319
C41   C     C_R   0.602109 0.970192 0.054235 -0.044077
C42   C     C_R   0.397881 0.029812 0.945820 -0.044070
C43   C     C_R   0.397765 0.471228 0.447175 -0.043623
C44   C     C_R   0.602238 0.528813 0.552820 -0.043620
C45   C     C_R   0.630711 0.879227 0.007762 -0.032343
C46   C     C_R   0.369247 0.119919 0.992480 -0.032407
C47   C     C_R   0.366312 0.538887 0.494455 -0.033159
C48   C     C_R   0.633688 0.461686 0.505427 -0.033180
C49   C     C_R   0.608408 0.802951 0.934636 -0.125423
C50   C     C_R   0.391513 0.195225 0.065822 -0.125388
C51   C     C_R   0.385803 0.620186 0.567877 -0.126000
C52   C     C_R   0.614194 0.380998 0.431877 -0.125984
C53   C     C_R   0.624928 0.046526 0.127907 -0.030217
C54   C     C_R   0.375096 0.954336 0.871957 -0.030283
C55   C     C_R   0.377747 0.389300 0.373272 -0.029927
C56   C     C_R   0.622258 0.610203 0.626837 -0.029989
C57   C     C_R   0.856802 0.912265 0.183668 -0.052632
C58   C     C_R   0.143198 0.087741 0.816336 -0.052619
C59   C     C_R   0.143178 0.412454 0.316496 -0.052168
C60   C     C_R   0.856822 0.587546 0.683497 -0.052161
H5    H     H_    0.853651 0.213726 0.175088 0.135473
H6    H     H_    0.146376 0.786213 0.824446 0.135464
H7    H     H_    0.146624 0.714426 0.318039 0.135439
H8    H     H_    0.853392 0.285574 0.681669 0.135413
H9    H     H_    0.765590 0.229256 0.131587 0.126104
H10   H     H_    0.234438 0.770686 0.867962 0.125877
H11   H     H_    0.234652 0.730629 0.361874 0.124371
H12   H     H_    0.765363 0.269385 0.637827 0.124263
C61   C     C_R   0.477373 0.922907 0.925009 0.038535
C62   C     C_R   0.522631 0.077475 0.074967 0.038553
C63   C     C_R   0.519791 0.583235 0.575092 0.038951
C64   C     C_R   0.480213 0.416573 0.424953 0.038966
C65   C     C_R   0.471424 0.092254 0.047822 0.037807
C66   C     C_R   0.528552 0.907370 0.952320 0.037817
C67   C     C_R   0.531473 0.431402 0.451360 0.037122
C68   C     C_R   0.468528 0.568881 0.548585 0.037128
C69   C     C_R   0.449122 0.014978 0.972992 0.062155
C70   C     C_R   0.550868 0.985025 0.027066 0.062162
C71   C     C_R   0.550940 0.514448 0.526303 0.062425
C72   C     C_R   0.449063 0.485597 0.473693 0.062425
C73   C     C_R   0.453121 0.849496 0.850897 -0.173419
C74   C     C_R   0.546932 0.152162 0.148797 -0.173592
C75   C     C_R   0.541325 0.664362 0.649141 -0.173309
C76   C     C_R   0.458682 0.334643 0.351074 -0.173418
C77   C     C_R   0.403203 0.865060 0.825172 -0.132942
C78   C     C_R   0.596857 0.136770 0.174481 -0.133019
C79   C     C_R   0.591344 0.677220 0.674245 -0.133713
C80   C     C_R   0.408665 0.321677 0.325991 -0.133759
O25   O     O_2   0.302740 0.899395 0.775126 -0.518029
O26   O     O_2   0.697313 0.102299 0.224558 -0.518118
O27   O     O_2   0.692147 0.697355 0.723612 -0.515747
O28   O     O_2   0.307862 0.301641 0.276596 -0.515807
C81   C     C_R   0.558562 0.816336 0.907437 -0.177165
C82   C     C_R   0.441366 0.182010 0.092986 -0.177049
C83   C     C_R   0.435666 0.635085 0.594452 -0.174585
C84   C     C_R   0.564331 0.366000 0.405324 -0.174578
H13   H     H_    0.154934 0.386245 0.815518 0.134437
H14   H     H_    0.845038 0.613829 0.184959 0.134530
H15   H     H_    0.845357 0.886390 0.678048 0.133298
H16   H     H_    0.154627 0.113610 0.322227 0.133296
H17   H     H_    0.243163 0.367344 0.858575 0.128569
H18   H     H_    0.756809 0.632734 0.141931 0.128837
H19   H     H_    0.757207 0.866898 0.633586 0.126852
H20   H     H_    0.242776 0.133112 0.366690 0.126974
H21   H     H_    0.386683 0.806004 0.767996 0.160296
H22   H     H_    0.613413 0.196775 0.231448 0.160316
H23   H     H_    0.605704 0.740459 0.731481 0.160982
H24   H     H_    0.394306 0.257842 0.268882 0.160851
H25   H     H_    0.544913 0.752911 0.850569 0.114190
H26   H     H_    0.454965 0.244173 0.150134 0.114036
H27   H     H_    0.447017 0.699942 0.651644 0.113504
H28   H     H_    0.552976 0.301939 0.347965 0.113493
H29   H     H_    0.629491 0.732002 0.897646 0.177338
H30   H     H_    0.370394 0.265225 0.103020 0.177444
H31   H     H_    0.362477 0.673413 0.605531 0.175950
H32   H     H_    0.637518 0.328360 0.394101 0.175939
H33   H     H_    0.471480 0.778554 0.810595 0.109463
H34   H     H_    0.528621 0.224370 0.188826 0.109657
H35   H     H_    0.520703 0.719953 0.689861 0.109881
H36   H     H_    0.479310 0.278264 0.310522 0.110006

loop_
_geom_bond_atom_site_label_1
_geom_bond_atom_site_label_2
_ccdc_geom_bond_type
O17   V3    S    
C47   C51   A    
C61   C66   A    
N1    C17   A    
O1    C5    A    
C30   H6    S    
O19   V1    S    
O13   V1    S    
C63   C68   A    
C64   C76   A    
O3    C7    A    
C11   C12   D    
C14   C46   A    
C76   H36   S    
C44   C48   A    
O15   V3    S    
C75   C79   A    
C42   C54   A    
O7    C3    A    
C41   C53   A    
C32   C60   A    
C62   C70   A    
C23   H20   S    
C26   H13   S    
O9    V1    S    
N3    C39   S    
C18   C54   A    
N2    C38   S    
C74   C78   A    
O4    C8    A    
C25   C57   A    
C31   C35   A    
C82   H26   S    
C53   C78   A    
C51   C83   A    
C27   C59   A    
O1    V3    S    
C15   C47   A    
C66   C81   A    
O2    V4    S    
C14   O22   S    
C20   O27   S    
C21   C37   A    
O3    V1    S    
C73   C77   A    
C34   C38   A    
C19   C55   A    
C49   C81   A    
C1    O15   A    
C2    O16   A    
C7    C9    S    
O2    C6    A    
C83   H27   S    
O14   V2    S    
C66   C70   A    
C81   H25   S    
C49   H29   S    
C65   C69   A    
C30   C58   A    
C16   N4    A    
O11   C7    A    
C28   H15   S    
O12   C8    A    
C51   H31   S    
C43   C72   A    
C62   C74   A    
C31   C59   A    
C52   H32   S    
C61   C73   A    
O10   V2    S    
C63   C75   A    
C25   H14   S    
O5    V1    S    
C18   O25   S    
O7    V3    S    
O8    V4    S    
C77   H21   S    
C12   H4    S    
C28   C60   A    
C56   C79   A    
O18   V4    S    
C50   C82   A    
C36   H12   S    
N4    C40   S    
C46   C50   A    
O11   V3    S    
C24   C40   A    
C8    C10   S    
C32   C36   A    
C52   C84   A    
C84   H28   S    
C44   C56   A    
C11   H3    S    
C32   H8    S    
O5    C1    A    
C42   C46   A    
C44   C71   A    
C41   C45   A    
O8    C4    A    
C13   C45   A    
C9    C10   D    
O9    C5    A    
C36   C40   A    
N2    C18   A    
C33   C37   A    
C1    C60   S    
C63   C71   A    
C22   C26   A    
C14   N2    A    
C22   H17   S    
O6    V2    S    
C33   H9    S    
C55   C80   A    
C26   C58   A    
C17   C53   A    
O10   C6    A    
C54   C77   A    
N1    C37   S    
C4    C57   S    
C42   C69   A    
C78   H22   S    
C79   H23   S    
C41   C70   A    
C23   C39   A    
C68   C72   A    
C22   C38   A    
O16   V4    S    
C61   C69   A    
C35   H11   S    
C3    O13   A    
C75   H35   S    
C10   H2    S    
C43   C55   A    
C48   C52   A    
C3    C58   S    
C16   C48   A    
O6    C2    A    
C34   H10   S    
C21   C25   A    
C5    C11   S    
C31   H7    S    
O12   V4    S    
C13   N1    A    
C6    C12   S    
C23   C27   A    
C64   C67   A    
C24   C28   A    
C27   H16   S    
C64   C72   A    
C50   H30   S    
C73   H33   S    
C29   H5    S    
C35   C39   A    
C15   N3    A    
C30   C34   A    
N4    C20   A    
C2    C59   S    
C29   C33   A    
O20   V2    S    
C29   C57   A    
C21   H18   S    
C74   H34   S    
N3    C19   A    
C68   C83   A    
C9    H1    S    
C17   O26   S    
C24   H19   S    
C43   C47   A    
C76   C80   A    
C67   C84   A    
C20   C56   A    
C19   O28   S    
C45   C49   A    
C4    O14   A    
C65   C82   A    
C13   O21   S    
C80   H24   S    
C67   C71   A    
C15   O23   S    
O4    V2    S    
C16   O24   S    
C62   C65   A    
