data_mof_unit_23119.cif
_audit_creation_date              2012-12-10T17:37:50-0500
_audit_creation_method            fapswitch 2.2
_symmetry_space_group_name_H-M    P1
_symmetry_Int_Tables_number       1
_space_group_crystal_system       triclinic
_cell_length_a                    12.318343
_cell_length_b                    13.213348
_cell_length_c                    17.321366
_cell_angle_alpha                 105.029397
_cell_angle_beta                  74.711868
_cell_angle_gamma                 116.684364
_cell_volume                      2397.2245788

loop_
_atom_site_label
_atom_site_type_symbol
_atom_type_description
_atom_site_fract_x
_atom_site_fract_y
_atom_site_fract_z
_atom_type_partial_charge
C1    C     C_R   0.144547 0.713515 0.507170 0.777583
C2    C     C_R   0.892956 0.534551 0.797047 -0.233394
C3    C     C_R   0.926162 0.499062 0.156630 -0.148811
C4    C     C_R   0.922466 0.502310 0.237868 -0.206039
C5    C     C_R   0.111874 0.473341 0.203233 -0.200474
C6    C     C_R   0.115472 0.470103 0.121705 -0.169278
C7    C     C_R   0.024168 0.485360 0.098303 0.189235
C8    C     C_2   0.991396 0.549400 0.989232 -0.195113
C9    C     C_2   0.032027 0.485319 0.012552 -0.241147
C10   C     C_R   0.015914 0.490701 0.261887 -0.026917
C11   C     C_R   0.734171 0.976414 0.391258 -0.187904
C12   C     C_R   0.989056 0.505848 0.652312 0.801448
C13   C     C_R   0.774547 0.164976 0.471085 -0.048693
C14   C     C_R   0.179125 0.915794 0.560493 -0.187185
C15   C     C_R   0.256438 0.031068 0.576353 -0.144651
C16   C     C_R   0.382351 0.068268 0.547589 -0.181453
C17   C     C_R   0.433442 0.990488 0.499193 0.080605
C18   C     C_R   0.352080 0.875495 0.475174 0.082552
C19   C     C_R   0.562443 0.023301 0.473085 0.074816
C20   C     C_R   0.607054 0.944912 0.417494 0.168048
C21   C     C_R   0.524351 0.837032 0.387154 -0.239258
C22   C     C_R   0.398745 0.803371 0.414525 -0.197145
C23   C     C_R   0.855908 0.286377 0.487978 0.803788
C24   C     C_R   0.648832 0.131588 0.501153 -0.248443
C25   C     C_R   0.817673 0.086400 0.417502 -0.192491
C26   C     C_R   0.225910 0.836496 0.511828 -0.102486
C27   C     C_R   0.642095 0.674623 0.631477 0.064285
C28   C     C_R   0.250573 0.352372 0.389779 0.069971
C29   C     C_R   0.349431 0.320404 0.366341 -0.257510
C30   C     C_R   0.448931 0.376170 0.407982 -0.192324
C31   C     C_R   0.450919 0.465325 0.474143 0.008342
C32   C     C_R   0.347157 0.494852 0.495944 0.293900
C33   C     C_R   0.551197 0.525837 0.519498 -0.077303
C34   C     C_R   0.011832 0.495546 0.347760 0.783155
C35   C     C_R   0.545361 0.614148 0.585721 0.157106
C36   C     C_R   0.443121 0.641215 0.605358 -0.267806
C37   C     C_R   0.346911 0.582998 0.561874 -0.210496
C38   C     C_R   0.657751 0.502746 0.502102 0.000499
C39   C     C_R   0.744064 0.646759 0.610314 0.021600
C40   C     C_R   0.989250 0.517813 0.738533 -0.057062
C41   C     C_R   0.088667 0.517306 0.762916 -0.213230
C42   C     C_R   0.090907 0.531061 0.844571 -0.203023
C43   C     C_R   0.992912 0.543960 0.903346 0.175455
C44   C     C_R   0.894257 0.548313 0.879741 0.185797
Cu1   Cu    Cu3+1 0.900140 0.524980 0.518800 0.934087
Cu2   Cu    Cu3+1 0.099860 0.475020 0.481200 0.924788
H1    H     H_    0.165405 0.507037 0.719010 0.162916
H2    H     H_    0.190684 0.457901 0.077058 0.124537
H3    H     H_    0.915034 0.111339 0.393448 0.147417
H4    H     H_    0.556848 0.778218 0.341978 0.144383
H5    H     H_    0.768690 0.917025 0.348676 0.132897
H6    H     H_    0.620999 0.192817 0.546050 0.147921
H7    H     H_    0.082723 0.888336 0.588056 0.152895
H8    H     H_    0.436427 0.158910 0.562826 0.129206
H9    H     H_    0.219075 0.091646 0.613353 0.143048
H10   H     H_    0.339089 0.721144 0.385619 0.175621
H11   H     H_    0.819427 0.691690 0.644231 0.120523
H12   H     H_    0.846118 0.513566 0.281699 0.153335
H13   H     H_    0.436194 0.708426 0.655224 0.181566
H14   H     H_    0.669951 0.437523 0.452928 0.130541
H15   H     H_    0.173736 0.308476 0.357184 0.123048
H16   H     H_    0.522621 0.347576 0.387156 0.135428
H17   H     H_    0.348903 0.252031 0.315721 0.145490
H18   H     H_    0.273597 0.610353 0.582797 0.208658
H19   H     H_    0.184448 0.463100 0.220269 0.150930
H20   H     H_    0.073181 0.432119 0.967942 0.149303
H21   H     H_    0.851604 0.506101 0.139675 0.134131
H22   H     H_    0.816628 0.536598 0.778545 0.148281
H23   H     H_    0.951191 0.603045 0.034058 0.156372
H24   H     H_    0.169742 0.531786 0.861652 0.137401
N1    N     N_R   0.749710 0.562810 0.547300 -0.192293
N2    N     N_R   0.249640 0.437820 0.453210 -0.206551
O1    O     O_R   0.025490 0.682370 0.523640 -0.577817
O2    O     O_R   0.194150 0.640180 0.491890 -0.604275
O3    O     O_R   0.905900 0.523560 0.631310 -0.587302
O4    O     O_R   0.074570 0.481370 0.599560 -0.601375
O5    O     O_R   0.805850 0.359820 0.508110 -0.586343
O6    O     O_R   0.974510 0.317630 0.476360 -0.584650
O7    O     O_R   0.925430 0.518630 0.400440 -0.585649
O8    O     O_R   0.094100 0.476440 0.368690 -0.599221
N3    N     N_3   0.636485 0.763623 0.698888 -0.602171
H25   H     H_    0.570209 0.723808 0.745937 0.210009
H26   H     H_    0.720205 0.806396 0.720514 0.208646
N4    N     N_3   0.794231 0.562886 0.939643 -0.607379
H27   H     H_    0.827354 0.648038 0.969130 0.200929
H28   H     H_    0.723006 0.551740 0.911835 0.212170

loop_
_geom_bond_atom_site_label_1
_geom_bond_atom_site_label_2
_ccdc_geom_bond_type
C24   H6    S    
C29   H17   S    
Cu1   N1    S    
C41   C42   A    
C35   C36   A    
C18   C26   A    
C8    C43   S    
C36   H13   S    
Cu2   O4    S    
N3    H25   S    
C32   N2    A    
Cu1   Cu2   S    
C8    H23   S    
C6    H2    S    
C1    O2    A    
C36   C37   A    
N4    H28   S    
C3    C7    A    
C30   C31   A    
C11   C25   A    
C15   C16   A    
C39   H11   S    
C42   H24   S    
C13   C23   S    
Cu1   O1    S    
C9    H20   S    
C34   O8    A    
C19   C20   A    
C2    C44   A    
C16   C17   A    
C31   C33   A    
Cu2   N2    S    
C28   H15   S    
C21   C22   A    
C13   C25   A    
C28   N2    A    
C21   H4    S    
N3    H26   S    
C16   H8    S    
C11   C20   A    
C27   N3    S    
N4    H27   S    
C5    H19   S    
C27   C39   A    
Cu2   O6    S    
C8    C9    D    
C22   H10   S    
C27   C35   A    
C23   O5    A    
C13   C24   A    
C15   H9    S    
C12   C40   S    
C43   C44   A    
Cu1   O7    S    
C29   C30   A    
C34   O7    A    
C31   C32   A    
C17   C18   A    
C41   H1    S    
C10   C34   S    
C32   C37   A    
C14   C26   A    
C38   H14   S    
C40   C41   A    
C12   O4    A    
C1    C26   S    
C42   C43   A    
C4    C10   A    
C3    C4    A    
Cu2   O2    S    
C37   H18   S    
C7    C9    S    
C38   N1    A    
C28   C29   A    
C18   C22   A    
C3    H21   S    
C44   N4    S    
C6    C7    A    
C2    H22   S    
C33   C38   A    
Cu1   O3    S    
C1    O1    A    
C30   H16   S    
C19   C24   A    
C5    C10   A    
Cu2   O8    S    
C5    C6    A    
C33   C35   A    
C23   O6    A    
C25   H3    S    
C11   H5    S    
C17   C19   A    
C2    C40   A    
C14   H7    S    
C20   C21   A    
C12   O3    A    
C4    H12   S    
C39   N1    A    
C14   C15   A    
Cu1   O5    S    
