data_mof_unit_66700.cif
_audit_creation_date              2012-12-11T14:04:03-0500
_audit_creation_method            fapswitch 2.2
_symmetry_space_group_name_H-M    P1
_symmetry_Int_Tables_number       1
_space_group_crystal_system       triclinic
_cell_length_a                    19.621695
_cell_length_b                    11.403886
_cell_length_c                    18.815199
_cell_angle_alpha                 89.963473
_cell_angle_beta                  88.407304
_cell_angle_gamma                 90.384807
_cell_volume                      4208.43328162

loop_
_atom_site_label
_atom_site_type_symbol
_atom_type_description
_atom_site_fract_x
_atom_site_fract_y
_atom_site_fract_z
_atom_type_partial_charge
C1    C     C_R   0.227941 0.512738 0.638650 0.539977
C2    C     C_R   0.999826 0.657676 0.574591 0.004837
C3    C     C_3   0.881655 0.130435 0.375906 -0.176891
C4    C     C_3   0.917975 0.092163 0.306582 -0.381213
C5    C     C_3   0.120970 0.287942 0.598894 -0.017018
C6    C     C_3   0.101213 0.184822 0.553185 -0.246060
C7    C     C_3   0.109894 0.072154 0.591660 -0.386727
C8    C     C_3   0.293063 0.716941 0.159997 0.078166
C9    C     C_3   0.371560 0.717747 0.148983 -0.247139
C10   C     C_3   0.397427 0.776458 0.079956 -0.326668
C11   C     C_3   0.738200 0.761902 0.920235 0.051568
C12   C     C_3   0.695781 0.698437 0.864510 -0.228495
C13   C     C_R   0.498802 0.155263 0.426242 0.000066
C14   C     C_3   0.625530 0.663801 0.894373 -0.359714
C15   C     C_3   0.824654 0.232718 0.131940 0.022243
C16   C     C_3   0.899853 0.267582 0.145183 -0.218240
C17   C     C_3   0.951628 0.168850 0.135710 -0.472725
C18   C     C_3   0.200729 0.217953 0.838208 0.048064
C19   C     C_3   0.126722 0.233472 0.812774 -0.285864
C20   C     C_3   0.097052 0.123296 0.779809 -0.496488
C21   C     C_3   0.163823 0.714136 0.489701 -0.035538
C22   C     C_3   0.211834 0.694782 0.424960 -0.340779
C23   C     C_3   0.192364 0.597853 0.374778 -0.417454
C24   C     C_R   0.495659 0.168180 0.576875 -0.007864
C25   C     C_3   0.838745 0.660057 0.491433 -0.006802
C26   C     C_3   0.802016 0.638179 0.563464 -0.327248
C27   C     C_3   0.830389 0.538058 0.605723 -0.417082
C28   C     C_3   0.657963 0.160140 0.514984 -0.010295
C29   C     C_3   0.696109 0.130940 0.445213 -0.332324
C30   C     C_3   0.665843 0.028881 0.405734 -0.406786
C31   C     C_3   0.333293 0.219420 0.504730 -0.031773
C32   C     C_3   0.286180 0.197538 0.569842 -0.326634
C33   C     C_3   0.307399 0.097487 0.617444 -0.405864
C34   C     C_3   0.093396 0.869881 0.351777 0.035938
C35   C     C_R   0.004689 0.884326 0.432950 0.274929
C36   C     C_3   0.117573 0.898922 0.275892 -0.236262
C37   C     C_3   0.076153 0.837986 0.220345 -0.378906
C38   C     C_3   0.902987 0.823688 0.678386 0.048125
C39   C     C_3   0.901442 0.824520 0.760062 -0.261150
C40   C     C_3   0.889405 0.702001 0.791203 -0.433461
C41   C     C_3   0.602373 0.307848 0.325037 0.049256
C42   C     C_3   0.609721 0.308804 0.244125 -0.297471
C43   C     C_3   0.645963 0.199315 0.216150 -0.466589
C44   C     C_3   0.404068 0.372146 0.642717 0.049248
C45   C     C_3   0.377798 0.384061 0.719391 -0.256490
C46   C     C_R   0.968960 0.870649 0.578848 0.277653
C47   C     C_3   0.416137 0.309200 0.771045 -0.373628
C48   C     C_3   0.132902 0.053678 0.042215 0.036358
C49   C     C_3   0.102075 0.036364 0.969523 -0.257310
C50   C     C_3   0.025341 0.040739 0.971482 -0.436021
C51   C     C_3   0.872132 0.136022 0.952947 0.038736
C52   C     C_3   0.899313 0.252589 0.921848 -0.236892
C53   C     C_3   0.924606 0.240366 0.844798 -0.393086
C54   C     C_3   0.594268 0.474474 0.066096 0.010912
C55   C     C_3   0.549816 0.578704 0.088287 -0.270473
C56   C     C_3   0.566297 0.627848 0.161238 -0.314452
C57   C     C_R   0.533406 0.366173 0.420025 0.279669
C58   C     C_3   0.405892 0.464953 0.955404 0.041619
C59   C     C_3   0.455085 0.565036 0.934796 -0.267735
C60   C     C_3   0.440060 0.623151 0.864024 -0.346197
C61   C     C_R   0.494545 0.385122 0.565049 0.267497
C62   C     C_R   0.994367 0.982939 0.473556 0.370289
C63   C     C_R   0.968824 0.975849 0.543044 0.468404
C64   C     C_R   0.529999 0.473220 0.453330 0.480221
C65   C     C_R   0.761157 0.472768 0.354509 0.509838
C66   C     C_R   0.501645 0.482648 0.521436 0.402699
C67   C     C_R   0.988431 0.766600 0.540786 -0.093173
C68   C     C_R   0.995485 0.772753 0.464606 -0.069927
C69   C     C_R   0.503966 0.272078 0.535122 -0.066923
C70   C     C_R   0.512167 0.263806 0.459225 -0.094320
C71   C     C_R   0.003226 0.554532 0.531799 -0.101943
C72   C     C_R   0.019045 0.565208 0.458737 -0.177703
C73   C     C_R   0.478107 0.063842 0.542686 -0.182912
C74   C     C_R   0.493046 0.051980 0.469426 -0.126474
C75   C     C_R   0.981509 0.441667 0.555330 0.366696
C76   C     C_R   0.738640 0.971676 0.645704 0.515592
C77   C     C_R   0.038532 0.465075 0.419975 0.418788
C78   C     C_R   0.456737 0.964658 0.582191 0.379550
C79   C     C_R   0.510375 0.937176 0.445601 0.372166
C80   C     C_R   0.977360 0.351207 0.505869 0.423305
C81   C     C_R   0.011135 0.359925 0.440426 0.506100
C82   C     C_R   0.478044 0.856387 0.560347 0.529853
C83   C     C_R   0.509678 0.844570 0.494059 0.463814
C84   C     C_2   0.250804 0.920520 0.915328 0.360057
C85   C     C_2   0.750762 0.933011 0.086814 0.395410
C86   C     C_2   0.740969 0.410409 0.922689 0.355693
C87   C     C_R   0.271374 0.006127 0.361299 0.530045
C88   C     C_2   0.259089 0.406893 0.075688 0.408566
C89   C     C_2   0.243869 0.877553 0.099156 0.252706
C90   C     C_2   0.734240 0.962803 0.928910 0.332919
C91   C     C_2   0.750478 0.382860 0.092588 0.270986
C92   C     C_2   0.252999 0.372437 0.900159 0.300781
C93   C     C_R   0.209790 0.827382 0.641502 0.552240
C94   C     C_R   0.792459 0.821650 0.357174 0.554119
C95   C     C_R   0.707277 0.322377 0.643179 0.563229
C96   C     C_R   0.289730 0.329441 0.358695 0.556271
C97   C     C_2   0.222375 0.926288 0.039475 0.313594
C98   C     C_2   0.287855 0.837941 0.536409 0.405885
C99   C     C_2   0.776048 0.020899 0.971865 0.316904
C100  C     C_2   0.702960 0.411276 0.045875 0.293904
C101  C     C_2   0.295906 0.399421 0.952326 0.306908
C102  C     C_2   0.230151 0.862241 0.973262 0.401022
C103  C     C_2   0.796822 0.962584 0.036159 0.303518
C104  C     C_2   0.706967 0.357338 0.976096 0.455907
C105  C     C_2   0.285939 0.343618 0.021872 0.430229
C106  C     C_2   0.062056 0.656106 0.932778 0.427399
C107  C     C_2   0.000650 0.660339 0.078852 0.361144
C108  C     C_2   0.552380 0.157550 0.931550 0.423265
C109  C     C_2   0.723159 0.804905 0.469032 0.397088
C110  C     C_2   0.496096 0.159823 0.078445 0.350602
C111  C     C_2   0.042726 0.576435 0.052909 0.429819
C112  C     C_2   0.056179 0.562801 0.976035 0.437464
C113  C     C_2   0.536330 0.075270 0.051136 0.428157
C114  C     C_2   0.549989 0.064034 0.974767 0.448841
C115  C     C_R   0.030483 0.653413 0.645773 0.572227
C116  C     C_R   0.969959 0.656007 0.353715 0.590647
C117  C     C_R   0.529576 0.155811 0.646439 0.592347
C118  C     C_R   0.468797 0.153035 0.354672 0.566714
C119  C     C_R   0.239160 0.461535 0.846534 0.579618
C120  C     C_2   0.774682 0.308927 0.531431 0.394418
C121  C     C_R   0.761551 0.463038 0.152154 0.548833
C122  C     C_R   0.726536 0.007295 0.858288 0.585494
C123  C     C_R   0.259452 0.959094 0.156050 0.548298
C124  C     C_R   0.228473 0.876219 0.848755 0.588162
C125  C     C_R   0.773652 0.873480 0.148878 0.610675
C126  C     C_R   0.726357 0.372778 0.851642 0.590998
C127  C     C_R   0.274079 0.371499 0.147401 0.606566
C128  C     C_R   0.064502 0.647200 0.855608 0.612255
C129  C     C_R   0.969882 0.651867 0.149491 0.594243
C130  C     C_R   0.562503 0.147470 0.855982 0.611343
C131  C     C_2   0.211319 0.357724 0.460622 0.345248
C132  C     C_R   0.469607 0.151924 0.149887 0.597255
C133  C     C_2   0.223233 0.832744 0.563969 0.285668
C134  C     C_2   0.785457 0.810653 0.435759 0.277411
C135  C     C_2   0.713074 0.313945 0.564986 0.282674
C136  C     C_2   0.275725 0.344145 0.434788 0.299457
C137  C     C_2   0.263576 0.962611 0.433508 0.295079
C138  C     C_2   0.753033 0.916880 0.576802 0.273164
C139  C     C_2   0.745348 0.419064 0.423577 0.276438
C140  C     C_2   0.238472 0.476494 0.565297 0.315082
C141  C     C_2   0.304729 0.880343 0.463732 0.239881
C142  C     C_R   0.002332 0.668495 0.423846 -0.018072
C143  C     C_2   0.710187 0.839827 0.544456 0.232043
C144  C     C_2   0.787212 0.342657 0.456059 0.232226
C145  C     C_2   0.194807 0.403959 0.532077 0.226628
C146  C     C_3   0.370475 0.772562 0.377904 0.016617
C147  C     C_3   0.400991 0.653951 0.394119 -0.223829
C148  C     C_3   0.429845 0.598855 0.325610 -0.403127
C149  C     C_3   0.647648 0.744606 0.636124 0.013490
C150  C     C_3   0.608655 0.631250 0.628778 -0.192587
C151  C     C_3   0.581371 0.590336 0.701906 -0.399777
C152  C     C_3   0.847163 0.245571 0.365168 0.018328
Cr1   Cr    Cr6+3 0.113970 0.508630 0.747920 1.010225
Cr2   Cr    Cr6+3 0.887700 0.820070 0.250200 1.011581
Cr3   Cr    Cr6+3 0.612300 0.320070 0.749800 0.990334
Cr4   Cr    Cr6+3 0.387700 0.320070 0.250200 1.012448
Cr5   Cr    Cr6+3 0.886030 0.508630 0.252080 1.028081
Cr6   Cr    Cr6+3 0.613970 0.008630 0.747920 1.042465
Cr7   Cr    Cr6+3 0.386030 0.008630 0.252080 1.026267
Cr8   Cr    Cr6+3 0.269200 0.666740 0.749850 1.108084
Cr9   Cr    Cr6+3 0.730800 0.666740 0.250150 1.120107
Cr10  Cr    Cr6+3 0.769200 0.166740 0.749850 1.087059
Cr11  Cr    Cr6+3 0.230800 0.166740 0.250150 1.124765
Cr12  Cr    Cr6+3 0.112300 0.820070 0.749800 1.003628
F1    F     F_    0.206038 0.750146 0.969068 -0.573238
F2    F     F_    0.060465 0.451778 0.949880 -0.634788
F3    F     F_    0.557267 0.986266 0.093271 -0.567358
F4    F     F_    0.560718 0.954110 0.948950 -0.607515
F5    F     F_    0.971230 0.740046 0.035658 -0.594045
F6    F     F_    0.070627 0.764595 0.960565 -0.630112
F7    F     F_    0.462214 0.236081 0.036886 -0.626096
F8    F     F_    0.553005 0.268412 0.957290 -0.649729
F9    F     F_    0.340956 0.803384 0.575597 -0.541869
F10   F     F_    0.668176 0.767327 0.432723 -0.501067
F11   F     F_    0.828580 0.268966 0.567459 -0.501331
F12   F     F_    0.862945 0.927363 0.039413 -0.652555
F13   F     F_    0.157604 0.329969 0.419820 -0.590738
F14   F     F_    0.212243 0.013729 0.471584 -0.691817
F15   F     F_    0.809260 0.960345 0.541714 -0.623603
F16   F     F_    0.689627 0.463427 0.458567 -0.617921
F17   F     F_    0.293396 0.524571 0.530319 -0.645659
F18   F     F_    0.019604 0.083649 0.447081 -0.586203
F19   F     F_    0.952919 0.072531 0.581165 -0.504945
F20   F     F_    0.549156 0.568443 0.414908 -0.500920
F21   F     F_    0.471678 0.582838 0.542379 -0.544969
F22   F     F_    0.068080 0.471678 0.353734 -0.568256
F23   F     F_    0.679004 0.249579 0.967378 -0.642182
F24   F     F_    0.956769 0.419440 0.622034 -0.593151
F25   F     F_    0.537198 0.914525 0.379853 -0.580133
F26   F     F_    0.428161 0.973215 0.648637 -0.587052
F27   F     F_    0.942282 0.253749 0.522144 -0.472153
F28   F     F_    0.012399 0.271933 0.392692 -0.530772
F29   F     F_    0.472000 0.766825 0.607136 -0.509214
F30   F     F_    0.543546 0.746404 0.478039 -0.469748
F31   F     F_    0.313929 0.236518 0.033210 -0.560018
F32   F     F_    0.283224 0.026073 0.919149 -0.615893
F33   F     F_    0.683895 0.959067 0.081164 -0.573473
F34   F     F_    0.782201 0.504312 0.933773 -0.725435
F35   F     F_    0.231865 0.514302 0.063955 -0.577303
F36   F     F_    0.065715 0.490717 0.096406 -0.589539
H1    H     H_    0.404795 0.813698 0.336813 0.216532
H2    H     H_    0.565945 0.647145 0.594792 0.323427
H3    H     H_    0.648414 0.346427 0.347068 0.174826
H4    H     H_    0.558856 0.313549 0.220437 0.194290
H5    H     H_    0.638926 0.387760 0.227319 0.166859
H6    H     H_    0.694769 0.187138 0.243568 0.122427
H7    H     H_    0.656281 0.207765 0.158052 0.183551
H8    H     H_    0.613296 0.120611 0.225699 0.212963
H9    H     H_    0.397243 0.280704 0.628527 0.111337
H10   H     H_    0.373285 0.427298 0.607708 0.264751
H11   H     H_    0.381504 0.477013 0.735848 0.211874
H12   H     H_    0.323508 0.355759 0.722107 0.119554
H13   H     H_    0.640849 0.565922 0.600915 0.206749
H14   H     H_    0.427401 0.221142 0.748757 0.196837
H15   H     H_    0.384914 0.297213 0.820539 0.135440
H16   H     H_    0.463433 0.356878 0.783513 0.198587
H17   H     H_    0.120450 0.143433 0.061264 0.198791
H18   H     H_    0.109565 0.991637 0.081847 0.117760
H19   H     H_    0.122365 0.104959 0.933726 0.209752
H20   H     H_    0.116232 0.951028 0.947529 0.245910
H21   H     H_    0.003250 0.990393 0.017232 0.248142
H22   H     H_    0.006006 0.002467 0.921643 0.173236
H23   H     H_    0.010643 0.133614 0.974154 0.124138
H24   H     H_    0.624178 0.584965 0.738920 0.140737
H25   H     H_    0.893748 0.060847 0.922264 0.154589
H26   H     H_    0.889014 0.130728 0.008228 0.180641
H27   H     H_    0.859924 0.320730 0.925537 0.245127
H28   H     H_    0.942117 0.285751 0.953767 0.165361
H29   H     H_    0.967695 0.178218 0.841896 0.113454
H30   H     H_    0.942447 0.326898 0.824231 0.187623
H31   H     H_    0.883591 0.207062 0.810755 0.215835
H32   H     H_    0.588722 0.404205 0.106933 0.134168
H33   H     H_    0.574528 0.441637 0.015494 0.212790
H34   H     H_    0.555818 0.649697 0.048115 0.190108
H35   H     H_    0.557255 0.503161 0.698925 0.238868
H36   H     H_    0.495761 0.549194 0.089831 0.109444
H37   H     H_    0.566496 0.557096 0.201749 0.147205
H38   H     H_    0.527025 0.692826 0.177546 0.130514
H39   H     H_    0.616181 0.673882 0.158913 0.248337
H40   H     H_    0.419218 0.387917 0.921645 0.182716
H41   H     H_    0.414634 0.441798 0.011834 0.192859
H42   H     H_    0.454074 0.632755 0.976511 0.140803
H43   H     H_    0.507390 0.529194 0.931482 0.136346
H44   H     H_    0.444984 0.558601 0.820458 0.126446
H45   H     H_    0.477471 0.694887 0.853377 0.137935
H46   H     H_    0.542681 0.652428 0.723594 0.156875
H47   H     H_    0.388472 0.662338 0.865474 0.237737
H48   H     H_    0.878080 0.290936 0.323280 0.198416
H49   H     H_    0.795068 0.231131 0.344632 0.050972
H50   H     H_    0.917983 0.141586 0.417632 0.335067
H51   H     H_    0.844259 0.066776 0.397361 0.187484
H52   H     H_    0.881164 0.091636 0.262871 0.118319
H53   H     H_    0.320812 0.758140 0.352825 0.094453
H54   H     H_    0.938876 0.003761 0.310864 0.245154
H55   H     H_    0.960938 0.152500 0.292999 0.195319
H56   H     H_    0.079393 0.302257 0.639206 0.213358
H57   H     H_    0.166591 0.267368 0.630122 0.108367
H58   H     H_    0.047968 0.191146 0.542999 0.296019
H59   H     H_    0.130277 0.181267 0.502264 0.294122
H60   H     H_    0.162127 0.072172 0.609747 0.176306
H61   H     H_    0.103105 0.997697 0.555251 0.245324
H62   H     H_    0.072982 0.064133 0.637019 0.192705
H63   H     H_    0.276666 0.624960 0.169295 0.195145
H64   H     H_    0.441886 0.666340 0.431658 0.314871
H65   H     H_    0.276633 0.760649 0.210366 0.065855
H66   H     H_    0.395216 0.762590 0.194639 0.123006
H67   H     H_    0.390075 0.625888 0.148782 0.132244
H68   H     H_    0.372841 0.735836 0.033559 0.209325
H69   H     H_    0.453436 0.766547 0.074450 0.145584
H70   H     H_    0.386923 0.871637 0.079547 0.207474
H71   H     H_    0.747640 0.700858 0.964721 0.245761
H72   H     H_    0.789311 0.784264 0.896376 0.096460
H73   H     H_    0.690229 0.752275 0.816239 0.153483
H74   H     H_    0.723173 0.619280 0.846058 0.166529
H75   H     H_    0.362493 0.594154 0.418786 0.225800
H76   H     H_    0.630770 0.608143 0.941871 0.195912
H77   H     H_    0.597363 0.612971 0.854590 0.107996
H78   H     H_    0.595361 0.742630 0.908658 0.248376
H79   H     H_    0.821353 0.138574 0.119630 0.166012
H80   H     H_    0.793421 0.242038 0.181798 0.081850
H81   H     H_    0.915825 0.341470 0.109734 0.238995
H82   H     H_    0.903509 0.299182 0.200697 0.149791
H83   H     H_    0.973627 0.171933 0.081497 0.150026
H84   H     H_    0.929182 0.080902 0.146453 0.181410
H85   H     H_    0.994815 0.183003 0.171683 0.159079
H86   H     H_    0.390571 0.596813 0.284311 0.117230
H87   H     H_    0.210131 0.123632 0.844355 0.218545
H88   H     H_    0.238037 0.245958 0.795645 0.076580
H89   H     H_    0.092464 0.263363 0.857073 0.234883
H90   H     H_    0.125937 0.299602 0.769778 0.186159
H91   H     H_    0.135405 0.083514 0.743206 0.185288
H92   H     H_    0.051405 0.146410 0.749332 0.147842
H93   H     H_    0.080756 0.059503 0.821178 0.179470
H94   H     H_    0.113821 0.707331 0.470226 0.176963
H95   H     H_    0.166578 0.644996 0.530422 0.126994
H96   H     H_    0.214064 0.774244 0.391923 0.140104
H97   H     H_    0.445937 0.508011 0.335831 0.238913
H98   H     H_    0.261673 0.671451 0.445635 0.217892
H99   H     H_    0.164823 0.532509 0.405918 0.256330
H100  H     H_    0.238742 0.559574 0.349590 0.171257
H101  H     H_    0.160353 0.628453 0.331088 0.182905
H102  H     H_    0.889874 0.625687 0.493580 0.157447
H103  H     H_    0.815613 0.606773 0.449387 0.123744
H104  H     H_    0.805408 0.716106 0.597360 0.146989
H105  H     H_    0.748007 0.616961 0.553323 0.195828
H106  H     H_    0.848543 0.470397 0.569005 0.239747
H107  H     H_    0.790983 0.504841 0.643747 0.176994
H108  H     H_    0.474737 0.649651 0.305138 0.190013
H109  H     H_    0.873750 0.564714 0.637500 0.192045
H110  H     H_    0.606570 0.126554 0.511900 0.161021
H111  H     H_    0.678718 0.110253 0.559787 0.123677
H112  H     H_    0.695751 0.205814 0.408865 0.143712
H113  H     H_    0.749199 0.109245 0.457914 0.202605
H114  H     H_    0.643749 0.966255 0.444214 0.234146
H115  H     H_    0.705226 0.990254 0.370392 0.180788
H116  H     H_    0.624784 0.054581 0.371147 0.196641
H117  H     H_    0.384631 0.205720 0.520196 0.170577
H118  H     H_    0.325617 0.154026 0.462197 0.115170
H119  H     H_    0.618529 0.793265 0.677786 0.202537
H120  H     H_    0.282350 0.276088 0.603693 0.139407
H121  H     H_    0.236410 0.176283 0.548802 0.201907
H122  H     H_    0.327608 0.026648 0.584232 0.222249
H123  H     H_    0.263996 0.065296 0.650686 0.158526
H124  H     H_    0.345923 0.125151 0.655609 0.193559
H125  H     H_    0.098264 0.775109 0.358341 0.113925
H126  H     H_    0.126166 0.916328 0.389860 0.240608
H127  H     H_    0.114035 0.994931 0.266742 0.217775
H128  H     H_    0.171168 0.869452 0.268776 0.124405
H129  H     H_    0.068269 0.744315 0.234609 0.177287
H130  H     H_    0.699549 0.727086 0.655924 0.061070
H131  H     H_    0.103349 0.842281 0.167951 0.133361
H132  H     H_    0.027158 0.884991 0.216514 0.192028
H133  H     H_    0.901855 0.733636 0.659491 0.107478
H134  H     H_    0.857702 0.868489 0.659303 0.182812
H135  H     H_    0.949958 0.860479 0.780202 0.220517
H136  H     H_    0.860083 0.882621 0.779764 0.158943
H137  H     H_    0.838008 0.669207 0.777401 0.127895
H138  H     H_    0.893166 0.705029 0.849924 0.193803
H139  H     H_    0.928392 0.640129 0.770072 0.202623
H140  H     H_    0.596729 0.217646 0.342313 0.120902
O1    O     O_R   0.043230 0.549300 0.667990 -0.448337
O2    O     O_R   0.832470 0.905110 0.169660 -0.518861
O3    O     O_R   0.667530 0.405110 0.830340 -0.545430
O4    O     O_R   0.332470 0.405110 0.169660 -0.551855
O5    O     O_R   0.054010 0.748440 0.822860 -0.492676
O6    O     O_R   0.945990 0.748440 0.177140 -0.484083
O7    O     O_R   0.554010 0.248440 0.822860 -0.500646
O8    O     O_R   0.445990 0.248440 0.177140 -0.488361
O9    O     O_3   0.165160 0.665150 0.749190 -0.356264
O10   O     O_3   0.834840 0.665150 0.250810 -0.327820
O11   O     O_3   0.665160 0.165150 0.749190 -0.361756
O12   O     O_R   0.956770 0.549300 0.332010 -0.456283
O13   O     O_3   0.334840 0.165150 0.250810 -0.322335
O14   O     O_R   0.178620 0.457600 0.674100 -0.556313
O15   O     O_R   0.821380 0.457600 0.325900 -0.559137
O16   O     O_R   0.678620 0.957600 0.674100 -0.557936
O17   O     O_R   0.321380 0.957600 0.325900 -0.568148
O18   O     O_R   0.284680 0.542100 0.669460 -0.496990
O19   O     O_R   0.715320 0.542100 0.330540 -0.424061
O20   O     O_R   0.784680 0.042100 0.669460 -0.422007
O21   O     O_R   0.215320 0.042100 0.330540 -0.505349
O22   O     O_R   0.262860 0.790390 0.676650 -0.422675
O23   O     O_R   0.543230 0.049300 0.667990 -0.460952
O24   O     O_R   0.737140 0.790390 0.323350 -0.445855
O25   O     O_R   0.762860 0.290390 0.676650 -0.443333
O26   O     O_R   0.237140 0.290390 0.323350 -0.421212
O27   O     O_R   0.167460 0.907030 0.670940 -0.565190
O28   O     O_R   0.832540 0.907030 0.329060 -0.569782
O29   O     O_R   0.667460 0.407030 0.670940 -0.564979
O30   O     O_R   0.332540 0.407030 0.329060 -0.557056
O31   O     O_R   0.053950 0.750220 0.675100 -0.469481
O32   O     O_R   0.946050 0.750220 0.324900 -0.484426
O33   O     O_R   0.553950 0.250220 0.675100 -0.480110
O34   O     O_R   0.456770 0.049300 0.332010 -0.450856
O35   O     O_R   0.446050 0.250220 0.324900 -0.489342
O36   O     O_R   0.043300 0.547370 0.827390 -0.511340
O37   O     O_R   0.956700 0.547370 0.172610 -0.485403
O38   O     O_R   0.543300 0.047370 0.827390 -0.473201
O39   O     O_R   0.456700 0.047370 0.172610 -0.476869
O40   O     O_R   0.178690 0.455820 0.821860 -0.509045
O41   O     O_R   0.821310 0.455820 0.178140 -0.531203
O42   O     O_R   0.678690 0.955820 0.821860 -0.513558
O43   O     O_R   0.321310 0.955820 0.178140 -0.518496
O44   O     O_R   0.284750 0.540170 0.828860 -0.510311
O45   O     O_R   0.262920 0.788600 0.824420 -0.473968
O46   O     O_R   0.715250 0.540170 0.171140 -0.510867
O47   O     O_R   0.784750 0.040170 0.828860 -0.562980
O48   O     O_R   0.215250 0.040170 0.171140 -0.518538
O49   O     O_3   0.369686 0.850814 0.436978 -0.579009
O50   O     O_3   0.645683 0.811410 0.572544 -0.531014
O51   O     O_3   0.850877 0.314877 0.427362 -0.528335
O52   O     O_3   0.128213 0.391111 0.557708 -0.590430
O53   O     O_3   0.259076 0.757455 0.099284 -0.499680
O54   O     O_3   0.702375 0.858702 0.949374 -0.518343
O55   O     O_3   0.798158 0.295761 0.073535 -0.569564
O56   O     O_R   0.737080 0.788600 0.175580 -0.473872
O57   O     O_3   0.211186 0.272393 0.905690 -0.527263
O58   O     O_3   0.168473 0.827543 0.519424 -0.604280
O59   O     O_3   0.842727 0.781171 0.473233 -0.577692
O60   O     O_3   0.655561 0.282753 0.528362 -0.580371
O61   O     O_3   0.329872 0.336007 0.479795 -0.581867
O62   O     O_3   0.025309 0.902393 0.362722 -0.537865
O63   O     O_3   0.962013 0.880630 0.652251 -0.518579
O64   O     O_3   0.545115 0.372305 0.346828 -0.537275
O65   O     O_3   0.473023 0.403541 0.634996 -0.541918
O66   O     O_3   0.204771 0.044276 0.036770 -0.491127
O67   O     O_R   0.762920 0.288600 0.824420 -0.498406
O68   O     O_3   0.800355 0.132426 0.952937 -0.523586
O69   O     O_3   0.662702 0.510175 0.055230 -0.586347
O70   O     O_3   0.337320 0.498832 0.947590 -0.556905
O71   O     O_R   0.237080 0.288600 0.175580 -0.456044
O72   O     O_R   0.167530 0.905110 0.830340 -0.567333

loop_
_geom_bond_atom_site_label_1
_geom_bond_atom_site_label_2
_ccdc_geom_bond_type
C99   C103  S    
C121  O41   A    
C11   H72   S    
C123  O43   A    
C19   C20   S    
C87   O21   A    
C3    H50   S    
C107  C129  S    
C30   H115  S    
C131  F13   S    
Cr7   O39   S    
C44   C45   S    
C72   C142  A    
C93   O27   A    
C5    H56   S    
C56   H38   S    
C15   H80   S    
C92   C119  S    
C146  H1    S    
C138  C143  D    
C5    C6    S    
Cr1   O40   S    
Cr2   O32   S    
C18   H88   S    
C13   C70   A    
C65   O19   A    
C128  O36   A    
Cr1   O14   S    
C100  C104  S    
C151  H24   S    
C7    H62   S    
C73   C74   A    
Cr10  O25   S    
C120  C144  S    
Cr4   O13   S    
C116  O12   A    
Cr1   O9    S    
Cr5   O41   S    
Cr6   O23   S    
C99   O68   S    
C44   O65   S    
C85   C103  D    
C110  F7    S    
C14   H78   S    
C109  C134  D    
C59   C60   S    
C148  H86   S    
C21   C22   S    
C20   H93   S    
C41   O64   S    
Cr7   O17   S    
C48   H17   S    
C45   C47   S    
Cr5   O10   S    
C45   H12   S    
C63   F19   S    
C117  O23   A    
C51   C52   S    
Cr6   O16   S    
Cr12  O72   S    
C1    O18   A    
C6    H59   S    
C64   C66   A    
C140  C145  D    
Cr3   O7    S    
C23   H101  S    
C48   O66   S    
C78   C82   A    
C120  F11   S    
C34   H125  S    
C47   H16   S    
C3    C152  S    
C119  O40   A    
C94   O24   A    
C1    C140  S    
C86   F34   S    
C116  C142  S    
C74   C79   A    
C26   C27   S    
C2    C71   A    
C146  C147  S    
C107  F5    S    
C118  O35   A    
C50   H22   S    
C43   H8    S    
C8    H65   S    
C12   H73   S    
C6    C7    S    
Cr11  O21   S    
C125  O2    A    
C120  C135  D    
C143  O50   S    
Cr3   O3    S    
C25   O59   S    
Cr3   O29   S    
C103  F12   S    
C28   H111  S    
C69   C70   A    
Cr9   O56   S    
C65   C139  S    
C14   H76   S    
C79   F25   S    
C22   C23   S    
C46   O63   S    
C96   O26   A    
C147  H75   S    
C23   H100  S    
C39   H135  S    
Cr5   O12   S    
C76   O20   A    
C117  O33   A    
C86   C126  S    
C84   C102  D    
C126  O67   A    
C122  O47   A    
C42   H4    S    
C147  C148  S    
C31   H118  S    
C4    H54   S    
C55   H36   S    
C86   C104  D    
C151  H46   S    
C13   C118  S    
C9    H67   S    
C10   H68   S    
C49   H19   S    
C91   O55   S    
C88   F35   S    
C36   C37   S    
C37   H132  S    
C3    H51   S    
C89   O53   S    
C38   C39   S    
C47   H14   S    
C33   H123  S    
C42   H5    S    
C44   H9    S    
C82   F29   S    
C17   H84   S    
C27   H106  S    
C27   H107  S    
C19   H90   S    
C68   C142  A    
C38   H133  S    
C9    C10   S    
C108  C130  S    
Cr7   O43   S    
C53   H30   S    
Cr9   O10   S    
C145  O52   S    
C60   H45   S    
C43   H6    S    
C77   F22   S    
C106  F6    S    
C95   O29   A    
C115  O31   A    
C138  F15   S    
C152  O51   S    
C54   H32   S    
C124  O45   A    
C38   O63   S    
C20   H92   S    
C131  C136  D    
C57   O64   S    
C39   C40   S    
C98   F9    S    
C25   C26   S    
C141  O49   S    
C25   H102  S    
Cr5   O37   S    
C100  O69   S    
Cr10  O67   S    
C29   C30   S    
C111  F36   S    
C31   C32   S    
C151  H35   S    
C54   O69   S    
C27   H109  S    
Cr8   O9    S    
C115  O1    A    
Cr9   O24   S    
C130  O38   A    
C10   H70   S    
C91   C100  D    
C55   H34   S    
C3    C4    S    
C90   C99   D    
C52   C53   S    
C54   C55   S    
C75   F24   S    
C144  O51   S    
C11   H71   S    
C135  O60   S    
C30   H116  S    
Cr7   O34   S    
Cr6   O11   S    
C28   O60   S    
C136  O61   S    
C36   H127  S    
C46   C63   A    
C119  O44   A    
C15   H79   S    
C71   C72   A    
C88   C105  D    
Cr11  O26   S    
C84   F32   S    
C108  F8    S    
C7    H61   S    
C34   C36   S    
C64   F20   S    
C60   H47   S    
C49   C50   S    
C91   C121  S    
C28   H110  S    
C150  C151  S    
C122  O42   A    
C55   C56   S    
Cr8   O45   S    
C41   C42   S    
C21   H95   S    
C22   H96   S    
Cr8   O44   S    
C96   C136  S    
C48   H18   S    
C98   C133  D    
C24   C117  S    
C45   H11   S    
C59   H42   S    
C28   C29   S    
C51   O68   S    
C88   C127  S    
C124  O72   A    
C129  O37   A    
C24   C73   A    
C149  H119  S    
Cr2   O6    S    
C126  O3    A    
C106  C128  S    
C18   C19   S    
C150  H13   S    
C108  C114  D    
C16   H81   S    
C37   H129  S    
C40   H137  S    
C52   H28   S    
C137  F14   S    
C111  C112  S    
C16   C17   S    
C132  O8    A    
C47   H15   S    
Cr2   O10   S    
Cr6   O42   S    
C110  C132  S    
C129  O6    A    
C57   C70   A    
C76   O16   A    
C97   C102  S    
C148  H97   S    
C34   O62   S    
C7    H60   S    
C22   H98   S    
C107  C111  D    
C30   H114  S    
C50   H23   S    
C60   H44   S    
C43   H7    S    
C67   C68   A    
C56   H37   S    
C12   H74   S    
C109  F10   S    
C18   H87   S    
C58   C59   S    
C61   O65   S    
Cr4   O4    S    
C5    O52   S    
C62   C63   A    
C62   F18   S    
C2    C115  S    
C77   C81   A    
C112  F2    S    
C109  C143  S    
C8    H63   S    
C4    H52   S    
C133  O58   S    
C92   C101  D    
C14   H77   S    
C85   F33   S    
C48   C49   S    
C11   O54   S    
C146  H53   S    
C80   F27   S    
C42   C43   S    
C150  H2    S    
C23   H99   S    
Cr10  O11   S    
C113  C114  S    
C137  C141  D    
C134  O59   S    
C149  H130  S    
C132  O39   A    
C29   H113  S    
Cr9   O46   S    
C113  F3    S    
C97   O66   S    
C116  O32   A    
C114  F4    S    
C76   C138  S    
C9    H66   S    
C93   C133  S    
C6    H58   S    
C32   C33   S    
C37   H131  S    
Cr4   O8    S    
C149  C150  S    
C79   C83   A    
C40   H139  S    
C96   O30   A    
C130  O7    A    
Cr4   O30   S    
Cr12  O27   S    
Cr12  O9    S    
Cr1   O1    S    
Cr10  O47   S    
Cr11  O71   S    
C33   H122  S    
C44   H10   S    
C125  O56   A    
C152  H48   S    
C17   H83   S    
Cr1   O36   S    
Cr2   O28   S    
C13   C74   A    
C65   O15   A    
C82   C83   A    
C19   H89   S    
C66   F21   S    
C38   H134  S    
C147  H64   S    
Cr9   O19   S    
C53   H29   S    
Cr4   O35   S    
C34   H126  S    
C118  O34   A    
C50   H21   S    
C93   O22   A    
C56   H39   S    
C85   C125  S    
C78   F26   S    
C51   H26   S    
C148  H108  S    
C106  C112  D    
C92   O57   S    
Cr7   O13   S    
C15   C16   S    
C59   H43   S    
C31   H117  S    
C5    H57   S    
C139  F16   S    
C52   H27   S    
C94   C134  S    
Cr11  O13   S    
Cr12  O31   S    
C61   C66   A    
C18   O57   S    
C8    C9    S    
Cr12  O5    S    
C51   H25   S    
C73   C78   A    
C131  C145  S    
C41   H3    S    
C75   C80   A    
Cr3   O11   S    
C39   H136  S    
C90   C122  S    
C101  O70   S    
C87   C137  S    
C58   H40   S    
C94   O28   A    
C152  H49   S    
C24   C69   A    
C101  C105  S    
C49   H20   S    
C31   O61   S    
C149  O50   S    
C2    C67   A    
C89   C123  S    
C10   H69   S    
Cr6   O38   S    
C33   H124  S    
C89   C97   D    
C32   H121  S    
C1    O14   A    
C58   H41   S    
C81   F28   S    
C72   C77   A    
C123  O48   A    
C17   H85   S    
C139  C144  D    
C121  O46   A    
C95   C135  S    
Cr8   O22   S    
C110  C113  D    
C53   H31   S    
C29   H112  S    
C12   C14   S    
C21   O58   S    
C102  F1    S    
Cr3   O33   S    
C98   C141  S    
C95   O25   A    
Cr5   O15   S    
C57   C64   A    
C61   C69   A    
C105  F31   S    
C104  F23   S    
C36   H128  S    
C58   O70   S    
C87   O17   A    
C20   H91   S    
C128  O5    A    
Cr10  O20   S    
C21   H94   S    
C80   C81   A    
C11   C12   S    
Cr11  O48   S    
C84   C124  S    
C15   O55   S    
C25   H103  S    
C140  F17   S    
C54   H33   S    
C26   H104  S    
Cr2   O2    S    
C83   F30   S    
C46   C67   A    
C146  O49   S    
C71   C75   A    
C35   C68   A    
C90   O54   S    
C35   C62   A    
C16   H82   S    
Cr8   O18   S    
C127  O4    A    
C40   H138  S    
C32   H120  S    
C26   H105  S    
C127  O71   A    
C4    H55   S    
C41   H140  S    
C8    O53   S    
C35   O62   S    
