data_mof_unit_26694.cif
_audit_creation_date              2012-12-11T17:07:31-0500
_audit_creation_method            fapswitch 2.2
_symmetry_space_group_name_H-M    P1
_symmetry_Int_Tables_number       1
_space_group_crystal_system       triclinic
_cell_length_a                    6.930303
_cell_length_b                    14.562438
_cell_length_c                    16.051541
_cell_angle_alpha                 89.964152
_cell_angle_beta                  89.720303
_cell_angle_gamma                 90.0059
_cell_volume                      1619.93572231

loop_
_atom_site_label
_atom_site_type_symbol
_atom_type_description
_atom_site_fract_x
_atom_site_fract_y
_atom_site_fract_z
_atom_type_partial_charge
O1    O     O_R   0.505720 0.583900 0.413310 -0.535373
O2    O     O_R   0.175940 0.594920 0.586080 -0.548315
O3    O     O_R   0.005640 0.416100 0.586690 -0.536541
C1    C     C_R   0.344809 0.617711 0.614439 0.691982
O4    O     O_R   0.176000 0.594930 0.413930 -0.549667
O5    O     O_R   0.005700 0.416110 0.413310 -0.515775
C2    C     C_R   0.345815 0.617810 0.385869 0.723354
O6    O     O_R   0.505660 0.583890 0.586690 -0.538491
O7    O     O_3   0.339200 0.441330 0.500000 -0.357888
V1    V     V_3+5 0.064350 0.510880 0.500000 1.417646
O8    O     O_R   0.675980 0.405080 0.413920 -0.537799
C3    C     C_R   0.845021 0.384882 0.383484 0.718132
O9    O     O_R   0.675920 0.405070 0.586070 -0.539216
C4    C     C_R   0.844729 0.382772 0.614423 0.694911
V2    V     V_3+5 0.564340 0.489120 0.500000 1.434639
O10   O     O_3   0.839360 0.558670 0.500000 -0.378756
H1    H     H_    0.704385 0.073161 0.509414 0.112995
C5    C     C_R   0.944503 0.436829 0.782155 -0.146969
C6    C     C_R   0.985754 0.465983 0.862764 -0.121200
C7    C     C_R   0.990262 0.402955 0.927730 -0.129325
C8    C     C_R   0.956830 0.310189 0.912461 -0.133366
C9    C     C_R   0.915278 0.278509 0.831180 0.071680
C10   C     C_R   0.905933 0.343381 0.764837 0.067778
C11   C     C_R   0.879672 0.184236 0.815742 -0.183299
C12   C     C_R   0.831049 0.155085 0.734126 0.066969
C13   C     C_R   0.818478 0.220230 0.668019 0.072162
C14   C     C_R   0.855554 0.314492 0.683363 -0.184198
C15   C     C_R   0.796857 0.061245 0.716490 -0.139744
C16   C     C_R   0.751069 0.032470 0.636184 -0.117138
C17   C     C_R   0.739049 0.095991 0.571739 -0.128110
C18   C     C_R   0.772540 0.188825 0.587086 -0.135673
H2    H     H_    0.942026 0.488409 0.733794 0.103707
H3    H     H_    0.012951 0.537952 0.874936 0.124060
H4    H     H_    0.019118 0.425983 0.990379 0.121472
H5    H     H_    0.961919 0.263982 0.965221 0.096149
H6    H     H_    0.806257 0.009012 0.764283 0.098160
H7    H     H_    0.725585 0.960397 0.623853 0.109831
H8    H     H_    0.763382 0.235423 0.534740 0.093759
C19   C     C_R   0.702373 0.210327 0.219255 0.126916
C20   C     C_R   0.875612 0.192247 0.177009 -0.189919
C21   C     C_R   0.032702 0.250692 0.193928 -0.280744
H9    H     H_    0.165162 0.244422 0.158329 0.148524
C22   C     C_R   0.021299 0.317721 0.257568 0.404005
C23   C     C_R   0.854900 0.323129 0.309702 -0.227130
C24   C     C_R   0.693336 0.272765 0.284394 0.087037
C25   C     C_3   0.554940 0.214765 0.332692 -0.386172
C26   C     C_3   0.562889 0.146813 0.260717 -0.422579
H10   H     H_    0.411661 0.248047 0.340015 0.211946
H11   H     H_    0.618521 0.187479 0.391112 0.152987
H12   H     H_    0.424741 0.141750 0.226146 0.171045
H13   H     H_    0.629283 0.080057 0.277264 0.156895
C27   C     C_R   0.531167 0.708864 0.719823 0.117932
C28   C     C_R   0.356762 0.690151 0.679278 -0.111256
C29   C     C_R   0.196862 0.745640 0.700318 -0.196925
H14   H     H_    0.061497 0.737931 0.667705 0.132992
C30   C     C_R   0.208397 0.809968 0.765875 -0.181662
H15   H     H_    0.081303 0.849781 0.781436 0.128881
C31   C     C_R   0.379938 0.820303 0.812322 -0.108777
C32   C     C_R   0.542493 0.772031 0.784551 0.104286
C33   C     C_3   0.680053 0.713525 0.832268 -0.423319
C34   C     C_3   0.668523 0.644790 0.761262 -0.419685
H16   H     H_    0.617224 0.687465 0.891639 0.167776
H17   H     H_    0.824421 0.745917 0.838093 0.174694
H18   H     H_    0.600113 0.578607 0.779452 0.175735
H19   H     H_    0.805693 0.638484 0.725740 0.166583
C35   C     C_R   0.532722 0.709345 0.279812 0.110517
C36   C     C_R   0.359330 0.690466 0.321592 -0.189877
C37   C     C_R   0.200878 0.747336 0.303836 -0.278162
H20   H     H_    0.067470 0.738491 0.338066 0.156117
C38   C     C_R   0.211637 0.816042 0.241762 0.415094
C39   C     C_R   0.379442 0.823215 0.190369 -0.233874
C40   C     C_R   0.541419 0.772727 0.215299 0.092636
C41   C     C_3   0.679753 0.715350 0.166297 -0.384192
C42   C     C_3   0.672195 0.646378 0.237545 -0.423304
H21   H     H_    0.823023 0.748563 0.159138 0.216725
H22   H     H_    0.616328 0.688979 0.107488 0.157568
H23   H     H_    0.810527 0.640911 0.271904 0.168584
H24   H     H_    0.606750 0.579597 0.220120 0.169081
O11   O     O_R   0.229140 0.916090 0.913340 -0.542633
O12   O     O_R   0.558860 0.905090 0.086080 -0.535695
O13   O     O_R   0.729100 0.083920 0.086690 -0.534609
C43   C     C_R   0.389679 0.884981 0.116604 0.724254
O14   O     O_R   0.558860 0.905090 0.913930 -0.543823
O15   O     O_R   0.729100 0.083920 0.913310 -0.536967
C44   C     C_R   0.390097 0.883714 0.884505 0.694874
O16   O     O_R   0.229140 0.916080 0.086720 -0.517622
O17   O     O_3   0.395570 0.058660 0.000020 -0.371823
V3    V     V_3+5 0.670450 0.989140 0.000000 1.426867
O18   O     O_R   0.058810 0.094980 0.913910 -0.539867
C45   C     C_R   0.890156 0.116354 0.884894 0.693580
O19   O     O_R   0.058810 0.094980 0.086060 -0.548596
C46   C     C_R   0.889071 0.118719 0.113430 0.709174
V4    V     V_3+5 0.170450 0.010950 0.999970 1.426985
O20   O     O_3   0.895460 0.941370 0.999990 -0.365033
O21   O     O_3   0.175372 0.376518 0.268658 -0.569804
C47   C     C_3   0.143699 0.457996 0.222329 0.102727
H25   H     H_    0.179428 0.516922 0.262861 0.136117
H26   H     H_    0.990840 0.468807 0.202374 0.083648
C48   C     C_3   0.277165 0.460347 0.146250 -0.316279
H27   H     H_    0.429104 0.451668 0.166539 0.194009
H28   H     H_    0.241335 0.402572 0.103997 0.185316
C49   C     C_3   0.257111 0.550885 0.098955 -0.862662
H29   H     H_    0.107239 0.559480 0.076053 0.230634
H30   H     H_    0.357292 0.551390 0.044763 0.232093
H31   H     H_    0.292477 0.609686 0.140092 0.241970
O22   O     O_3   0.050840 0.870345 0.228736 -0.560157
C50   C     C_3   0.071881 0.954604 0.271916 0.163369
H32   H     H_    0.969574 0.004385 0.244361 0.118626
H33   H     H_    0.218468 0.984971 0.263490 0.043594
C51   C     C_3   0.023869 0.946459 0.365324 -0.359313
H34   H     H_    0.132437 0.902686 0.396875 0.181301
H35   H     H_    0.032809 0.015904 0.393776 0.159028
C52   C     C_3   0.821901 0.907886 0.381291 -0.708250
H36   H     H_    0.710710 0.952893 0.353440 0.204165
H37   H     H_    0.795209 0.903694 0.449448 0.197626
H38   H     H_    0.807271 0.838092 0.354637 0.243648

loop_
_geom_bond_atom_site_label_1
_geom_bond_atom_site_label_2
_ccdc_geom_bond_type
O17   V3    S    
V4    O20   S    
C1    C28   S    
C21   C22   A    
C41   C42   S    
O21   C47   S    
C1    O6    A    
C28   C29   A    
C23   C24   A    
C12   C15   A    
C25   H11   S    
C13   C14   A    
C33   H17   S    
C15   C16   A    
C27   C32   A    
O11   V4    S    
C27   C34   S    
O5    C3    A    
C17   C18   A    
O22   C50   S    
V2    O10   S    
C35   C42   S    
C47   C48   S    
C30   H15   S    
C49   H31   S    
C33   H16   S    
C5    C6    A    
C21   H9    S    
C51   H34   S    
C29   H14   S    
O13   C46   A    
O8    V2    S    
C35   C40   A    
C6    C7    A    
C37   H20   S    
C42   H23   S    
C47   H26   S    
C22   O21   S    
C50   H32   S    
C38   C39   A    
O1    V2    S    
C10   C14   A    
C4    C14   S    
O7    V1    S    
O19   C46   A    
C19   C24   A    
C52   H38   S    
C7    H4    S    
C35   C36   A    
C32   C33   S    
C8    C9    A    
O18   V4    S    
H1    C17   S    
C41   H21   S    
O15   C45   A    
C26   H12   S    
C29   C30   A    
V3    O20   S    
C5    C10   A    
C11   C12   A    
O12   C43   A    
C38   O22   S    
C19   C20   A    
O4    C2    A    
C26   H13   S    
C12   C13   A    
C24   C25   S    
C36   C37   A    
C33   C34   S    
C34   H18   S    
O2    C1    A    
C22   C23   A    
C16   C17   A    
O16   V4    S    
O19   V4    S    
C48   H27   S    
C47   H25   S    
C20   C46   S    
C49   H30   S    
C51   C52   S    
O3    C4    A    
C20   C21   A    
C48   H28   S    
O6    V2    S    
O9    V2    S    
C6    H3    S    
C50   C51   S    
C9    C11   A    
C5    H2    S    
O2    V1    S    
C31   C44   S    
O11   C44   A    
C27   C28   A    
C19   C26   S    
C52   H36   S    
C25   C26   S    
O14   C44   A    
O1    C2    A    
O15   V3    S    
C40   C41   S    
C11   C45   S    
O5    V1    S    
O8    C3    A    
C8    H5    S    
C18   H8    S    
C39   C43   S    
C31   C32   A    
O4    V1    S    
O12   V3    S    
O3    V1    S    
V1    O10   S    
C43   O16   A    
C50   H33   S    
O17   V4    S    
C41   H22   S    
C30   C31   A    
O14   V3    S    
O7    V2    S    
C49   H29   S    
C51   H35   S    
O13   V3    S    
C2    C36   S    
C25   H10   S    
C34   H19   S    
C13   C18   A    
C48   C49   S    
C39   C40   A    
C7    C8    A    
C15   H6    S    
C37   C38   A    
C42   H24   S    
C16   H7    S    
C9    C10   A    
C3    C23   S    
O18   C45   A    
O9    C4    A    
C52   H37   S    
