data_mof_unit_26335.cif
_audit_creation_date              2012-10-26T18:55:17-0400
_audit_creation_method            fapswitch 2.2
_symmetry_space_group_name_H-M    P1
_symmetry_Int_Tables_number       1
_space_group_crystal_system       triclinic
_cell_length_a                    12.721457
_cell_length_b                    13.847069
_cell_length_c                    27.505954
_cell_angle_alpha                 90.388089
_cell_angle_beta                  92.565303
_cell_angle_gamma                 98.388696
_cell_volume                      4788.23150902

loop_
_atom_site_label
_atom_site_type_symbol
_atom_type_description
_atom_site_fract_x
_atom_site_fract_y
_atom_site_fract_z
_atom_type_partial_charge
C1    C     C_R   0.483276 0.315737 0.499438 0.561636
C2    C     C_R   0.364226 0.488590 0.869862 0.038738
C3    C     C_R   0.508418 0.331241 0.789274 -0.104431
C4    C     C_R   0.404727 0.627358 0.242830 0.057781
C5    C     C_R   0.318398 0.591298 0.210964 -0.101883
C6    C     C_R   0.273131 0.654485 0.179623 -0.116326
C7    C     C_R   0.313534 0.753918 0.179967 -0.110694
C8    C     C_R   0.398905 0.790462 0.211881 -0.121997
C9    C     C_R   0.444440 0.727499 0.243259 -0.048668
C10   C     C_3   0.194733 0.266195 0.879856 0.009488
C11   C     C_3   0.112896 0.212510 0.843383 -0.360516
C12   C     C_3   0.650691 0.820883 0.130525 0.008789
C13   C     C_R   0.504136 0.497161 0.353607 -0.064362
C14   C     C_3   0.704031 0.886330 0.171844 -0.355346
C15   C     C_R   0.390084 0.261526 0.008191 0.028166
C16   C     C_R   0.474723 0.243122 0.980019 -0.095533
C17   C     C_R   0.464876 0.159441 0.950473 -0.114915
C18   C     C_R   0.370606 0.093432 0.948775 -0.106981
C19   C     C_R   0.285896 0.111135 0.976530 -0.129324
C20   C     C_R   0.295297 0.194846 0.006063 -0.111254
C21   C     C_R   0.554550 0.809588 0.980616 0.018768
C22   C     C_R   0.648893 0.877023 0.981393 -0.108736
C23   C     C_R   0.654489 0.966917 0.005537 -0.127619
C24   C     C_R   0.496988 0.507765 0.646212 -0.065813
C25   C     C_R   0.566742 0.989941 0.029559 -0.111463
C26   C     C_R   0.473378 0.922894 0.029736 -0.123203
C27   C     C_R   0.467128 0.833140 0.005356 -0.103675
C28   C     C_R   0.348059 0.965780 0.510085 0.036917
C29   C     C_R   0.268810 0.986945 0.476142 -0.106700
C30   C     C_R   0.164986 0.937385 0.477368 -0.131193
C31   C     C_R   0.139170 0.866335 0.512399 -0.101865
C32   C     C_R   0.216823 0.845494 0.546656 -0.103369
C33   C     C_R   0.320481 0.895471 0.545874 -0.092649
C34   C     C_R   0.657116 0.033161 0.519673 0.034635
C35   C     C_R   0.400519 0.464751 0.970499 -0.023837
C36   C     C_R   0.740580 0.003282 0.494052 -0.116161
C37   C     C_R   0.844597 0.051824 0.501098 -0.134940
C38   C     C_R   0.866789 0.130245 0.533943 -0.109164
C39   C     C_R   0.785292 0.159399 0.560316 -0.109366
C40   C     C_R   0.681340 0.110584 0.553715 -0.090667
C41   C     C_R   0.536910 0.607019 0.025864 -0.027425
C42   C     C_R   0.513927 0.624039 0.975581 0.005020
C43   C     C_R   0.428049 0.445092 0.019614 0.004477
C44   C     C_R   0.452175 0.548365 0.947652 0.004563
C45   C     C_R   0.489970 0.519724 0.048036 0.004667
C46   C     C_R   0.314295 0.408428 0.944970 -0.129369
C47   C     C_R   0.516867 0.684166 0.500992 0.553892
C48   C     C_R   0.612681 0.670692 0.053883 -0.133821
C49   C     C_R   0.295973 0.417927 0.894623 0.275310
C50   C     C_R   0.624755 0.662066 0.104227 0.268124
C51   C     C_R   0.500966 0.499596 0.407126 0.552765
C52   C     C_R   0.499185 0.501858 0.592810 0.557792
C53   C     C_R   0.403094 0.350656 0.040135 -0.039494
C54   C     C_R   0.544044 0.715646 0.952508 -0.035639
C55   C     C_1   0.527430 0.787242 0.504469 -0.025430
C56   C     C_1   0.473600 0.212532 0.501712 -0.015465
C57   C     C_2   0.546905 0.978408 0.513235 -0.021438
C58   C     C_R   0.507143 0.506314 0.098724 -0.092361
C59   C     C_2   0.457653 0.021738 0.510019 -0.022360
C60   C     C_1   0.466008 0.125666 0.504971 -0.065937
C61   C     C_1   0.536983 0.874179 0.508317 -0.071702
C62   C     C_2   0.029481 0.489586 0.480412 0.243650
C63   C     C_2   0.970063 0.506693 0.518833 0.243988
C64   C     C_1   0.853598 0.512112 0.511558 0.146292
C65   C     C_1   0.146206 0.486254 0.488086 0.160672
C66   C     C_R   0.464714 0.416459 0.172557 0.417914
C67   C     C_R   0.480880 0.637924 0.821155 0.427668
C68   C     C_R   0.579357 0.568742 0.177936 0.404346
C69   C     C_R   0.437438 0.557587 0.896780 -0.096206
C70   C     C_R   0.362242 0.493970 0.818711 0.429303
C71   C     C_R   0.457351 0.559343 0.273791 -0.028106
C72   C     C_R   0.442580 0.436651 0.724176 -0.016754
C73   C     C_R   0.452844 0.562577 0.324973 -0.076006
C74   C     C_R   0.446826 0.428462 0.672729 -0.075766
C75   C     C_R   0.558468 0.428378 0.330807 -0.060182
C76   C     C_R   0.551490 0.590108 0.671427 -0.054391
C77   C     C_R   0.565702 0.427833 0.280026 0.298148
C78   C     C_R   0.549104 0.595583 0.722153 0.297766
C79   C     C_R   0.514416 0.492309 0.251560 0.208033
C80   C     C_R   0.460287 0.419761 0.121026 -0.006818
C81   C     C_R   0.474804 0.529780 0.747383 0.145353
C82   C     C_R   0.602730 0.352071 0.359184 0.065092
C83   C     C_R   0.543124 0.258979 0.362681 -0.067343
C84   C     C_R   0.585051 0.186103 0.388839 -0.119508
C85   C     C_R   0.686365 0.206013 0.411621 -0.109161
C86   C     C_R   0.745846 0.298658 0.408512 -0.099838
C87   C     C_R   0.704520 0.371526 0.382103 -0.058361
C88   C     C_R   0.610352 0.673727 0.646034 0.079072
C89   C     C_R   0.567852 0.761611 0.642448 -0.064729
C90   C     C_R   0.626135 0.843560 0.622024 -0.109161
C91   C     C_R   0.489334 0.639299 0.872760 -0.015408
C92   C     C_R   0.726772 0.838084 0.604767 -0.097978
C93   C     C_R   0.769583 0.750880 0.608267 -0.109281
C94   C     C_R   0.712050 0.669031 0.629264 -0.053105
C95   C     C_3   0.954946 0.529067 0.602771 -0.024864
C96   C     C_3   0.019176 0.537493 0.650981 -0.360535
C97   C     C_3   0.045705 0.459909 0.397201 -0.021696
C98   C     C_3   0.984108 0.451421 0.348290 -0.389659
C99   C     C_3   0.724364 0.401181 0.251722 0.001430
C100  C     C_3   0.788392 0.320679 0.239164 -0.376599
C101  C     C_3   0.707551 0.602418 0.765474 -0.005859
C102  C     C_R   0.413622 0.339419 0.091161 -0.023295
C103  C     C_3   0.816982 0.663376 0.764270 -0.371328
C104  C     C_R   0.388515 0.240499 0.111858 0.095173
C105  C     C_R   0.284314 0.204787 0.124317 -0.053709
C106  C     C_R   0.261010 0.111372 0.143591 -0.100653
C107  C     C_R   0.341497 0.053449 0.150661 -0.101006
C108  C     C_R   0.445466 0.088762 0.138495 -0.106852
C109  C     C_R   0.469121 0.182137 0.119162 -0.053130
C110  C     C_R   0.592976 0.809477 0.877429 0.090105
C111  C     C_R   0.541326 0.892102 0.872561 -0.042671
C112  C     C_R   0.593521 0.977122 0.852209 -0.103419
C113  C     C_R   0.540762 0.720202 0.900953 -0.022845
C114  C     C_R   0.696560 0.979827 0.836148 -0.095342
C115  C     C_R   0.747964 0.897564 0.840621 -0.099522
C116  C     C_R   0.696478 0.812571 0.861278 -0.059804
C117  C     C_R   0.402981 0.336159 0.646699 0.031448
C118  C     C_R   0.460823 0.257209 0.646398 -0.097821
C119  C     C_R   0.415629 0.168312 0.624643 -0.116245
C120  C     C_R   0.313598 0.158432 0.602356 -0.105199
C121  C     C_R   0.256670 0.237431 0.601595 -0.110436
C122  C     C_R   0.300900 0.325982 0.623864 -0.068507
C123  C     C_R   0.395101 0.635197 0.348007 0.057727
C124  C     C_R   0.571153 0.579807 0.127186 0.037011
C125  C     C_R   0.451569 0.716439 0.373213 -0.088449
C126  C     C_R   0.397321 0.788579 0.391626 -0.105234
C127  C     C_R   0.286682 0.779418 0.385486 -0.089039
C128  C     C_R   0.230012 0.698398 0.360763 -0.115765
C129  C     C_R   0.283932 0.626489 0.341965 -0.079141
C130  C     C_R   0.429161 0.345861 0.753847 0.077115
C131  C     C_R   0.339291 0.273713 0.747050 -0.024032
C132  C     C_R   0.330474 0.188280 0.774202 -0.112834
C133  C     C_R   0.409147 0.175085 0.809475 -0.112084
C134  C     C_R   0.497922 0.246609 0.817148 -0.118734
Cu1   Cu    Cu3+1 0.395330 0.493960 0.496930 0.992255
Cu2   Cu    Cu3+1 0.604670 0.506040 0.503070 0.973351
H1    H     H_    0.257622 0.360685 0.964944 0.113385
H2    H     H_    0.771848 0.901537 0.588949 0.129334
H3    H     H_    0.847873 0.747353 0.595198 0.092550
H4    H     H_    0.746844 0.602506 0.633064 0.093173
H5    H     H_    0.891497 0.464755 0.604445 0.129119
H6    H     H_    0.919126 0.597025 0.597852 0.123053
H7    H     H_    0.082786 0.601594 0.650665 0.163978
H8    H     H_    0.966261 0.546878 0.681176 0.093095
H9    H     H_    0.056047 0.470413 0.657199 0.164163
H10   H     H_    0.078253 0.390460 0.403682 0.133344
H11   H     H_    0.111845 0.521530 0.395179 0.144278
H12   H     H_    0.666152 0.726974 0.037313 0.131960
H13   H     H_    0.945992 0.517699 0.341793 0.156954
H14   H     H_    0.039123 0.443843 0.318727 0.098039
H15   H     H_    0.922067 0.386127 0.347476 0.144956
H16   H     H_    0.762028 0.439160 0.285381 0.111057
H17   H     H_    0.728631 0.453993 0.221370 0.167607
H18   H     H_    0.754570 0.282281 0.205142 0.159850
H19   H     H_    0.872311 0.352550 0.233840 0.092857
H20   H     H_    0.786440 0.267411 0.269249 0.160061
H21   H     H_    0.710887 0.533379 0.744641 0.093431
H22   H     H_    0.690479 0.583547 0.803816 0.131876
H23   H     H_    0.464530 0.242997 0.345102 0.119668
H24   H     H_    0.818423 0.733089 0.784503 0.161274
H25   H     H_    0.877738 0.622539 0.781203 0.099400
H26   H     H_    0.837009 0.679682 0.726017 0.150743
H27   H     H_    0.221561 0.249327 0.119080 0.093939
H28   H     H_    0.180601 0.083919 0.153108 0.099760
H29   H     H_    0.323249 0.981350 0.165673 0.096669
H30   H     H_    0.507604 0.043698 0.143960 0.092157
H31   H     H_    0.549843 0.208937 0.109755 0.091474
H32   H     H_    0.461707 0.890913 0.885158 0.100837
H33   H     H_    0.554612 0.041180 0.849178 0.090011
H34   H     H_    0.539063 0.114274 0.391504 0.108117
H35   H     H_    0.736718 0.045807 0.820434 0.101974
H36   H     H_    0.827984 0.899944 0.828410 0.093810
H37   H     H_    0.737368 0.749552 0.865254 0.089996
H38   H     H_    0.539546 0.263972 0.663926 0.103304
H39   H     H_    0.459401 0.106896 0.625196 0.103218
H40   H     H_    0.278586 0.089611 0.585652 0.127932
H41   H     H_    0.177795 0.229714 0.584223 0.106690
H42   H     H_    0.255187 0.386139 0.623992 0.134626
H43   H     H_    0.537456 0.724791 0.377649 0.096746
H44   H     H_    0.441040 0.852143 0.410177 0.110942
H45   H     H_    0.719013 0.149656 0.431514 0.133233
H46   H     H_    0.244885 0.835484 0.399440 0.121205
H47   H     H_    0.144367 0.691759 0.355781 0.107788
H48   H     H_    0.239422 0.564662 0.322220 0.098607
H49   H     H_    0.275155 0.284111 0.721382 0.126059
H50   H     H_    0.261558 0.132910 0.768482 0.097032
H51   H     H_    0.400241 0.109914 0.831233 0.098955
H52   H     H_    0.558813 0.236405 0.844597 0.097173
H53   H     H_    0.578340 0.385478 0.795327 0.083959
H54   H     H_    0.286963 0.514260 0.210133 0.125527
H55   H     H_    0.207088 0.626276 0.154876 0.111497
H56   H     H_    0.824070 0.313727 0.426418 0.149350
H57   H     H_    0.278762 0.802457 0.155397 0.100677
H58   H     H_    0.430603 0.867363 0.211973 0.097936
H59   H     H_    0.511825 0.756286 0.267179 0.120648
H60   H     H_    0.164201 0.250820 0.916617 0.117778
H61   H     H_    0.271265 0.237091 0.876664 0.149761
H62   H     H_    0.134287 0.232196 0.805689 0.179445
H63   H     H_    0.109336 0.132449 0.847780 0.079849
H64   H     H_    0.033192 0.232822 0.849528 0.148149
H65   H     H_    0.563267 0.809413 0.135849 0.133427
H66   H     H_    0.666562 0.859182 0.095693 0.137659
H67   H     H_    0.751234 0.443122 0.379740 0.133284
H68   H     H_    0.791300 0.900613 0.167569 0.157521
H69   H     H_    0.672343 0.956932 0.171460 0.076495
H70   H     H_    0.687809 0.850646 0.207321 0.183586
H71   H     H_    0.548509 0.293394 0.981205 0.105988
H72   H     H_    0.530550 0.145501 0.929083 0.101345
H73   H     H_    0.363202 0.028626 0.925936 0.103292
H74   H     H_    0.212642 0.060260 0.974939 0.101723
H75   H     H_    0.228185 0.208607 0.026496 0.094279
H76   H     H_    0.717942 0.859864 0.963402 0.106635
H77   H     H_    0.726979 0.018689 0.005702 0.104012
H78   H     H_    0.490206 0.766853 0.655998 0.117108
H79   H     H_    0.571221 0.059699 0.048060 0.114125
H80   H     H_    0.405510 0.940842 0.048412 0.119004
H81   H     H_    0.393713 0.782461 0.005175 0.112582
H82   H     H_    0.287459 0.041444 0.448560 0.105984
H83   H     H_    0.104598 0.953833 0.450999 0.099904
H84   H     H_    0.058850 0.827839 0.513179 0.112184
H85   H     H_    0.196473 0.791157 0.574111 0.119956
H86   H     H_    0.378788 0.880187 0.573577 0.103195
H87   H     H_    0.725120 0.943079 0.468154 0.110590
H88   H     H_    0.907973 0.028763 0.480953 0.105672
H89   H     H_    0.593268 0.911294 0.619556 0.107769
H90   H     H_    0.947281 0.167937 0.539237 0.109189
H91   H     H_    0.802834 0.219340 0.586264 0.106166
H92   H     H_    0.620406 0.132509 0.575764 0.104750
N1    N     N_R   0.521484 0.491245 0.199441 -0.390753
N2    N     N_R   0.442139 0.552481 0.796579 -0.398133
N3    N     N_1   0.238040 0.484880 0.492320 -0.206785
N4    N     N_1   0.761960 0.515120 0.507680 -0.211812
O1    O     O_R   0.399110 0.356330 0.497030 -0.491928
O2    O     O_2   0.499925 0.721765 0.796461 -0.435486
O3    O     O_2   0.280251 0.445205 0.791730 -0.454667
O4    O     O_2   0.642477 0.635623 0.206109 -0.479168
O5    O     O_3   0.023066 0.517660 0.564708 -0.593876
O6    O     O_3   0.977305 0.477392 0.434352 -0.607843
O7    O     O_3   0.617752 0.359525 0.257906 -0.525277
O8    O     O_3   0.630251 0.657554 0.746324 -0.498704
O9    O     O_3   0.206366 0.367204 0.870181 -0.511816
O10   O     O_3   0.693436 0.732132 0.130648 -0.513655
O11   O     O_R   0.600890 0.643670 0.502970 -0.490039
O12   O     O_R   0.575890 0.366530 0.502210 -0.483154
O13   O     O_R   0.424110 0.633470 0.497790 -0.479489
O14   O     O_R   0.411620 0.494910 0.427670 -0.488570
O15   O     O_R   0.588380 0.505090 0.572330 -0.504158
O16   O     O_R   0.588400 0.505120 0.432860 -0.492269
O17   O     O_R   0.411600 0.494880 0.567140 -0.483481
O18   O     O_2   0.409869 0.341473 0.195963 -0.479331

loop_
_geom_bond_atom_site_label_1
_geom_bond_atom_site_label_2
_ccdc_geom_bond_type
C24   C52   S    
C99   H16   S    
C107  H29   S    
C67   O2    S    
C93   C94   A    
C3    C130  A    
C94   H4    S    
C41   C42   A    
Cu1   O13   S    
C90   H89   S    
C111  C112  A    
C78   C81   A    
C16   H71   S    
C92   H2    S    
C128  C129  A    
C68   C124  A    
C71   C79   A    
C97   C98   S    
C7    C8    A    
C31   C32   A    
C85   C86   A    
C120  C121  A    
C96   H9    S    
C10   O9    S    
C66   N1    A    
C26   C27   A    
C37   C38   A    
C116  H37   S    
C34   C40   A    
C15   C53   S    
C28   C29   A    
C1    O12   A    
C1    C56   S    
C76   C78   A    
C5    H54   S    
C84   H34   S    
C3    H53   S    
C93   H3    S    
C98   H14   S    
C5    C6    A    
C103  H24   S    
C123  C125  A    
C106  C107  A    
C82   C87   A    
C19   H74   S    
C54   C113  A    
C48   H12   S    
C108  C109  A    
Cu2   O16   S    
C26   H80   S    
C18   C19   A    
C95   O5    S    
C20   H75   S    
C57   C61   S    
C110  C111  A    
C79   N1    S    
C109  H31   S    
C119  H39   S    
C13   C51   S    
C130  C131  A    
C43   C53   A    
C83   C84   A    
C67   N2    A    
C1    O1    A    
C8    C9    A    
C73   C123  S    
C22   H76   S    
C6    H55   S    
C125  H43   S    
C34   C57   S    
C85   H45   S    
C107  C108  A    
Cu1   O1    S    
C126  H44   S    
C72   C130  S    
C106  H28   S    
C7    H57   S    
C2    C69   A    
C35   C43   A    
C52   O17   A    
C76   C88   S    
C39   H91   S    
C72   C81   A    
Cu2   O11   S    
C58   C80   A    
C38   H90   S    
C99   O7    S    
C33   H86   S    
C100  H20   S    
C48   C50   A    
C21   C27   A    
C101  H21   S    
C59   C60   S    
C101  C103  S    
Cu1   N3    S    
C21   C22   A    
C118  C119  A    
C101  O8    S    
C97   H11   S    
Cu1   O14   S    
C114  H35   S    
C128  H47   S    
C42   C44   A    
Cu1   O17   S    
C87   H67   S    
C104  C105  A    
C120  H40   S    
C32   H85   S    
C98   H15   S    
C77   C79   A    
C15   C20   A    
C88   C94   A    
C45   C58   A    
C103  H25   S    
C67   C91   A    
C65   N3    T    
C117  C118  A    
C13   C75   A    
Cu1   Cu2   S    
C51   O14   A    
C50   C124  A    
C84   C85   A    
C72   C74   A    
C132  H50   S    
C39   C40   A    
C64   N4    T    
Cu2   O12   S    
C86   C87   A    
C16   C17   A    
C121  H41   S    
C66   O18   S    
C25   C26   A    
C56   C60   T    
Cu2   O15   S    
C14   H68   S    
C38   C39   A    
C40   H92   S    
C102  C104  S    
C117  C122  A    
C70   N2    A    
C63   O5    S    
C29   C30   A    
C97   O6    S    
C2    C49   A    
C134  H52   S    
C96   H8    S    
C133  C134  A    
C43   C45   A    
C90   C92   A    
C112  H33   S    
C110  C113  S    
C25   H79   S    
C53   C102  A    
C18   H73   S    
C62   C63   D    
C105  H27   S    
C17   C18   A    
C44   C69   A    
C12   H65   S    
C8    H58   S    
C35   C44   A    
C75   C77   A    
C36   H87   S    
C121  C122  A    
C46   H1    S    
C112  C114  A    
C131  H49   S    
C100  H19   S    
C29   H82   S    
C129  H48   S    
C68   O4    S    
C28   C33   A    
C95   H5    S    
C12   O10   S    
C81   N2    S    
C14   H70   S    
C125  C126  A    
C11   H64   S    
C46   C49   A    
C55   C61   T    
C127  C128  A    
C52   O15   A    
C110  C116  A    
C47   O13   A    
C68   N1    A    
C47   C55   S    
C31   H84   S    
C23   H77   S    
C28   C59   S    
C100  H18   S    
C80   C102  A    
C122  H42   S    
C74   C117  S    
C108  H30   S    
C36   C37   A    
C103  H26   S    
C78   O8    S    
C62   C65   S    
C13   C73   A    
C86   H56   S    
C10   H61   S    
C17   H72   S    
C24   C76   A    
C37   H88   S    
C12   C14   S    
C115  H36   S    
C50   O10   S    
C101  H22   S    
C49   O9    S    
C119  C120  A    
C9    H59   S    
C75   C82   S    
C114  C115  A    
C6    C7    A    
C66   C80   A    
C105  C106  A    
C58   C124  A    
C62   O6    S    
C99   C100  S    
C21   C54   S    
C3    C134  A    
C32   C33   A    
C19   C20   A    
C51   O16   A    
C89   C90   A    
C11   H62   S    
C12   H66   S    
C69   C91   A    
C10   H60   S    
C42   C54   A    
C96   H7    S    
C47   O11   A    
C30   C31   A    
C24   C74   A    
C115  C116  A    
C104  C109  A    
C126  C127  A    
C99   H17   S    
C92   C93   A    
C41   C48   A    
C132  C133  A    
C34   C36   A    
C70   O3    S    
C23   C25   A    
C131  C132  A    
C11   H63   S    
C27   H81   S    
C57   C59   D    
C10   C11   S    
C133  H51   S    
C63   C64   S    
C97   H10   S    
C91   C113  A    
C4    C5    A    
C83   H23   S    
C88   C89   A    
C118  H38   S    
C95   H6    S    
C82   C83   A    
C14   H69   S    
C71   C73   A    
C95   C96   S    
C77   O7    S    
C127  H46   S    
C41   C45   A    
C22   C23   A    
C89   H78   S    
C111  H32   S    
C4    C9    A    
C2    C70   A    
C35   C46   A    
C4    C71   S    
C123  C129  A    
C15   C16   A    
C30   H83   S    
Cu2   N4    S    
C98   H13   S    
