data_mof_unit_20849.cif
_audit_creation_date              2012-12-11T19:42:20-0500
_audit_creation_method            fapswitch 2.2
_symmetry_space_group_name_H-M    P1
_symmetry_Int_Tables_number       1
_space_group_crystal_system       triclinic
_cell_length_a                    8.186479
_cell_length_b                    15.08704
_cell_length_c                    26.971471
_cell_angle_alpha                 98.589956
_cell_angle_beta                  92.775923
_cell_angle_gamma                 81.058795
_cell_volume                      3252.76092112

loop_
_atom_site_label
_atom_site_type_symbol
_atom_type_description
_atom_site_fract_x
_atom_site_fract_y
_atom_site_fract_z
_atom_type_partial_charge
Ba1   Ba    Ba6+2 0.860050 0.456430 0.522530 1.638273
Ba2   Ba    Ba6+2 0.329780 0.543490 0.477460 1.635348
C1    C     C_3   0.694088 0.136957 0.650432 -0.366457
C2    C     C_R   0.899649 0.588845 0.179323 0.571826
C3    C     C_2   0.751899 0.557680 0.273085 -0.084549
C4    C     C_3   0.193206 0.257751 0.655166 0.283187
C5    C     C_3   0.731165 0.588516 0.328458 -0.045886
C6    C     C_1   0.984109 0.484513 0.342498 0.034522
C7    C     C_2   0.026051 0.480125 0.294666 -0.105749
C8    C     C_2   0.902107 0.516316 0.256241 0.191504
C9    C     C_R   0.023340 0.508234 0.101519 -0.079515
C10   C     C_R   0.070057 0.431538 0.125980 -0.036282
C11   C     C_R   0.156957 0.353262 0.098944 -0.060182
C12   C     C_3   0.687734 0.227779 0.631862 0.338440
C13   C     C_R   0.936944 0.587053 0.128538 -0.024033
C14   C     C_2   0.844004 0.531179 0.360658 -0.291193
C15   C     C_2   0.357809 0.481948 0.640670 -0.335170
C16   C     C_3   0.158657 0.242408 0.707795 -0.332518
C17   C     C_R   0.199321 0.426749 0.972700 0.019662
C18   C     C_R   0.044894 0.580999 0.973991 0.021132
C19   C     C_R   0.142246 0.503274 0.947994 0.053368
C20   C     C_R   0.300328 0.352425 0.945451 -0.095746
C21   C     C_R   0.341157 0.352670 0.895861 -0.059024
C22   C     C_R   0.283341 0.426862 0.870806 -0.049484
C23   C     C_3   0.483002 0.687395 0.632121 0.303799
C24   C     C_R   0.183213 0.502221 0.896745 -0.074454
C25   C     C_R   0.124501 0.576714 0.871487 -0.035364
C26   C     C_R   0.167372 0.575318 0.821086 0.574746
C27   C     C_R   0.324231 0.427153 0.820356 0.640435
C28   C     C_3   0.217412 0.264933 0.412398 0.314618
C29   C     C_2   0.468867 0.490392 0.729642 0.412151
C30   C     C_3   0.508247 0.490853 0.674725 -0.115385
C31   C     C_1   0.211240 0.519316 0.657319 0.048193
C32   C     C_2   0.173562 0.517764 0.704541 -0.172992
C33   C     C_2   0.308172 0.500790 0.743649 0.163492
C34   C     C_3   0.449608 0.724384 0.686909 -0.375847
C35   C     C_R   0.154879 0.427203 0.023541 0.019508
C36   C     C_R   0.062932 0.506319 0.050053 0.050116
C37   C     C_R   0.010255 0.583744 0.025719 0.019796
C38   C     C_R   0.198715 0.351046 0.049125 -0.098744
C39   C     C_R   0.890231 0.663567 0.104482 -0.059844
C40   C     C_3   0.237736 0.162514 0.397468 -0.387652
C41   C     C_R   0.984659 0.653529 0.946972 -0.097889
C42   C     C_R   0.023879 0.651353 0.897103 -0.069899
C43   C     C_R   0.925712 0.662113 0.054449 -0.102277
C44   C     C_R   0.842381 0.831008 0.463884 -0.001671
C45   C     C_3   0.033258 0.734609 0.343596 0.340791
C46   C     C_R   0.776819 0.924323 0.468323 -0.031445
C47   C     C_R   0.643210 0.111798 0.479580 -0.032952
C48   C     C_R   0.785108 0.077256 0.451153 -0.043777
C49   C     C_R   0.852609 0.985785 0.446585 -0.100666
C50   C     C_R   0.577727 0.205452 0.487032 0.048350
C51   C     C_R   0.434065 0.235287 0.514337 -0.296988
C52   C     C_3   0.977699 0.733944 0.585400 0.307560
C53   C     C_R   0.614371 0.803594 0.510879 0.027479
C54   C     C_R   0.549448 0.896314 0.517234 -0.029372
C55   C     C_R   0.629404 0.956901 0.495220 0.010729
C56   C     C_3   0.046454 0.757645 0.291075 -0.312852
C57   C     C_R   0.407070 0.930100 0.545207 -0.044606
C58   C     C_R   0.340426 0.020803 0.549896 -0.103577
C59   C     C_R   0.416500 0.082176 0.528313 -0.033040
C60   C     C_R   0.563692 0.050484 0.501279 0.009948
C61   C     C_R   0.349390 0.174477 0.533108 -0.006539
C62   C     C_R   0.755399 0.771689 0.482945 -0.301383
C63   C     C_3   0.953253 0.836517 0.599833 -0.385319
C64   C     C_3   0.694318 0.343623 0.371995 0.299915
C65   C     C_3   0.701093 0.320945 0.315197 -0.363791
C66   C     C_3   0.669677 0.561965 0.771981 0.183923
C67   C     C_3   0.487880 0.786423 0.368471 0.367750
C68   C     C_3   0.435546 0.878526 0.351371 -0.367395
C69   C     C_R   0.027801 0.434324 0.176803 0.598045
H1    H     H_    0.802407 0.225870 0.611157 0.108260
H2    H     H_    0.593632 0.401180 0.381417 0.080194
H3    H     H_    0.702977 0.081731 0.617993 0.074900
H4    H     H_    0.806843 0.266778 0.304574 0.134183
H5    H     H_    0.716566 0.381803 0.298502 0.069457
H6    H     H_    0.584283 0.297433 0.299911 0.134215
H7    H     H_    0.578781 0.237348 0.606201 -0.037438
H8    H     H_    0.580392 0.136166 0.671113 0.125088
H9    H     H_    0.366692 0.667348 0.614298 0.032887
H10   H     H_    0.581307 0.627434 0.629869 0.031086
H11   H     H_    0.359633 0.788016 0.689583 0.141404
H12   H     H_    0.325241 0.141370 0.366194 0.127657
H13   H     H_    0.396383 0.674724 0.705210 0.059611
H14   H     H_    0.566511 0.738554 0.706984 0.113996
H15   H     H_    0.803922 0.124800 0.675709 0.134738
H16   H     H_    0.206898 0.294397 0.735571 0.124116
H17   H     H_    0.117478 0.670359 0.346919 0.092517
H18   H     H_    0.903804 0.725498 0.348840 -0.052784
H19   H     H_    0.159441 0.788388 0.287975 0.148765
H20   H     H_    0.054417 0.694772 0.263701 0.118363
H21   H     H_    0.936708 0.806190 0.281856 0.119476
H22   H     H_    0.625317 0.772984 0.368959 -0.069349
H23   H     H_    0.286532 0.127629 0.429620 0.060507
H24   H     H_    0.443773 0.789996 0.407140 0.078942
H25   H     H_    0.492580 0.930934 0.376776 0.068060
H26   H     H_    0.299144 0.897339 0.352275 0.148535
H27   H     H_    0.140417 0.328759 0.651258 0.077937
H28   H     H_    0.477078 0.876802 0.312603 0.122212
H29   H     H_    0.151273 0.452282 0.283476 0.134373
H30   H     H_    0.193876 0.292741 0.116351 0.121828
H31   H     H_    0.419268 0.293810 0.877099 0.121678
H32   H     H_    0.352691 0.292888 0.961563 0.068769
H33   H     H_    0.263877 0.287521 0.031513 0.069254
H34   H     H_    0.116207 0.141462 0.385309 0.120645
H35   H     H_    0.654687 0.581540 0.247333 0.120462
H36   H     H_    0.825182 0.725760 0.124401 0.122746
H37   H     H_    0.904144 0.713183 0.962971 0.068671
H38   H     H_    0.328979 0.247718 0.650358 -0.008714
H39   H     H_    0.974439 0.709123 0.878567 0.118716
H40   H     H_    0.045398 0.530444 0.715430 0.134643
H41   H     H_    0.887219 0.724809 0.039772 0.069182
H42   H     H_    0.824877 0.544765 0.400776 0.083304
H43   H     H_    0.370540 0.446710 0.602552 0.089914
H44   H     H_    0.847289 0.120003 0.432189 0.102963
H45   H     H_    0.858712 0.711952 0.572670 0.004088
H46   H     H_    0.963544 0.963864 0.425194 0.105770
H47   H     H_    0.229202 0.041719 0.571168 0.111392
H48   H     H_    0.342886 0.887258 0.563511 0.103267
H49   H     H_    0.382814 0.306481 0.518795 0.070299
H50   H     H_    0.023226 0.248109 0.712578 0.149512
H51   H     H_    0.804724 0.700254 0.479269 0.065995
H52   H     H_    0.219394 0.174025 0.714592 0.117398
H53   H     H_    0.339674 0.285281 0.422533 0.002273
H54   H     H_    0.135323 0.283724 0.445050 0.068155
H55   H     H_    0.813609 0.363186 0.386825 0.011484
H56   H     H_    0.066204 0.715270 0.554463 0.077558
H57   H     H_    0.728630 0.571075 0.737170 0.027756
H58   H     H_    0.768474 0.556129 0.801459 0.082073
H59   H     H_    0.578288 0.622780 0.784879 0.023895
H60   H     H_    0.857484 0.857594 0.628794 0.133501
H61   H     H_    0.913305 0.870524 0.566689 0.062462
H62   H     H_    0.071417 0.858611 0.614929 0.117492
N1    N     N_R   0.943807 0.512751 0.203389 -0.421475
N2    N     N_R   0.266240 0.500969 0.795850 -0.414464
O1    O     O_2   0.906480 0.548660 0.619050 -0.470124
O2    O     O_2   0.184208 0.824529 0.471615 -0.486660
O3    O     O_3   0.078984 0.805224 0.378794 -0.609186
O4    O     O_3   0.138490 0.548590 0.558870 -0.491838
O5    O     O_3   0.572560 0.389960 0.472890 -0.488631
O6    O     O_2   0.345660 0.723580 0.528500 -0.470579
O7    O     O_3   0.536062 0.755007 0.609328 -0.645619
O8    O     O_2   0.403915 0.544427 0.323645 -0.499606
O9    O     O_3   0.418625 0.719299 0.335777 -0.592732
O10   O     O_2   0.063931 0.366342 0.196977 -0.597023
O11   O     O_2   0.411113 0.361329 0.798222 -0.566256
O12   O     O_3   0.665268 0.266927 0.391637 -0.639501
O13   O     O_2   0.828571 0.659168 0.202212 -0.620855
O14   O     O_2   0.118383 0.641066 0.799916 -0.606838
O15   O     O_3   0.686300 0.382310 0.585700 -0.492133
O16   O     O_2   0.852452 0.424733 0.670165 -0.487178
O17   O     O_3   0.036739 0.694041 0.627581 -0.626157
O18   O     O_3   0.673794 0.297685 0.672829 -0.577000
O19   O     O_2   0.844040 0.276390 0.471470 -0.469096
O20   O     O_3   0.101510 0.335500 0.560330 -0.485568
O21   O     O_2   0.007764 0.176258 0.528209 -0.486555
O22   O     O_3   0.595549 0.482565 0.765465 -0.601749
O23   O     O_3   0.119548 0.195847 0.620523 -0.612077
O24   O     O_2   0.283210 0.451310 0.380920 -0.462570
O25   O     O_3   0.051220 0.451340 0.441120 -0.497982
O26   O     O_3   0.503410 0.617620 0.414290 -0.476226
O27   O     O_3   0.150310 0.306077 0.371395 -0.624045
O28   O     O_3   0.617150 0.609960 0.527100 -0.473988
O29   O     O_3   0.088210 0.664420 0.439670 -0.490370
P1    P     P_3+3 0.071950 0.575820 0.612140 0.998905
P2    P     P_3+3 0.664370 0.290050 0.457240 0.974556
P3    P     P_3+3 0.145109 0.219209 0.560029 0.927869
P4    P     P_3+3 0.117760 0.424110 0.387850 0.990526
P5    P     P_3+3 0.048396 0.781843 0.438920 0.936987
P6    P     P_3+3 0.681080 0.401024 0.651169 1.011437
P7    P     P_3+3 0.532290 0.723580 0.544243 0.939731
P8    P     P_3+3 0.513608 0.613467 0.349621 0.946630

loop_
_geom_bond_atom_site_label_1
_geom_bond_atom_site_label_2
_ccdc_geom_bond_type
C19   C24   A    
C23   H9    S    
Ba1   O20   S    
C23   O7    S    
C65   H6    S    
C53   C54   A    
C1    H8    S    
C14   H42   S    
C18   C41   A    
C69   N1    Am   
O17   P1    S    
C43   H41   S    
C46   C55   A    
C52   C63   S    
C68   H28   S    
C54   C55   A    
C67   O9    S    
C24   C25   A    
O16   P6    D    
Ba2   O4    S    
C4    H27   S    
C17   C19   A    
C22   C24   A    
O8    P8    D    
C32   C33   S    
C35   C38   A    
C67   H22   S    
C36   C37   A    
C21   H31   S    
O1    P1    D    
C2    O13   D    
O6    P7    D    
O24   P4    D    
C59   C61   A    
Ba1   Ba2   S    
O4    P1    S    
C1    H3    S    
C22   C27   A    
C11   C38   A    
C6    P4    S    
C50   P2    S    
O26   P8    S    
C9    C13   A    
C25   C42   A    
C46   C49   A    
O20   P3    S    
Ba2   O24   S    
C52   H45   S    
O18   P6    S    
C15   H43   S    
C21   C22   A    
C58   H47   S    
Ba1   O1    S    
C17   C35   A    
C56   H20   S    
C66   H57   S    
O2    P5    D    
C59   C60   A    
Ba1   O4    S    
C68   H26   S    
C16   H52   S    
C37   C43   A    
C61   P3    S    
C64   C65   S    
C28   H54   S    
C26   O14   D    
C6    C14   D    
C5    P8    S    
O3    P5    S    
C23   H10   S    
C32   H40   S    
C45   H18   S    
O29   P5    S    
C67   C68   S    
C15   C31   D    
Ba2   O26   S    
C53   P7    S    
C63   H60   S    
O23   P3    S    
C31   C32   D    
C3    H35   S    
O5    P2    S    
C4    C16   S    
C44   C46   A    
C51   H49   S    
C55   C60   A    
C17   C20   A    
C13   C39   A    
C34   H11   S    
C27   O11   D    
C3    C5    S    
C18   C37   A    
Ba2   O29   S    
C6    C7    D    
C52   O17   S    
C16   H50   S    
O21   P3    D    
C64   H2    S    
C20   H32   S    
C64   H55   S    
C44   C62   A    
C58   C59   A    
C9    C36   A    
C68   H25   S    
C41   C42   A    
C35   C36   A    
O12   P2    S    
C38   H33   S    
C29   C30   S    
Ba1   P1    S    
C9    C10   A    
C47   C50   A    
C53   C62   A    
C48   C49   A    
Ba1   O15   S    
C18   C19   A    
C66   H59   S    
C56   H19   S    
C64   O12   S    
C29   O22   S    
Ba1   O5    S    
O27   P4    S    
C5    C14   S    
C69   O10   D    
C10   C69   A    
C28   H53   S    
C7    H29   S    
C12   O18   S    
C4    H38   S    
C29   C33   D    
C65   H4    S    
C28   O27   S    
C33   N2    S    
C66   O22   S    
Ba2   P4    S    
C63   H61   S    
O28   P7    S    
C50   C51   A    
C2    N1    Am   
C7    C8    S    
C15   C30   S    
C30   P6    S    
C57   H48   S    
C47   C60   A    
C39   H36   S    
C27   N2    Am   
C40   H23   S    
C12   H1    S    
Ba1   O25   S    
C31   P1    S    
C40   H12   S    
C8    N1    S    
C26   N2    Am   
C67   H24   S    
Ba2   O28   S    
C4    O23   S    
O19   P2    D    
Ba1   O19   S    
C54   C57   A    
C1    C12   S    
C34   H14   S    
C52   H56   S    
O9    P8    S    
C16   H16   S    
C44   P5    S    
Ba2   O5    S    
C45   H17   S    
C2    C13   A    
C3    C8    D    
C48   H44   S    
C45   C56   S    
C51   C61   A    
O15   P6    S    
C56   H21   S    
Ba1   P2    S    
C34   H13   S    
C62   H51   S    
C45   O3    S    
C49   H46   S    
C41   H37   S    
C12   H7    S    
C66   H58   S    
C40   H34   S    
O25   P4    S    
C23   C34   S    
C57   C58   A    
C10   C11   A    
Ba1   O28   S    
Ba2   O25   S    
C47   C48   A    
C25   C26   A    
Ba2   O6    S    
C39   C43   A    
C20   C21   A    
C28   C40   S    
C65   H5    S    
C11   H30   S    
C63   H62   S    
O7    P7    S    
C1    H15   S    
C42   H39   S    
