data_mof_unit_60246.cif
_audit_creation_date              2012-12-10T18:13:02-0500
_audit_creation_method            fapswitch 2.2
_symmetry_space_group_name_H-M    P1
_symmetry_Int_Tables_number       1
_space_group_crystal_system       triclinic
_cell_length_a                    38.797288
_cell_length_b                    32.232029
_cell_length_c                    21.766269
_cell_angle_alpha                 89.998196
_cell_angle_beta                  123.807464
_cell_angle_gamma                 90.008495
_cell_volume                      22616.6370043

loop_
_atom_site_label
_atom_site_type_symbol
_atom_type_description
_atom_site_fract_x
_atom_site_fract_y
_atom_site_fract_z
_atom_type_partial_charge
C1    C     C_R   0.920423 0.999977 0.420313 0.854945
C2    C     C_R   0.079576 0.999988 0.579725 0.854338
C3    C     C_R   0.420428 0.499981 0.420324 0.855313
C4    C     C_R   0.579576 0.499988 0.579725 0.854451
C5    C     C_R   0.994859 0.000442 0.680873 -0.200671
C6    C     C_R   0.005147 0.000460 0.319145 -0.200587
C7    C     C_R   0.494855 0.500440 0.680872 -0.200650
C8    C     C_R   0.505146 0.500460 0.319145 -0.199879
C9    C     C_R   0.019550 0.029081 0.737343 0.513481
C10   C     C_R   0.980309 0.028966 0.262538 0.513566
C11   C     C_R   0.519507 0.529112 0.737306 0.512967
C12   C     C_R   0.480303 0.528963 0.262533 0.513139
C13   C     C_R   0.022485 0.027436 0.803995 0.358634
C14   C     C_R   0.977371 0.027306 0.195883 0.358837
C15   C     C_R   0.522444 0.527470 0.803959 0.358575
C16   C     C_R   0.477365 0.527301 0.195879 0.359747
C17   C     C_R   0.000982 0.996482 0.814949 -0.200757
C18   C     C_R   0.999023 0.996464 0.185071 -0.200775
C19   C     C_R   0.500983 0.496486 0.814953 -0.200609
C20   C     C_R   0.499023 0.496464 0.185071 -0.200651
C21   C     C_R   0.728615 0.998793 0.173507 0.346303
C22   C     C_R   0.271560 0.997014 0.826545 0.349322
C23   C     C_R   0.228646 0.502666 0.173977 0.342492
C24   C     C_R   0.771560 0.496996 0.826543 0.348717
C25   C     C_R   0.706291 0.996197 0.206745 -0.245046
C26   C     C_R   0.293714 0.995369 0.792851 -0.244330
C27   C     C_R   0.206291 0.497549 0.206776 -0.242168
C28   C     C_R   0.793714 0.495368 0.792849 -0.244056
C29   C     C_R   0.727655 0.991681 0.284100 0.376479
C30   C     C_R   0.272028 0.992250 0.715062 0.378134
C31   C     C_R   0.227630 0.491692 0.283846 0.374257
C32   C     C_R   0.772028 0.492266 0.715058 0.377892
C33   C     C_R   0.771395 0.991283 0.328301 0.341718
C34   C     C_R   0.228289 0.992968 0.671383 0.338688
C35   C     C_R   0.271365 0.491343 0.328094 0.340320
C36   C     C_R   0.728289 0.492984 0.671378 0.338409
C37   C     C_R   0.793620 0.996213 0.294868 -0.249805
C38   C     C_R   0.206386 0.996621 0.705454 -0.251855
C39   C     C_R   0.293625 0.497028 0.294884 -0.247556
C40   C     C_R   0.706386 0.496620 0.705452 -0.251624
C41   C     C_R   0.772119 0.999624 0.217799 0.502137
C42   C     C_R   0.228062 0.998257 0.782675 0.499328
C43   C     C_R   0.272157 0.501692 0.218024 0.499126
C44   C     C_R   0.728062 0.498239 0.782674 0.499382
C45   C     C_R   0.997589 0.000098 0.616595 0.940030
C46   C     C_R   0.002420 0.000102 0.383419 0.941171
C47   C     C_R   0.497587 0.500098 0.616594 0.939892
C48   C     C_R   0.502419 0.500102 0.383419 0.941723
C49   C     C_1   0.661435 0.998144 0.161356 0.147448
C50   C     C_1   0.338560 0.997596 0.838347 0.140734
C51   C     C_1   0.161420 0.498747 0.161339 0.138940
C52   C     C_1   0.838560 0.497596 0.838346 0.140401
C53   C     C_1   0.838406 0.998495 0.339086 0.158511
C54   C     C_1   0.161590 0.998738 0.661300 0.168887
C55   C     C_1   0.338423 0.498797 0.339126 0.154658
C56   C     C_1   0.661590 0.498738 0.661299 0.168622
C57   C     C_1   0.875844 0.999664 0.376053 -0.100959
C58   C     C_1   0.124154 0.999738 0.624153 -0.089836
C59   C     C_1   0.375860 0.499729 0.376085 -0.102366
C60   C     C_1   0.624154 0.499738 0.624153 -0.090007
C61   C     C_1   0.623991 0.999223 0.123650 -0.143933
C62   C     C_1   0.376003 0.998954 0.876269 -0.151652
C63   C     C_1   0.123975 0.499456 0.123630 -0.145330
C64   C     C_1   0.876003 0.498954 0.876268 -0.151785
C65   C     C_1   0.500001 0.876046 0.000003 -0.130797
C66   C     C_1   0.999993 0.376047 0.999996 -0.126853
C67   C     C_R   0.999997 0.920443 0.000006 0.935355
C68   C     C_R   0.499997 0.420443 0.000008 0.935312
C69   C     C_R   0.000244 0.998721 0.881179 0.973905
C70   C     C_R   0.999756 0.998709 0.118826 0.973342
C71   C     C_R   0.500244 0.498723 0.881180 0.973741
C72   C     C_R   0.499756 0.498710 0.118826 0.972996
C73   C     C_R   0.000003 0.079564 0.000003 0.847490
C74   C     C_R   0.500003 0.579564 0.000002 0.847176
C75   C     C_R   0.499999 0.920663 0.000000 0.784325
C76   C     C_R   0.999996 0.420663 0.999997 0.787595
C77   C     C_R   0.579393 0.999969 0.079215 0.801412
C78   C     C_R   0.420603 0.999933 0.920774 0.802143
C79   C     C_R   0.079386 0.499968 0.079207 0.800767
C80   C     C_R   0.920603 0.499933 0.920774 0.802176
C81   C     C_1   0.000008 0.124140 0.000009 -0.133170
C82   C     C_1   0.500009 0.624139 0.000008 -0.133894
C83   C     C_R   0.500002 0.079446 0.000001 0.808678
C84   C     C_R   0.000005 0.579446 0.000003 0.804474
C85   C     C_R   0.465718 0.228181 0.943029 0.487369
C86   C     C_R   0.534283 0.228198 0.056969 0.487015
C87   C     C_R   0.965731 0.728180 0.943022 0.486568
C88   C     C_R   0.034290 0.728198 0.056974 0.482441
C89   C     C_R   0.500004 0.206360 0.999999 -0.276342
C90   C     C_R   0.000014 0.706359 0.999999 -0.275535
C91   C     C_R   0.034790 0.771780 0.056455 0.356174
C92   C     C_R   0.965218 0.771761 0.943536 0.353580
C93   C     C_R   0.534783 0.271780 0.056449 0.353934
C94   C     C_R   0.465207 0.271762 0.943543 0.353829
C95   C     C_R   0.000001 0.793637 0.999991 -0.260501
C96   C     C_R   0.499994 0.293638 0.999989 -0.259937
C97   C     C_1   0.500006 0.161537 0.000003 0.218009
C98   C     C_1   0.000015 0.661537 0.000006 0.214410
C99   C     C_1   0.999995 0.838454 0.999986 0.132878
C100  C     C_1   0.499990 0.338455 0.999982 0.133067
C101  C     C_1   0.999993 0.875874 0.999989 -0.136990
C102  C     C_1   0.499991 0.375874 0.999987 -0.137039
C103  C     C_1   0.500005 0.124065 0.000002 -0.114443
C104  C     C_1   0.000011 0.624065 0.000007 -0.119375
C105  C     C_R   0.499349 0.771927 0.943641 0.480986
C106  C     C_R   0.500669 0.771925 0.056377 0.480893
C107  C     C_R   0.000153 0.271927 0.944434 0.484094
C108  C     C_R   0.999837 0.271925 0.055563 0.482127
C109  C     C_R   0.940292 0.945749 0.630790 0.492937
C110  C     C_R   0.059987 0.946059 0.369502 0.493108
C111  C     C_R   0.440361 0.445673 0.630863 0.492880
C112  C     C_R   0.559993 0.446067 0.369509 0.492878
C113  C     C_R   0.500007 0.793753 0.000007 -0.271227
C114  C     C_R   0.999993 0.293753 0.999996 -0.271559
C115  C     C_R   0.998992 0.228334 0.054988 0.339531
C116  C     C_R   0.001009 0.228337 0.945018 0.337684
C117  C     C_R   0.499823 0.728334 0.055829 0.339509
C118  C     C_R   0.500199 0.728337 0.944193 0.338705
C119  C     C_R   0.000004 0.206450 0.000007 -0.253162
C120  C     C_R   0.500012 0.706450 0.000012 -0.253511
C121  C     C_1   0.500003 0.838575 0.000004 0.203217
C122  C     C_1   0.999992 0.338575 0.999995 0.206236
C123  C     C_1   0.000007 0.161586 0.000010 0.149629
C124  C     C_1   0.500011 0.661586 0.000011 0.148922
C125  C     C_R   0.921575 0.913301 0.644368 0.462180
C126  C     C_R   0.078837 0.913693 0.356059 0.459146
C127  C     C_R   0.421690 0.413198 0.644484 0.464065
C128  C     C_R   0.578849 0.413704 0.356070 0.460143
C129  C     C_R   0.933687 0.904184 0.716375 0.266344
C130  C     C_R   0.066742 0.904498 0.284084 0.266412
C131  C     C_R   0.433812 0.404097 0.716502 0.265952
C132  C     C_R   0.566755 0.404507 0.284096 0.266349
C133  C     C_R   0.963701 0.929104 0.775116 0.336924
C134  C     C_R   0.036606 0.929265 0.225226 0.337086
C135  C     C_R   0.463790 0.429059 0.775210 0.336377
C136  C     C_R   0.536615 0.429271 0.225235 0.336462
C137  C     C_R   0.978080 0.965788 0.760323 -0.217835
C138  C     C_R   0.022077 0.965889 0.239853 -0.217686
C139  C     C_R   0.478123 0.465761 0.760370 -0.217663
C140  C     C_R   0.522081 0.465892 0.239858 -0.217443
C141  C     C_R   0.971005 0.970703 0.689706 -0.238045
C142  C     C_R   0.029144 0.970848 0.310459 -0.239824
C143  C     C_R   0.471041 0.470668 0.689745 -0.238305
C144  C     C_R   0.529148 0.470852 0.310463 -0.239774
Cu1   Cu    Cu3+1 0.000000 0.041020 0.500000 1.112256
Cu2   Cu    Cu3+1 0.500000 0.541020 0.500000 1.107086
Cu3   Cu    Cu3+1 0.000000 0.958990 0.500000 1.086525
Cu4   Cu    Cu3+1 0.500000 0.458990 0.500000 1.090248
Cu5   Cu    Cu3+1 0.041020 0.999990 0.040980 0.985928
Cu6   Cu    Cu3+1 0.958980 0.999990 0.959020 0.986213
Cu7   Cu    Cu3+1 0.541020 0.499990 0.040980 0.985825
Cu8   Cu    Cu3+1 0.458980 0.499990 0.959020 0.986770
Cu9   Cu    Cu3+1 0.500000 0.000050 0.061780 1.026698
Cu10  Cu    Cu3+1 0.500000 0.000050 0.938220 1.024313
Cu11  Cu    Cu3+1 1.000000 0.500050 0.061780 1.026367
Cu12  Cu    Cu3+1 0.000000 0.500050 0.938220 1.025297
O1    O     O_R   0.940150 0.034640 0.440170 -0.574982
O2    O     O_R   0.059850 0.034640 0.559830 -0.576181
O3    O     O_R   0.440150 0.534640 0.440170 -0.578173
O4    O     O_R   0.559850 0.534640 0.559830 -0.576885
O5    O     O_R   0.559850 0.000040 0.111990 -0.567554
O6    O     O_R   0.440150 0.000040 0.888010 -0.570495
O7    O     O_R   0.059850 0.500040 0.111990 -0.567984
O8    O     O_R   0.940150 0.500040 0.888010 -0.570504
O9    O     O_R   0.559860 0.999970 0.007620 -0.571450
O10   O     O_R   0.440140 0.999970 0.992380 -0.569671
O11   O     O_R   0.059860 0.499970 0.007620 -0.570334
O12   O     O_R   0.940140 0.499970 0.992380 -0.569559
O13   O     O_R   0.499990 0.059890 0.052110 -0.566440
O14   O     O_R   0.500010 0.059890 0.947890 -0.566426
O15   O     O_R   0.999990 0.559890 0.052110 -0.566497
O16   O     O_R   0.000010 0.559890 0.947890 -0.569674
O17   O     O_R   0.940160 0.965370 0.440130 -0.553206
O18   O     O_R   0.059840 0.965370 0.559870 -0.552015
O19   O     O_R   0.440160 0.465370 0.440130 -0.550675
O20   O     O_R   0.559840 0.465370 0.559870 -0.551371
O21   O     O_R   0.999990 0.034640 0.590170 -0.539689
O22   O     O_R   0.000010 0.034640 0.409830 -0.539512
O23   O     O_R   0.499990 0.534640 0.590170 -0.540494
O24   O     O_R   0.500010 0.534640 0.409830 -0.540537
O25   O     O_R   0.000000 0.965370 0.590130 -0.565231
O26   O     O_R   0.000000 0.965370 0.409870 -0.565548
O27   O     O_R   0.500000 0.465370 0.590130 -0.564542
O28   O     O_R   0.500000 0.465370 0.409870 -0.564423
O29   O     O_R   0.034640 0.940150 0.034570 -0.589477
O30   O     O_R   0.965360 0.940150 0.965430 -0.589632
O31   O     O_R   0.534640 0.440150 0.034570 -0.589347
O32   O     O_R   0.465360 0.440150 0.965430 -0.589256
O33   O     O_R   0.034650 0.999990 0.944440 -0.592483
O34   O     O_R   0.965350 0.999990 0.055560 -0.592236
O35   O     O_R   0.534650 0.499990 0.944440 -0.592379
O36   O     O_R   0.465350 0.499990 0.055560 -0.591793
O37   O     O_R   0.965370 0.000000 0.875180 -0.581021
O38   O     O_R   0.034630 0.000000 0.124820 -0.581140
O39   O     O_R   0.465370 0.500000 0.875180 -0.581179
O40   O     O_R   0.534630 0.500000 0.124820 -0.581325
O41   O     O_R   0.034640 0.059840 0.034640 -0.578898
O42   O     O_R   0.965360 0.059840 0.965360 -0.579017
O43   O     O_R   0.534640 0.559840 0.034640 -0.579050
O44   O     O_R   0.465360 0.559840 0.965360 -0.579210
O45   O     O_R   0.500010 0.940200 0.052220 -0.568528
O46   O     O_R   0.499990 0.940200 0.947780 -0.569009
O47   O     O_R   0.000010 0.440200 0.052220 -0.568482
O48   O     O_R   0.999990 0.440200 0.947780 -0.565681
F1    F     F_    0.040958 0.058929 0.727881 -0.635075
F2    F     F_    0.958761 0.058698 0.271874 -0.635075
F3    F     F_    0.540876 0.558989 0.727810 -0.636057
F4    F     F_    0.458751 0.558691 0.271866 -0.637544
O49   O     O_3   0.791605 0.989706 0.404465 -0.529798
C145  C     C_3   0.809795 0.950174 0.430517 -0.155529
H1    H     H_    0.841410 0.949485 0.441830 0.214186
H2    H     H_    0.790934 0.924375 0.392230 0.109985
H3    H     H_    0.813032 0.944216 0.483694 0.209826
O50   O     O_3   0.207364 0.994294 0.595136 -0.526413
C146  C     C_3   0.194039 0.953894 0.566704 -0.137588
H4    H     H_    0.173502 0.940448 0.582262 0.169352
H5    H     H_    0.220818 0.933009 0.584757 0.138596
H6    H     H_    0.175774 0.955504 0.505458 0.216411
O51   O     O_3   0.291530 0.488622 0.404162 -0.533908
C147  C     C_3   0.309867 0.449010 0.428657 -0.151054
H7    H     H_    0.341953 0.449249 0.442131 0.216522
H8    H     H_    0.291799 0.423642 0.388439 0.114249
H9    H     H_    0.311958 0.441545 0.480387 0.208767
O52   O     O_3   0.707364 0.494327 0.595132 -0.526996
C148  C     C_3   0.694039 0.453932 0.566674 -0.136870
H10   H     H_    0.673501 0.440474 0.582224 0.169753
H11   H     H_    0.720817 0.433049 0.584712 0.139037
H12   H     H_    0.675774 0.455555 0.505428 0.216191
O53   O     O_3   0.931575 0.792895 0.886293 -0.510315
C149  C     C_3   0.902370 0.798715 0.904762 -0.218213
H13   H     H_    0.915522 0.817575 0.955987 0.125313
H14   H     H_    0.890677 0.768514 0.910936 0.193478
H15   H     H_    0.875446 0.815951 0.859236 0.169240
O54   O     O_3   0.068417 0.792933 0.113714 -0.508865
C150  C     C_3   0.097638 0.798781 0.095288 -0.224478
H16   H     H_    0.084492 0.817635 0.044060 0.125677
H17   H     H_    0.109353 0.768591 0.089141 0.189848
H18   H     H_    0.124546 0.816037 0.140825 0.169224
O55   O     O_3   0.431559 0.292897 0.886311 -0.510790
C151  C     C_3   0.402364 0.298717 0.904803 -0.215169
H19   H     H_    0.415524 0.317578 0.956029 0.125788
H20   H     H_    0.390675 0.268516 0.910987 0.194075
H21   H     H_    0.375436 0.315953 0.859286 0.170013
O56   O     O_3   0.568412 0.292933 0.113706 -0.509766
C152  C     C_3   0.597627 0.298789 0.095267 -0.216914
H22   H     H_    0.584475 0.317647 0.044043 0.125050
H23   H     H_    0.609340 0.268602 0.089106 0.193351
H24   H     H_    0.624536 0.316043 0.140803 0.169494
F5    F     F_    0.432624 0.207246 0.887147 -0.607342
F6    F     F_    0.567379 0.207280 0.112863 -0.607682
F7    F     F_    0.932640 0.707245 0.887133 -0.608220
F8    F     F_    0.067384 0.707280 0.112872 -0.613303
O57   O     O_3   0.000229 0.207181 0.889018 -0.518496
C153  C     C_3   0.041413 0.201974 0.909487 -0.158034
H25   H     H_    0.060032 0.183648 0.961421 0.131112
H26   H     H_    0.056566 0.232395 0.915436 0.181804
H27   H     H_    0.040928 0.184443 0.865153 0.205460
O58   O     O_3   0.999773 0.207176 0.110991 -0.517289
C154  C     C_3   0.958590 0.201959 0.090528 -0.162556
H28   H     H_    0.939967 0.183631 0.038592 0.130913
H29   H     H_    0.943441 0.232377 0.084586 0.179428
H30   H     H_    0.959077 0.184427 0.134863 0.205776
O59   O     O_3   0.498611 0.707180 0.887429 -0.518567
C155  C     C_3   0.539486 0.701976 0.906270 -0.163407
H31   H     H_    0.558593 0.683649 0.958077 0.131574
H32   H     H_    0.554501 0.732399 0.911601 0.179533
H33   H     H_    0.538358 0.684449 0.861322 0.205464
O60   O     O_3   0.501411 0.707176 0.112593 -0.517675
C156  C     C_3   0.460536 0.701968 0.093761 -0.166408
H34   H     H_    0.441422 0.683643 0.041948 0.131165
H35   H     H_    0.445530 0.732390 0.088444 0.178919
H36   H     H_    0.461664 0.684438 0.138707 0.205061
F9    F     F_    0.498088 0.792866 0.888260 -0.616102
F10   F     F_    0.501927 0.792862 0.111755 -0.616052
F11   F     F_    0.999689 0.292866 0.889814 -0.612801
F12   F     F_    0.000297 0.292862 0.110177 -0.614718
F13   F     F_    0.926199 0.953979 0.559386 -0.649798
F14   F     F_    0.074078 0.954386 0.440885 -0.642560
F15   F     F_    0.426251 0.453889 0.559448 -0.649818
F16   F     F_    0.574082 0.454394 0.440890 -0.642604
F17   F     F_    0.892461 0.889555 0.587358 -0.605729
F18   F     F_    0.108068 0.890093 0.413177 -0.604076
F19   F     F_    0.392609 0.389411 0.587505 -0.604415
F20   F     F_    0.608082 0.390107 0.413191 -0.603112
O61   O     O_3   0.919015 0.868465 0.729468 -0.497308
C157  C     C_3   0.890729 0.879607 0.747989 -0.122030
H37   H     H_    0.865303 0.899542 0.704599 0.126576
H38   H     H_    0.906664 0.895263 0.802724 0.172280
H39   H     H_    0.876274 0.850915 0.751889 0.195307
O62   O     O_3   0.081552 0.868833 0.271153 -0.496800
C158  C     C_3   0.109744 0.880081 0.252462 -0.124062
H40   H     H_    0.135117 0.900118 0.295733 0.125837
H41   H     H_    0.093712 0.895672 0.197663 0.172619
H42   H     H_    0.124280 0.851445 0.248610 0.194322
O63   O     O_3   0.419186 0.368360 0.729641 -0.497015
C159  C     C_3   0.390874 0.379467 0.748121 -0.119897
H43   H     H_    0.365429 0.399373 0.704702 0.126953
H44   H     H_    0.406781 0.395139 0.802839 0.172009
H45   H     H_    0.376448 0.350758 0.752037 0.195891
O64   O     O_3   0.581569 0.368844 0.271169 -0.496370
C160  C     C_3   0.609757 0.380095 0.252470 -0.122409
H46   H     H_    0.635128 0.400136 0.295736 0.125891
H47   H     H_    0.593720 0.395684 0.197669 0.172201
H48   H     H_    0.624295 0.351460 0.248620 0.195001
O65   O     O_3   0.982456 0.914655 0.846594 -0.575426
C161  C     C_3   0.018603 0.892800 0.864931 -0.272838
H49   H     H_    0.040542 0.912867 0.860627 0.147955
H50   H     H_    0.010656 0.864698 0.829755 0.196397
H51   H     H_    0.035259 0.882287 0.923076 0.162896
O66   O     O_3   0.017873 0.914700 0.153819 -0.575530
C162  C     C_3   0.981835 0.892688 0.135684 -0.271056
H52   H     H_    0.959833 0.912664 0.139951 0.147790
H53   H     H_    0.989926 0.864634 0.171015 0.197057
H54   H     H_    0.965183 0.882083 0.077592 0.162807
O67   O     O_3   0.482551 0.414643 0.846708 -0.575906
C163  C     C_3   0.518731 0.392831 0.865105 -0.270813
H55   H     H_    0.540653 0.412925 0.860797 0.148241
H56   H     H_    0.510828 0.364719 0.829969 0.197028
H57   H     H_    0.535386 0.382341 0.923262 0.162968
O68   O     O_3   0.517883 0.414702 0.153830 -0.576216
C164  C     C_3   0.481848 0.392685 0.135702 -0.267974
H58   H     H_    0.459845 0.412657 0.139971 0.149052
H59   H     H_    0.489944 0.364631 0.171036 0.197550
H60   H     H_    0.465195 0.382079 0.077611 0.162820
O69   O     O_3   0.043948 0.058022 0.856674 -0.558999
C165  C     C_3   0.086771 0.049095 0.896489 -0.188535
H61   H     H_    0.093746 0.017041 0.919509 0.137126
H62   H     H_    0.103332 0.070892 0.943800 0.176911
H63   H     H_    0.099203 0.053740 0.861707 0.213124
O70   O     O_3   0.955749 0.057777 0.143056 -0.558873
C166  C     C_3   0.912971 0.048626 0.103317 -0.188898
H64   H     H_    0.906149 0.016533 0.080465 0.137096
H65   H     H_    0.896293 0.070331 0.055893 0.176533
H66   H     H_    0.900529 0.053212 0.138095 0.213295
O71   O     O_3   0.543866 0.558082 0.856601 -0.559662
C167  C     C_3   0.586700 0.549208 0.896432 -0.189866
H67   H     H_    0.593714 0.517163 0.919492 0.137879
H68   H     H_    0.603233 0.571025 0.943716 0.176451
H69   H     H_    0.599129 0.553869 0.861648 0.212976
O72   O     O_3   0.455734 0.557768 0.143044 -0.559337
C168  C     C_3   0.412959 0.548607 0.103313 -0.193039
H70   H     H_    0.406143 0.516512 0.080471 0.139751
H71   H     H_    0.396274 0.570307 0.055882 0.175097
H72   H     H_    0.400518 0.553193 0.138093 0.211610
F21   F     F_    0.793361 0.004403 0.185413 -0.622578
F22   F     F_    0.207023 0.001783 0.815642 -0.623372
F23   F     F_    0.293468 0.505947 0.185668 -0.625522
F24   F     F_    0.707023 0.501749 0.815643 -0.623469
O73   O     O_3   0.707953 0.003837 0.097883 -0.513599
C169  C     C_3   0.702762 0.964437 0.065693 -0.211117
H73   H     H_    0.684004 0.943581 0.076961 0.127459
H74   H     H_    0.733194 0.949847 0.085060 0.181022
H75   H     H_    0.685708 0.968269 0.004883 0.192666
O74   O     O_3   0.292421 0.000647 0.902449 -0.512786
C170  C     C_3   0.297609 0.960591 0.932435 -0.211389
H76   H     H_    0.316255 0.940468 0.919837 0.127694
H77   H     H_    0.267174 0.945783 0.912423 0.180043
H78   H     H_    0.314775 0.963301 0.993444 0.192557
O75   O     O_3   0.207949 0.506707 0.098143 -0.523692
C171  C     C_3   0.203962 0.549320 0.080790 -0.191243
H79   H     H_    0.234808 0.564252 0.105154 0.188351
H80   H     H_    0.185944 0.565767 0.099137 0.138457
H81   H     H_    0.186704 0.552656 0.019865 0.185951
O76   O     O_3   0.792421 0.500611 0.902450 -0.513670
C172  C     C_3   0.797609 0.460547 0.932408 -0.209506
H82   H     H_    0.816256 0.440435 0.919797 0.128158
H83   H     H_    0.767175 0.445736 0.912386 0.180694
H84   H     H_    0.814775 0.463243 0.993419 0.192661
O77   O     O_3   0.706084 0.991439 0.317663 -0.510369
C173  C     C_3   0.693732 0.950413 0.318568 -0.225951
H85   H     H_    0.720977 0.930166 0.354221 0.153819
H86   H     H_    0.674171 0.937056 0.261977 0.132677
H87   H     H_    0.674789 0.950704 0.342318 0.199437
O78   O     O_3   0.292860 0.991859 0.680086 -0.510894
C174  C     C_3   0.310314 0.952202 0.687473 -0.240066
H88   H     H_    0.290673 0.926288 0.685462 0.116318
H89   H     H_    0.341647 0.950292 0.739418 0.164093
H90   H     H_    0.314035 0.947558 0.640972 0.199320
O79   O     O_3   0.205995 0.489902 0.317229 -0.516687
C175  C     C_3   0.194229 0.448428 0.316646 -0.215475
H91   H     H_    0.221753 0.428400 0.351717 0.154873
H92   H     H_    0.174939 0.435628 0.259589 0.140410
H93   H     H_    0.175200 0.447491 0.340207 0.196671
O80   O     O_3   0.792860 0.491893 0.680081 -0.511399
C176  C     C_3   0.810314 0.452239 0.687442 -0.239181
H94   H     H_    0.790673 0.426320 0.685411 0.116848
H95   H     H_    0.841647 0.450322 0.739386 0.164137
H96   H     H_    0.814036 0.447611 0.640938 0.199572

loop_
_geom_bond_atom_site_label_1
_geom_bond_atom_site_label_2
_ccdc_geom_bond_type
C133  C137  A    
C55   C59   T    
Cu9   O10   S    
C158  H40   S    
C136  C140  A    
C84   O15   A    
C160  H46   S    
C135  C139  A    
C91   O54   S    
C26   C50   S    
C95   C99   S    
C29   C33   A    
C148  H12   S    
C23   C43   A    
O56   C152  S    
Cu8   O44   S    
C9    C13   A    
C171  H79   S    
C153  H26   S    
C11   C15   A    
C12   C16   A    
C68   O31   A    
C66   C122  T    
C165  H61   S    
C107  F11   S    
C36   O52   S    
C88   F8    S    
C32   O80   S    
C152  H22   S    
C130  C134  A    
C13   O69   S    
C155  H33   S    
C73   C81   S    
C75   O46   A    
Cu9   O45   S    
C25   C29   A    
Cu11  Cu12  S    
O70   C166  S    
C27   C31   A    
O59   C155  S    
O72   C168  S    
C47   O27   A    
C48   O28   A    
Cu9   O5    S    
C163  H55   S    
C111  F15   S    
Cu7   O40   S    
Cu7   O31   S    
C146  H4    S    
O53   C149  S    
Cu6   O34   S    
Cu1   O1    S    
C170  H76   S    
C16   C20   A    
C66   C76   S    
C165  H63   S    
C69   O37   A    
C161  H49   S    
Cu2   O24   S    
C94   C96   A    
C97   C103  T    
C134  O66   S    
C129  C133  A    
C135  O67   S    
C159  H43   S    
C99   C101  T    
C74   O44   A    
C156  H35   S    
C105  C118  A    
C146  H6    S    
O64   C160  S    
C70   O34   A    
C160  H48   S    
C17   C69   S    
C157  H39   S    
C167  H67   S    
C154  H29   S    
C93   O56   S    
C35   O51   S    
C72   O40   A    
C174  H88   S    
C119  C123  S    
Cu5   O33   S    
C129  O61   S    
Cu8   O36   S    
C172  H82   S    
C157  H38   S    
C83   O13   A    
C169  H73   S    
C118  C120  A    
C117  O60   S    
O71   C167  S    
C125  C129  A    
C94   O55   S    
C19   C139  A    
C164  H58   S    
C152  H24   S    
O75   C171  S    
C17   C137  A    
C79   O11   A    
C80   O12   A    
C43   F23   S    
C67   O29   A    
C175  H91   S    
C176  H95   S    
C85   F5    S    
O73   C169  S    
C19   C71   S    
C7    C143  A    
C173  H85   S    
Cu3   O18   S    
C87   F7    S    
Cu10  O14   S    
Cu4   O20   S    
C83   C103  S    
C81   C123  T    
C163  H57   S    
C32   C36   A    
C108  C115  A    
C105  C113  A    
C158  H41   S    
O57   C153  S    
Cu2   O4    S    
C77   O9    A    
O76   C172  S    
O78   C174  S    
C139  C143  A    
C159  H45   S    
C118  O59   S    
C61   C77   S    
C155  H31   S    
C22   C42   A    
Cu10  O9    S    
C8    C12   A    
C37   C53   S    
C3    O3    A    
C149  H13   S    
C11   F3    S    
C167  H69   S    
Cu11  O47   S    
C100  C102  T    
C147  H7    S    
C27   C51   S    
C127  C131  A    
C168  H71   S    
C30   C34   A    
C106  C113  A    
C10   C14   A    
C172  H84   S    
C153  H27   S    
Cu11  O7    S    
Cu12  O16   S    
C112  F16   S    
C5    C9    A    
C86   C93   A    
C1    C57   S    
C71   O39   A    
C88   C91   A    
C132  C136  A    
C164  H60   S    
C73   O42   A    
C4    C60   S    
O49   C145  S    
C74   O43   A    
C110  C126  A    
C175  H93   S    
C170  H77   S    
C125  F17   S    
C26   C30   A    
C115  C119  A    
C162  H53   S    
C4    O20   A    
C84   C104  S    
C150  H18   S    
C156  H36   S    
C128  F20   S    
C16   O72   S    
C67   C101  S    
C174  H90   S    
C21   C25   A    
C132  O64   S    
Cu10  O6    S    
C24   C28   A    
C84   O16   A    
Cu6   O30   S    
C109  F13   S    
C145  H3    S    
C145  H2    S    
C18   C70   S    
C44   F24   S    
C13   C17   A    
C105  F9    S    
C46   O26   A    
O58   C154  S    
C10   F2    S    
Cu3   O25   S    
C92   O53   S    
C136  O68   S    
Cu4   O27   S    
C96   C100  S    
C151  H19   S    
C148  H11   S    
C37   C41   A    
Cu3   O17   S    
C166  H66   S    
C107  C116  A    
C91   C95   A    
C40   C44   A    
C113  C121  S    
C68   O32   A    
O74   C170  S    
C20   C72   S    
C109  C141  A    
C42   F22   S    
C156  H34   S    
C72   O36   A    
C147  H9    S    
Cu5   O29   S    
O55   C151  S    
C48   O24   A    
Cu8   O32   S    
O52   C148  S    
C75   O45   A    
C76   O47   A    
C45   O25   A    
O79   C175  S    
C15   C19   A    
C68   C102  S    
C126  C130  A    
C41   F21   S    
C163  H56   S    
O62   C158  S    
C82   C124  T    
C18   C138  A    
C14   C18   A    
C80   O8    A    
Cu10  O46   S    
C39   C55   S    
C40   C56   S    
Cu1   O22   S    
C161  H50   S    
Cu7   Cu8   S    
C65   C121  T    
C6    C142  A    
C159  H44   S    
C31   O79   S    
O67   C163  S    
C87   C92   A    
C64   C80   S    
C74   C82   S    
C147  H8    S    
Cu1   Cu3   S    
C62   C78   S    
Cu2   Cu4   S    
C116  O57   S    
C160  H47   S    
C77   O5    A    
C78   O10   A    
C161  H51   S    
C49   C61   T    
C51   C63   T    
C167  H68   S    
C52   C64   T    
C117  C120  A    
O63   C159  S    
C53   C57   T    
C169  H75   S    
C5    C45   S    
C151  H21   S    
C33   C37   A    
C56   C60   T    
C7    C47   S    
C108  C114  A    
C166  H64   S    
C8    C48   S    
C107  C114  A    
O61   C157  S    
C38   C54   S    
C28   C32   A    
Cu11  O12   S    
C70   O38   A    
C1    O17   A    
C169  H74   S    
C21   C41   A    
Cu3   O26   S    
C3    O19   A    
C88   C90   A    
C152  H23   S    
C106  C117  A    
C138  C142  A    
C24   C44   A    
C31   C35   A    
O54   C150  S    
O51   C147  S    
C175  H92   S    
C176  H94   S    
C137  C141  A    
O66   C162  S    
C85   C89   A    
C23   O75   S    
C140  C144  A    
C108  F12   S    
C86   C89   A    
C6    C10   A    
C173  H86   S    
C2    C58   S    
C20   C140  A    
C172  H83   S    
Cu5   Cu6   S    
Cu1   O2    S    
C126  F18   S    
Cu2   O23   S    
O69   C165  S    
C25   C49   S    
C112  C128  A    
C173  H87   S    
O60   C156  S    
C155  H32   S    
O65   C161  S    
C22   C26   A    
C87   C90   A    
Cu9   O13   S    
Cu6   O42   S    
C110  F14   S    
C86   F6    S    
C162  H52   S    
C46   O22   A    
C35   C39   A    
C106  F10   S    
C154  H30   S    
O80   C176  S    
C171  H80   S    
Cu6   O37   S    
C63   C79   S    
C168  H70   S    
C7    C11   A    
C153  H25   S    
C12   F4    S    
C38   C42   A    
C131  C135  A    
C146  H5    S    
C157  H37   S    
C83   O14   A    
C149  H15   S    
C127  F19   S    
C110  C142  A    
C29   O77   S    
C47   O23   A    
C33   O49   S    
C164  H59   S    
C73   O41   A    
C23   C27   A    
C67   O30   A    
C45   O21   A    
C176  H96   S    
Cu7   O35   S    
C150  H17   S    
C21   O73   S    
C128  C132  A    
C174  H89   S    
Cu4   O19   S    
Cu7   O43   S    
C36   C40   A    
C158  H42   S    
C69   O33   A    
O50   C146  S    
C39   C43   A    
Cu2   O3    S    
Cu12  O11   S    
C92   C95   A    
C89   C97   S    
C149  H14   S    
C22   O74   S    
C34   O50   S    
Cu5   O38   S    
C85   C94   A    
C5    C141  A    
Cu4   O28   S    
C130  O62   S    
C151  H20   S    
C148  H10   S    
C131  O63   S    
C8    C144  A    
C166  H65   S    
C133  O65   S    
C14   O70   S    
C109  C125  A    
C78   O6    A    
C93   C96   A    
C111  C127  A    
C50   C62   T    
C154  H28   S    
Cu12  O48   S    
O77   C173  S    
C54   C58   T    
C168  H72   S    
C6    C46   S    
Cu8   O39   S    
C34   C38   A    
C15   O71   S    
C79   O7    A    
C115  O58   S    
C134  C138  A    
C165  H62   S    
C76   O48   A    
C24   O76   S    
C111  C143  A    
C65   C75   S    
C116  C119  A    
C71   O35   A    
O68   C164  S    
C112  C144  A    
C1    O1    A    
C9    F1    S    
C2    O18   A    
C28   C52   S    
C4    O4    A    
C98   C104  T    
C171  H81   S    
C150  H16   S    
C114  C122  S    
Cu11  O15   S    
C170  H78   S    
C2    O2    A    
Cu12  O8    S    
C145  H1    S    
C162  H54   S    
Cu1   O21   S    
C30   O78   S    
Cu9   Cu10  S    
C90   C98   S    
C120  C124  S    
Cu5   O41   S    
C3    C59   S    
