data_mof_unit_45242.cif
_audit_creation_date              2012-12-11T15:41:24-0500
_audit_creation_method            fapswitch 2.2
_symmetry_space_group_name_H-M    P1
_symmetry_Int_Tables_number       1
_space_group_crystal_system       triclinic
_cell_length_a                    14.947733
_cell_length_b                    14.84294
_cell_length_c                    15.180806
_cell_angle_alpha                 108.759683
_cell_angle_beta                  110.888267
_cell_angle_gamma                 108.5101
_cell_volume                      2599.92003568

loop_
_atom_site_label
_atom_site_type_symbol
_atom_type_description
_atom_site_fract_x
_atom_site_fract_y
_atom_site_fract_z
_atom_type_partial_charge
C1    C     C_R   0.251821 0.066663 0.970966 -0.129228
C2    C     C_R   0.880308 0.725468 0.177859 -0.219428
C3    C     C_R   0.189346 0.246018 0.718892 -0.125774
C4    C     C_R   0.767982 0.654402 0.108792 -0.203043
C5    C     C_R   0.281244 0.313573 0.823537 0.238073
C6    C     C_R   0.712391 0.645541 0.007215 0.231892
C7    C     C_R   0.268182 0.321639 0.912307 -0.257374
C8    C     C_R   0.771483 0.707703 0.974789 -0.219398
C9    C     C_R   0.166192 0.257393 0.896153 -0.240695
C10   C     C_R   0.884538 0.778763 0.043989 -0.335020
C11   C     C_R   0.074835 0.184809 0.791625 0.639901
C12   C     C_R   0.802649 0.999034 0.091529 -0.151726
C13   C     C_R   0.940339 0.788993 0.147329 0.618360
C14   C     C_R   0.400049 0.474776 0.827555 0.490291
C15   C     C_R   0.581592 0.451820 0.902783 0.472350
C16   C     C_R   0.742395 0.220375 0.310692 -0.255653
C17   C     C_R   0.195918 0.788887 0.699391 -0.139099
C18   C     C_R   0.502967 0.570911 0.899020 -0.162440
C19   C     C_R   0.484747 0.374612 0.886000 -0.162303
C20   C     C_R   0.597558 0.557347 0.930507 -0.189555
C21   C     C_R   0.388866 0.383793 0.841164 -0.182987
C22   C     C_R   0.864689 0.522608 0.442339 -0.125472
C23   C     C_R   0.774963 0.323602 0.323255 -0.104923
C24   C     C_R   0.015139 0.501299 0.596588 -0.157401
C25   C     C_R   0.955637 0.615451 0.534933 -0.212761
C26   C     C_R   0.925409 0.410269 0.506420 -0.230051
C27   C     C_R   0.032030 0.603932 0.610282 0.172899
C28   C     C_R   0.852066 0.420162 0.426856 0.178588
C29   C     C_R   0.597207 0.021986 0.591452 -0.236821
C30   C     C_R   0.420856 0.852531 0.388246 -0.209695
C31   C     C_R   0.593949 0.022784 0.501178 -0.146421
C32   C     C_R   0.422795 0.853213 0.480477 -0.152819
C33   C     C_R   0.505452 0.939442 0.399527 0.167187
C34   C     C_R   0.136056 0.695444 0.697621 -0.165684
C35   C     C_R   0.509308 0.940708 0.581983 0.173815
C36   C     C_R   0.153073 0.142000 0.143974 -0.190952
C37   C     C_R   0.942557 0.984893 0.966177 -0.158480
C38   C     C_R   0.061903 0.140529 0.149102 -0.214590
C39   C     C_R   0.032390 0.986177 0.961014 -0.174519
C40   C     C_R   0.409061 0.913201 0.212110 -0.237462
C41   C     C_R   0.593306 0.029388 0.780968 -0.237745
C42   C     C_R   0.957796 0.060351 0.060507 0.139309
C43   C     C_R   0.136807 0.063206 0.050449 0.132581
C44   C     C_R   0.585506 0.299333 0.993703 -0.075917
C45   C     C_R   0.501192 0.950546 0.308134 -0.105129
C46   C     C_R   0.411097 0.685988 0.940238 -0.112711
C47   C     C_R   0.591382 0.001603 0.301953 0.520789
C48   C     C_R   0.410052 0.943137 0.686323 0.543680
C49   C     C_R   0.404419 0.203989 0.899617 -0.172318
C50   C     C_R   0.593703 0.778266 0.027436 -0.180654
C51   C     C_R   0.754042 0.314970 0.223551 0.550694
C52   C     C_R   0.198658 0.700565 0.792303 0.498264
C53   C     C_R   0.251051 0.975111 0.062987 -0.163385
C54   C     C_R   0.801151 0.090524 0.000410 -0.139606
C55   C     C_R   0.225395 0.051818 0.044999 0.038116
C56   C     C_R   0.502904 0.960272 0.677913 -0.112363
C57   C     C_R   0.862078 0.057383 0.059074 0.043482
C58   C     C_3   0.298605 0.461342 0.665176 0.167562
C59   C     C_3   0.345292 0.571691 0.669373 -0.284292
C60   C     C_3   0.317520 0.557706 0.557206 -1.000749
C61   C     C_3   0.661806 0.398267 0.808963 0.280014
C62   C     C_3   0.685609 0.303202 0.781861 -0.335947
C63   C     C_3   0.802349 0.335837 0.861956 -0.847442
C64   C     C_3   0.728853 0.955914 0.331693 0.162925
C65   C     C_3   0.686259 0.859583 0.350764 -0.298317
C66   C     C_3   0.723341 0.778469 0.311254 -1.037550
C67   C     C_R   0.491023 0.297937 0.927757 0.120790
C68   C     C_3   0.279023 0.966108 0.574394 0.169809
C69   C     C_3   0.164789 0.944751 0.555914 -0.260040
C70   C     C_3   0.119704 0.000627 0.497893 -1.052706
C71   C     C_3   0.863659 0.387675 0.162711 0.150764
C72   C     C_3   0.972747 0.406033 0.246303 -0.308733
C73   C     C_3   0.049153 0.404892 0.201427 -0.998404
C74   C     C_3   0.093752 0.659705 0.867187 0.178428
C75   C     C_3   0.083707 0.611828 0.940633 -0.285886
C76   C     C_3   0.015189 0.641509 0.986187 -0.990321
C77   C     C_3   0.897472 0.032593 0.679526 0.238970
C78   C     C_R   0.503807 0.674871 0.952412 0.123745
C79   C     C_3   0.810097 0.954005 0.687332 -0.885549
C80   C     C_3   0.100505 0.948957 0.220708 0.237810
C81   C     C_3   0.222387 0.013517 0.305932 -0.922416
C82   C     C_R   0.086913 0.182762 0.702552 -0.351202
H1    H     H_    0.234142 0.113665 0.932662 0.118353
H2    H     H_    0.927975 0.819816 0.013220 0.137535
H3    H     H_    0.807643 0.530626 0.381256 0.148535
H4    H     H_    0.075283 0.490126 0.650981 0.179034
H5    H     H_    0.968391 0.695101 0.545552 0.115043
H6    H     H_    0.920275 0.332762 0.495647 0.135794
H7    H     H_    0.664568 0.091286 0.668198 0.138597
H8    H     H_    0.352491 0.787041 0.309290 0.132843
H9    H     H_    0.657674 0.093351 0.512371 0.161601
H10   H     H_    0.355326 0.788942 0.472663 0.159975
H11   H     H_    0.234836 0.201562 0.212467 0.123614
H12   H     H_    0.831945 0.969971 0.146706 0.089515
H13   H     H_    0.861003 0.923911 0.897810 0.122993
H14   H     H_    0.749393 0.199350 0.373185 0.190378
H15   H     H_    0.164145 0.816598 0.644785 0.158125
H16   H     H_    0.071891 0.200112 0.220949 0.133557
H17   H     H_    0.020821 0.925166 0.888894 0.118066
H18   H     H_    0.325230 0.857633 0.184036 0.134640
H19   H     H_    0.678580 0.062238 0.804549 0.136893
H20   H     H_    0.668518 0.353928 0.020668 0.183094
H21   H     H_    0.327289 0.623278 0.895130 0.217967
H22   H     H_    0.321391 0.163937 0.833333 0.114884
H23   H     H_    0.018183 0.133607 0.620405 0.118496
H24   H     H_    0.678969 0.802862 0.059529 0.127263
H25   H     H_    0.232424 0.938049 0.109070 0.119667
H26   H     H_    0.828491 0.145766 0.971838 0.106024
H27   H     H_    0.209876 0.412512 0.602627 0.132103
H28   H     H_    0.337867 0.414130 0.638333 0.063394
H29   H     H_    0.310646 0.620258 0.702461 0.212679
H30   H     H_    0.435871 0.617398 0.723430 0.192399
H31   H     H_    0.351431 0.509465 0.521962 0.260300
H32   H     H_    0.353753 0.639049 0.563512 0.276313
H33   H     H_    0.227158 0.515729 0.502706 0.269277
H34   H     H_    0.921741 0.728946 0.254714 0.151678
H35   H     H_    0.723954 0.468473 0.814138 0.101970
H36   H     H_    0.580245 0.370445 0.739467 0.002080
H37   H     H_    0.626163 0.235367 0.781870 0.201645
H38   H     H_    0.674029 0.273584 0.699330 0.154533
H39   H     H_    0.862468 0.400008 0.858963 0.255065
H40   H     H_    0.815207 0.263947 0.840654 0.237995
H41   H     H_    0.816756 0.366584 0.945331 0.264773
H42   H     H_    0.819967 0.996961 0.376281 0.122146
H43   H     H_    0.703051 0.928280 0.245515 0.105151
H44   H     H_    0.717109 0.890356 0.438442 0.203694
H45   H     H_    0.196866 0.243589 0.650002 0.122809
H46   H     H_    0.595192 0.816115 0.306614 0.202044
H47   H     H_    0.685921 0.742256 0.222338 0.276778
H48   H     H_    0.695481 0.712188 0.330264 0.273808
H49   H     H_    0.814226 0.819194 0.350941 0.268724
H50   H     H_    0.279163 0.952545 0.498097 0.154156
H51   H     H_    0.338896 0.053712 0.636555 0.063342
H52   H     H_    0.106123 0.855695 0.505982 0.207904
H53   H     H_    0.169702 0.975087 0.635594 0.174030
H54   H     H_    0.183347 0.085858 0.533085 0.260775
H55   H     H_    0.048209 0.000432 0.504804 0.261570
H56   H     H_    0.724537 0.603104 0.133065 0.152257
H57   H     H_    0.090744 0.954967 0.410799 0.303893
H58   H     H_    0.882574 0.450242 0.137254 0.150274
H59   H     H_    0.819454 0.307041 0.088461 0.088757
H60   H     H_    0.013743 0.485888 0.320440 0.222893
H61   H     H_    0.957126 0.340827 0.268861 0.188852
H62   H     H_    0.010018 0.325415 0.127624 0.271566
H63   H     H_    0.126588 0.417120 0.263060 0.269973
H64   H     H_    0.069144 0.471499 0.181197 0.271548
H65   H     H_    0.011149 0.621690 0.795061 0.108339
H66   H     H_    0.125620 0.749061 0.912823 0.097008
H67   H     H_    0.337475 0.376619 0.994013 0.150510
H68   H     H_    0.045344 0.521652 0.894087 0.208301
H69   H     H_    0.166926 0.643934 0.009038 0.206241
H70   H     H_    0.055872 0.731407 0.036209 0.280635
H71   H     H_    0.007837 0.604342 0.037868 0.283226
H72   H     H_    0.931679 0.611161 0.919584 0.264561
H73   H     H_    0.933579 0.986841 0.644323 0.087815
H74   H     H_    0.857453 0.060864 0.625482 0.120029
H75   H     H_    0.779321 0.998175 0.732006 0.259132
H76   H     H_    0.740388 0.889274 0.605152 0.214303
H77   H     H_    0.845320 0.915037 0.730380 0.241511
H78   H     H_    0.730955 0.698180 0.894771 0.132998
H79   H     H_    0.060035 0.996505 0.242891 0.100844
H80   H     H_    0.094268 0.938011 0.142948 0.110980
H81   H     H_    0.262085 0.962801 0.292456 0.265820
H82   H     H_    0.263089 0.087262 0.301316 0.217097
H83   H     H_    0.234722 0.040127 0.388238 0.247859
H84   H     H_    0.158379 0.262901 0.965697 0.158241
N1    N     N_R   0.293810 0.002730 0.945950 -0.047217
N2    N     N_R   0.443210 0.997250 0.791090 -0.090876
N3    N     N_R   0.443180 0.152110 0.945950 -0.046774
N4    N     N_R   0.556820 0.847890 0.054050 -0.057431
N5    N     N_R   0.706170 0.208950 0.152090 -0.103433
N6    N     N_R   0.293830 0.791050 0.847910 -0.093221
N7    N     N_R   0.293800 0.945910 0.002760 -0.045021
N8    N     N_R   0.706200 0.054090 0.997240 -0.037384
N9    N     N_R   0.706190 0.997270 0.054050 -0.036089
N10   N     N_R   0.706160 0.152130 0.208910 -0.062132
N11   N     N_R   0.293840 0.847870 0.791090 -0.068188
N12   N     N_R   0.443140 0.945920 0.152090 -0.052791
N13   N     N_R   0.556860 0.054080 0.847910 -0.063867
N14   N     N_R   0.556830 0.208940 0.002760 -0.061264
N15   N     N_R   0.443170 0.791060 0.997240 -0.050395
N16   N     N_R   0.556790 0.002750 0.208910 -0.088708
Ni1   Ni    Ni4+2 0.369690 0.999990 0.869700 0.198028
Ni2   Ni    Ni4+2 0.630310 0.000010 0.130300 0.203031
Ni3   Ni    Ni4+2 0.369670 0.869670 0.000000 0.216479
Ni4   Ni    Ni4+2 0.630330 0.130330 0.000000 0.197123
O1    O     O_3   0.306964 0.475708 0.765127 -0.671471
O2    O     O_3   0.666568 0.430380 0.909754 -0.655715
O3    O     O_3   0.698795 0.033455 0.373210 -0.713497
O4    O     O_3   0.303112 0.891011 0.602634 -0.692229
O5    O     O_3   0.797559 0.401601 0.207634 -0.694682
O6    O     O_3   0.164970 0.636457 0.835123 -0.688103
O7    O     O_3   0.977167 0.122676 0.783868 -0.642151
O8    O     O_3   0.053890 0.846792 0.214573 -0.653037

loop_
_geom_bond_atom_site_label_1
_geom_bond_atom_site_label_2
_ccdc_geom_bond_type
N6    N11   A    
C72   H61   S    
C49   N3    A    
C69   H52   S    
N8    Ni4   S    
C63   H41   S    
C58   H27   S    
C33   C45   S    
C14   C18   A    
C60   H32   S    
C24   C27   A    
C48   C56   A    
C38   H16   S    
C44   N14   A    
C49   H22   S    
C29   H7    S    
C64   O3    S    
C53   N7    A    
N13   Ni4   S    
C72   H60   S    
N7    Ni3   S    
C14   C21   A    
C74   H66   S    
C68   H51   S    
C19   C21   A    
C24   C26   A    
C38   C42   A    
C69   C70   S    
C77   H74   S    
C79   H77   S    
C3    H45   S    
C82   H23   S    
C1    N1    A    
C75   H68   S    
C35   C56   S    
C76   H71   S    
C25   H5    S    
C37   H13   S    
N10   Ni2   S    
C52   O6    S    
C22   H3    S    
C76   H72   S    
C37   C42   A    
C68   H50   S    
C2    C13   A    
C77   O7    S    
N8    N9    A    
N3    Ni1   S    
C7    H67   S    
N12   Ni3   S    
C2    H34   S    
C36   H11   S    
N1    Ni1   S    
C75   H69   S    
C68   C69   S    
C22   C25   A    
C59   H29   S    
C31   C33   A    
C19   C67   S    
N3    N14   A    
C62   H38   S    
N5    Ni4   S    
C30   H8    S    
N1    N7    A    
C66   H47   S    
C16   N10   A    
C45   C47   A    
C61   H36   S    
C59   C60   S    
C27   C34   S    
C22   C28   A    
C70   H54   S    
C81   H81   S    
C12   H12   S    
C60   H31   S    
C15   C20   A    
C79   H76   S    
C47   N16   A    
C50   C78   A    
C42   C57   S    
C63   H39   S    
C53   C55   A    
C11   C82   A    
C40   C45   A    
C37   C39   A    
C16   H14   S    
C74   C75   S    
C44   C67   A    
C61   H35   S    
C65   H46   S    
C74   H65   S    
C4    C6    A    
C51   N5    A    
C5    C7    A    
N15   Ni3   S    
C72   C73   S    
C39   C43   A    
C58   C59   S    
C64   H42   S    
C61   O2    S    
C73   H63   S    
C47   O3    S    
C15   C19   A    
C75   C76   S    
C32   C35   A    
C41   C56   A    
C79   H75   S    
C62   C63   S    
C81   H83   S    
C53   H25   S    
C23   C51   A    
C48   N2    A    
C68   O4    S    
N6    Ni3   S    
C18   C78   S    
N2    Ni1   S    
C3    C82   A    
C59   H30   S    
C36   C43   A    
C77   C79   S    
C50   N4    A    
C23   C28   S    
C9    C11   A    
C80   H80   S    
C62   H37   S    
N12   N16   A    
N14   Ni4   S    
C12   N9    A    
C40   N12   A    
C12   C57   A    
C43   C55   S    
C65   C66   S    
C16   C23   A    
C31   H9    S    
C13   O8    S    
N4    N15   A    
C81   H82   S    
C74   O6    S    
C1    H1    S    
C17   C34   A    
C8    H78   S    
C63   H40   S    
C51   O5    S    
C46   N15   A    
C46   C78   A    
C66   H49   S    
N5    N10   A    
C17   N11   A    
C7    C9    A    
C9    H84   S    
C44   H20   S    
C49   C67   A    
C30   C33   A    
N4    Ni2   S    
C58   O1    S    
C58   H28   S    
C46   H21   S    
C34   C52   A    
C41   N13   A    
C8    C10   A    
C11   O7    S    
C80   C81   S    
C3    C5    A    
C10   C13   A    
C40   H18   S    
C6    C8    A    
C71   H58   S    
C54   H26   S    
C25   C27   A    
N2    N13   A    
C80   O8    S    
C15   O2    S    
C29   C35   A    
C26   C28   A    
C71   H59   S    
C73   H64   S    
C65   H44   S    
C54   N8    A    
C36   C38   A    
C1    C55   A    
C71   C72   S    
C29   C31   A    
N11   Ni1   S    
C64   C65   S    
C30   C32   A    
C14   O1    S    
C32   H10   S    
C17   H15   S    
C6    C20   S    
C2    C4    A    
C10   H2    S    
C52   N6    A    
C41   H19   S    
C18   C20   A    
C61   C62   S    
N16   Ni2   S    
C80   H79   S    
C4    H56   S    
C26   H6    S    
C39   H17   S    
C70   H57   S    
C5    C21   S    
C70   H55   S    
C69   H53   S    
C64   H43   S    
C48   O4    S    
C50   H24   S    
C76   H70   S    
C60   H33   S    
C71   O5    S    
C24   H4    S    
C54   C57   A    
C77   H73   S    
N9    Ni2   S    
C66   H48   S    
C73   H62   S    
