data_mof_unit_12099.cif
_audit_creation_date              2012-12-10T17:14:40-0500
_audit_creation_method            fapswitch 2.2
_symmetry_space_group_name_H-M    P1
_symmetry_Int_Tables_number       1
_space_group_crystal_system       triclinic
_cell_length_a                    10.619915
_cell_length_b                    12.981009
_cell_length_c                    11.748161
_cell_angle_alpha                 99.561329
_cell_angle_beta                  92.879029
_cell_angle_gamma                 91.085326
_cell_volume                      1594.44225318

loop_
_atom_site_label
_atom_site_type_symbol
_atom_type_description
_atom_site_fract_x
_atom_site_fract_y
_atom_site_fract_z
_atom_type_partial_charge
C1    C     C_R   0.496983 0.299383 0.478908 0.836059
C2    C     C_R   0.500918 0.700649 0.521336 0.826010
C3    C     C_R   0.526551 0.139197 0.562084 -0.222909
C4    C     C_R   0.460561 0.861374 0.441566 -0.266466
C5    C     C_R   0.516727 0.031213 0.554404 -0.001667
C6    C     C_R   0.470522 0.969354 0.449067 0.006545
C7    C     C_R   0.362201 0.417659 0.027947 0.438818
C8    C     C_R   0.652362 0.560084 0.967994 0.413165
C9    C     C_R   0.381546 0.421350 0.148678 -0.161987
C10   C     C_R   0.632450 0.558995 0.848458 -0.139587
C11   C     C_R   0.563140 0.531883 0.154366 0.654948
C12   C     C_R   0.430151 0.479354 0.849336 0.671924
C13   C     C_R   0.556364 0.521756 0.031177 -0.278679
C14   C     C_R   0.449205 0.471770 0.969102 -0.256640
C15   C     C_R   0.259477 0.499590 0.500603 0.845869
C16   C     C_R   0.740379 0.500250 0.499198 0.845367
C17   C     C_3   0.046605 0.592968 0.557270 -0.337467
C18   C     C_3   0.952735 0.406617 0.441392 -0.318021
C19   C     C_3   0.963677 0.515037 0.609749 -0.308775
C20   C     C_3   0.035661 0.484514 0.388831 -0.274874
C21   C     C_3   0.876913 0.499575 0.498422 -0.090931
C22   C     C_3   0.122625 0.499985 0.500418 -0.104461
C23   C     C_3   0.958747 0.576021 0.447075 0.602458
C24   C     C_3   0.040584 0.423465 0.551539 0.581123
C25   C     C_R   0.502018 0.814101 0.534426 -0.137905
C26   C     C_R   0.490880 0.186097 0.467204 -0.132866
C27   C     C_R   0.437469 0.016315 0.352406 0.514812
C28   C     C_R   0.551404 0.983977 0.650481 0.505580
C29   C     C_R   0.446140 0.124969 0.362904 -0.269267
C30   C     C_R   0.546639 0.875274 0.638788 -0.261436
Cu1   Cu    Cu3+1 0.509400 0.507730 0.615930 0.976716
Cu2   Cu    Cu3+1 0.490600 0.492270 0.384070 0.971978
H1    H     H_    0.930281 0.526960 0.698911 0.145828
H2    H     H_    0.067467 0.472819 0.299091 0.146604
H3    H     H_    0.087897 0.668677 0.603113 0.149499
H4    H     H_    0.911407 0.330844 0.395765 0.151046
H5    H     H_    0.421474 0.813646 0.363032 0.194482
H6    H     H_    0.561709 0.187212 0.642202 0.207091
H7    H     H_    0.579601 0.839018 0.711056 0.170446
H8    H     H_    0.415793 0.161398 0.289996 0.168563
H9    H     H_    0.706093 0.589862 0.802419 0.174364
H10   H     H_    0.320050 0.377455 0.194687 0.163267
N1    N     N_R   0.523540 0.519360 0.790140 -0.258071
N2    N     N_R   0.476460 0.480640 0.209860 -0.247401
O1    O     O_R   0.506670 0.354460 0.582000 -0.561824
O2    O     O_R   0.493330 0.645540 0.418000 -0.574892
O3    O     O_R   0.490800 0.341410 0.386200 -0.598175
O4    O     O_R   0.509200 0.658590 0.613800 -0.596557
O5    O     O_R   0.324790 0.506500 0.597880 -0.526033
O6    O     O_R   0.675210 0.493500 0.402120 -0.517874
O7    O     O_R   0.308910 0.493440 0.402080 -0.611998
O8    O     O_R   0.691090 0.506560 0.597920 -0.615662
O9    O     O_3   0.904541 0.655368 0.393543 -0.561991
C31   C     C_3   0.999874 0.708546 0.345389 -0.267972
H11   H     H_    0.042607 0.656324 0.273640 0.153204
H12   H     H_    0.073839 0.742979 0.412022 0.145103
H13   H     H_    0.956813 0.773758 0.308473 0.192091
O10   O     O_3   0.094189 0.343563 0.604589 -0.551648
C32   C     C_3   0.998807 0.292025 0.654579 -0.258222
H14   H     H_    0.922787 0.258990 0.589359 0.142937
H15   H     H_    0.958861 0.344991 0.727373 0.136194
H16   H     H_    0.041017 0.225971 0.690529 0.202247
O11   O     O_3   0.389193 0.956377 0.250392 -0.587673
C33   C     C_3   0.479562 0.953628 0.166000 -0.372217
H17   H     H_    0.572779 0.928229 0.197457 0.151709
H18   H     H_    0.489661 0.030688 0.137400 0.171417
H19   H     H_    0.446869 0.895761 0.089290 0.188757
O12   O     O_3   0.599832 0.043313 0.752655 -0.592055
C34   C     C_3   0.505533 0.052070 0.833793 -0.327353
H20   H     H_    0.481167 0.974881 0.857468 0.153382
H21   H     H_    0.419518 0.088216 0.801291 0.185045
H22   H     H_    0.542236 0.103908 0.913771 0.194075
O13   O     O_3   0.314599 0.450247 0.793447 -0.485418
C35   C     C_3   0.229757 0.531445 0.826315 -0.194897
H23   H     H_    0.133858 0.504012 0.792589 0.190406
H24   H     H_    0.254667 0.602362 0.789658 0.137085
H25   H     H_    0.224916 0.553192 0.921597 0.108291
O14   O     O_3   0.655837 0.594502 0.220226 -0.502719
C36   C     C_3   0.626235 0.700862 0.223790 -0.160396
H26   H     H_    0.665785 0.746111 0.306734 0.192061
H27   H     H_    0.523017 0.714492 0.217928 0.103713
H28   H     H_    0.670681 0.733581 0.153829 0.172851
O15   O     O_3   0.268485 0.353240 0.963887 -0.524570
C37   C     C_3   0.152394 0.360580 0.018034 -0.330062
H29   H     H_    0.134347 0.441437 0.061798 0.121048
H30   H     H_    0.148083 0.304852 0.080032 0.163296
H31   H     H_    0.075218 0.338008 0.950779 0.188151
O16   O     O_3   0.766854 0.598045 0.021037 -0.561019
C38   C     C_3   0.851777 0.515348 0.012748 -0.272023
H32   H     H_    0.870897 0.485209 0.921058 0.122987
H33   H     H_    0.816923 0.450866 0.055733 0.169872
H34   H     H_    0.942480 0.545516 0.058045 0.174178

loop_
_geom_bond_atom_site_label_1
_geom_bond_atom_site_label_2
_ccdc_geom_bond_type
C7    O15   S    
C16   C21   S    
C27   C29   A    
C18   C21   S    
O13   C35   S    
C37   H31   S    
Cu1   O8    S    
C4    C25   A    
Cu1   Cu2   S    
O9    C31   S    
C2    O2    A    
C9    H10   S    
C17   C23   S    
Cu1   N1    S    
C18   C24   S    
C19   C21   S    
C37   H30   S    
C12   N1    A    
C5    C6    A    
C34   H21   S    
C15   C22   S    
O15   C37   S    
C3    H6    S    
O12   C34   S    
C32   H16   S    
C35   H25   S    
C15   O7    A    
C38   H33   S    
C20   H2    S    
C32   H14   S    
C13   C14   A    
C10   H9    S    
Cu1   O5    S    
C23   O9    S    
C7    C14   A    
C31   H12   S    
C32   H15   S    
C35   H23   S    
C33   H19   S    
C37   H29   S    
C4    C6    A    
C19   H1    S    
C36   H27   S    
O14   C36   S    
C1    O3    A    
C2    O4    A    
O10   C32   S    
C36   H26   S    
C8    O16   S    
C33   H18   S    
C34   H22   S    
Cu2   O7    S    
C11   O14   S    
C5    C28   A    
C6    C27   A    
C20   C23   S    
Cu2   N2    S    
C11   N2    A    
O16   C38   S    
C38   H34   S    
Cu2   O6    S    
C35   H24   S    
C8    C10   A    
C20   C22   S    
Cu1   O4    S    
C21   C23   S    
C1    C26   S    
Cu2   O3    S    
C22   C24   S    
C25   C30   A    
C7    C9    A    
C31   H11   S    
C9    N2    A    
C28   O12   S    
C10   N1    A    
Cu2   O2    S    
C3    C26   A    
C16   O8    A    
C12   C14   A    
C3    C5    A    
C36   H28   S    
C17   C22   S    
C33   H17   S    
C28   C30   A    
C19   C24   S    
C11   C13   A    
C1    O1    A    
C29   H8    S    
C17   C19   S    
C30   H7    S    
C2    C25   S    
C18   C20   S    
C15   O5    A    
C34   H20   S    
C16   O6    A    
O11   C33   S    
C8    C13   A    
C4    H5    S    
C26   C29   A    
C24   O10   S    
Cu1   O1    S    
C27   O11   S    
C17   H3    S    
C38   H32   S    
C12   O13   S    
C18   H4    S    
C31   H13   S    
