data_mof_unit_60902.cif
_audit_creation_date              2012-12-10T21:19:13-0500
_audit_creation_method            fapswitch 2.2
_symmetry_space_group_name_H-M    P1
_symmetry_Int_Tables_number       1
_space_group_crystal_system       triclinic
_cell_length_a                    15.739035
_cell_length_b                    17.525475
_cell_length_c                    16.898147
_cell_angle_alpha                 89.710298
_cell_angle_beta                  90.243712
_cell_angle_gamma                 91.032528
_cell_volume                      4660.22777052

loop_
_atom_site_label
_atom_site_type_symbol
_atom_type_description
_atom_site_fract_x
_atom_site_fract_y
_atom_site_fract_z
_atom_type_partial_charge
C1    C     C_R   0.500549 0.353953 0.500190 0.892417
C2    C     C_R   0.499450 0.646047 0.499809 0.892435
C3    C     C_R   0.419182 0.765061 0.512760 -0.263576
C4    C     C_R   0.580798 0.234931 0.487207 -0.263582
C5    C     C_R   0.496770 0.728068 0.499641 -0.056862
C6    C     C_R   0.503221 0.271931 0.500357 -0.056874
C7    C     C_R   0.573131 0.769269 0.490518 0.112301
C8    C     C_R   0.426858 0.230736 0.509500 0.112323
C9    C     C_R   0.572261 0.848243 0.493428 -0.159903
C10   C     C_R   0.427717 0.151763 0.506586 -0.159914
C11   C     C_R   0.496123 0.885665 0.505460 0.033820
C12   C     C_R   0.503845 0.114334 0.494528 0.033815
C13   C     C_1   0.498812 0.966186 0.501815 0.062831
C14   C     C_1   0.501149 0.033813 0.498173 0.062827
C15   C     C_R   0.442258 0.453178 0.832975 -0.148151
C16   C     C_R   0.557746 0.546818 0.167025 -0.148151
C17   C     C_R   0.445697 0.452116 0.748554 0.027794
C18   C     C_R   0.554309 0.547879 0.251446 0.027792
C19   C     C_R   0.552159 0.549890 0.748428 0.020916
C20   C     C_R   0.447835 0.450114 0.251572 0.020921
C21   C     C_R   0.551191 0.552673 0.832899 -0.160922
C22   C     C_R   0.448803 0.447331 0.167101 -0.160922
C23   C     C_R   0.337955 0.498950 0.499878 0.926605
C24   C     C_R   0.662045 0.501050 0.500122 0.926611
C25   C     C_R   0.496452 0.503201 0.875914 -0.022337
C26   C     C_R   0.503547 0.496799 0.124086 -0.022335
C27   C     C_1   0.498926 0.501009 0.963720 0.138499
C28   C     C_1   0.501073 0.498991 0.036280 0.138497
C29   C     C_3   0.971315 0.476146 0.570649 -0.144985
C30   C     C_3   0.028685 0.523852 0.429353 -0.144990
C31   C     C_3   0.025587 0.428571 0.513893 -0.136788
C32   C     C_3   0.974413 0.571426 0.486108 -0.136790
C33   C     C_1   0.249452 0.498175 0.499717 0.045940
C34   C     C_1   0.750548 0.501824 0.500283 0.045926
C35   C     C_3   0.030073 0.546426 0.556783 -0.145671
C36   C     C_3   0.969926 0.453571 0.443218 -0.145672
C37   C     C_3   0.083804 0.498839 0.500024 -0.007381
C38   C     C_3   0.916195 0.501158 0.499978 -0.007380
C39   C     C_1   0.174424 0.498088 0.499845 0.194915
C40   C     C_1   0.825576 0.501910 0.500155 0.194910
C41   C     C_R   0.418592 0.845316 0.515858 -0.042480
C42   C     C_R   0.581376 0.154676 0.484105 -0.042480
H1    H     H_    0.631116 0.880507 0.485469 0.174829
H2    H     H_    0.368861 0.119504 0.514561 0.174840
N1    N     N_R   0.500020 0.500030 0.707230 -0.176155
N2    N     N_R   0.499980 0.499970 0.292770 -0.176156
O1    O     O_R   0.500000 0.389130 0.566570 -0.606969
O2    O     O_R   0.500000 0.610870 0.433430 -0.606972
O3    O     O_R   0.499990 0.389100 0.433480 -0.609669
O4    O     O_R   0.500010 0.610900 0.566520 -0.609675
O5    O     O_R   0.376780 0.500010 0.566530 -0.607732
O6    O     O_R   0.623220 0.499990 0.433470 -0.607738
O7    O     O_R   0.376780 0.499980 0.433450 -0.597767
O8    O     O_R   0.623220 0.500020 0.566550 -0.597768
Zn1   Zn    Zn3+2 0.500000 0.500020 0.588860 1.028997
Zn2   Zn    Zn3+2 0.500000 0.499980 0.411140 1.028997
C43   C     C_2   0.052837 0.348279 0.529647 0.999647
O9    O     O_2   0.999035 0.297990 0.539313 -0.563728
O10   O     O_R   0.139141 0.331315 0.533304 -0.814942
H3    H     H_    0.149204 0.275307 0.544464 0.348945
C44   C     C_2   0.947163 0.651719 0.470355 0.999644
O11   O     O_2   0.000965 0.702007 0.460688 -0.563726
O12   O     O_R   0.860859 0.668683 0.466699 -0.814936
H4    H     H_    0.850796 0.724691 0.455540 0.348950
C45   C     C_2   0.606797 0.604805 0.705096 1.006899
O13   O     O_2   0.677993 0.586614 0.684727 -0.562338
O14   O     O_R   0.579691 0.679626 0.694130 -0.775722
H5    H     H_    0.623442 0.712811 0.665771 0.345170
C46   C     C_2   0.393190 0.395205 0.294904 1.006889
O15   O     O_2   0.321994 0.413401 0.315265 -0.562332
O16   O     O_R   0.420292 0.320383 0.305880 -0.775718
H6    H     H_    0.376538 0.287203 0.334239 0.345170
C47   C     C_2   0.606087 0.608598 0.876235 0.977595
O17   O     O_2   0.681536 0.615378 0.860166 -0.549756
O18   O     O_R   0.571004 0.653755 0.935264 -0.764136
H7    H     H_    0.614220 0.690263 0.959736 0.366714
C48   C     C_2   0.393904 0.391408 0.123765 0.977588
O19   O     O_2   0.318453 0.384636 0.139831 -0.549749
O20   O     O_R   0.428985 0.346246 0.064741 -0.764129
H8    H     H_    0.385767 0.309740 0.040269 0.366714
C49   C     C_2   0.940538 0.449350 0.650195 1.011214
O21   O     O_2   0.992091 0.431186 0.700857 -0.570696
O22   O     O_R   0.853539 0.445288 0.666070 -0.745156
H9    H     H_    0.840980 0.426489 0.721707 0.373834
C50   C     C_2   0.059462 0.550647 0.349806 1.011222
O23   O     O_2   0.007909 0.568812 0.299145 -0.570699
O24   O     O_R   0.146461 0.554708 0.333931 -0.745128
H10   H     H_    0.159019 0.573507 0.278294 0.373839
C51   C     C_2   0.937665 0.401465 0.379157 1.010807
O25   O     O_2   0.988245 0.366735 0.338902 -0.566272
O26   O     O_R   0.850409 0.392971 0.365629 -0.735221
H11   H     H_    0.836835 0.356463 0.320795 0.385587
C52   C     C_2   0.062335 0.598531 0.620845 1.010814
O27   O     O_2   0.011754 0.633264 0.661098 -0.566273
O28   O     O_R   0.149590 0.607022 0.634377 -0.735229
H12   H     H_    0.163164 0.643529 0.679212 0.385580
C53   C     C_2   0.337569 0.886672 0.527278 0.945951
O29   O     O_2   0.335579 0.942159 0.570798 -0.601603
O30   O     O_R   0.263648 0.862238 0.487995 -0.750534
H13   H     H_    0.212931 0.894814 0.500637 0.372450
C54   C     C_2   0.662390 0.113313 0.472652 0.945940
O31   O     O_2   0.664353 0.057824 0.429133 -0.601600
O32   O     O_R   0.736332 0.137742 0.511903 -0.750543
H14   H     H_    0.787039 0.105162 0.499237 0.372448
C55   C     C_2   0.339697 0.719482 0.525171 1.019111
O33   O     O_2   0.302415 0.723371 0.588171 -0.513964
O34   O     O_R   0.306181 0.672887 0.465458 -0.751538
H15   H     H_    0.340031 0.676319 0.414660 0.324309
C56   C     C_2   0.660282 0.280504 0.474768 1.019177
O35   O     O_2   0.697539 0.276608 0.411755 -0.513962
O36   O     O_R   0.693824 0.327101 0.534466 -0.751554
H16   H     H_    0.659993 0.323675 0.585275 0.324284
N3    N     N_3   0.651679 0.730608 0.479369 -0.440755
H17   H     H_    0.692818 0.745998 0.525571 0.200874
H18   H     H_    0.678783 0.750263 0.426518 0.231741
N4    N     N_3   0.348318 0.269405 0.520669 -0.440764
H19   H     H_    0.307168 0.254025 0.474472 0.200875
H20   H     H_    0.321222 0.249746 0.573521 0.231737
C57   C     C_2   0.380822 0.402722 0.876107 0.955394
O37   O     O_2   0.336243 0.429109 0.927988 -0.572341
O38   O     O_R   0.373776 0.325282 0.857250 -0.754345
H21   H     H_    0.329503 0.297258 0.890348 0.362725
C58   C     C_2   0.619185 0.597271 0.123893 0.955398
O39   O     O_2   0.663758 0.570884 0.072008 -0.572338
O40   O     O_R   0.626241 0.674709 0.142755 -0.754354
H22   H     H_    0.670515 0.702732 0.109656 0.362729
C59   C     C_2   0.386821 0.400938 0.705322 1.011502
O41   O     O_2   0.409142 0.336856 0.687632 -0.584471
O42   O     O_R   0.303308 0.423395 0.691434 -0.762662
H23   H     H_    0.268271 0.382842 0.662940 0.357177
C60   C     C_2   0.613194 0.599048 0.294679 1.011510
O43   O     O_2   0.590881 0.663128 0.312382 -0.584475
O44   O     O_R   0.696706 0.576583 0.308553 -0.762659
H24   H     H_    0.731752 0.617129 0.337049 0.357184

loop_
_geom_bond_atom_site_label_1
_geom_bond_atom_site_label_2
_ccdc_geom_bond_type
C36   C51   S    
C24   O6    A    
C38   C40   S    
O24   H10   S    
C52   O27   D    
C47   O17   D    
O36   H16   S    
C4    C56   S    
C53   O29   D    
C58   O39   D    
C60   O44   S    
C48   O19   D    
C3    C55   S    
C55   O34   S    
C33   C39   T    
C34   C40   T    
C35   C37   S    
C16   C58   S    
C17   N1    A    
C32   C44   S    
N3    H17   S    
C56   O36   S    
C58   O40   S    
C24   O8    A    
C21   C47   S    
N4    H19   S    
C23   C33   S    
C46   O16   S    
C44   O12   S    
C52   O28   S    
C12   C42   A    
C2    O4    A    
C53   O30   S    
O6    Zn2   S    
O28   H12   S    
N4    H20   S    
C45   O14   S    
C29   C38   S    
O34   H15   S    
C11   C41   A    
C32   C38   S    
C51   O26   S    
C48   O20   S    
O10   H3    S    
C54   O32   S    
C13   C14   T    
C47   O18   S    
C18   C60   S    
C46   O15   D    
C18   N2    A    
C49   O22   S    
C54   O31   D    
C23   O7    A    
C35   C52   S    
C16   C26   A    
C9    H1    S    
C50   O24   S    
C10   H2    S    
O14   H5    S    
C32   C35   S    
C4    C6    A    
O26   H11   S    
C5    C7    A    
C1    O1    A    
C6    C8    A    
C2    O2    A    
C50   O23   D    
C49   O21   D    
C31   C37   S    
C30   C37   S    
O18   H7    S    
C59   O42   S    
C29   C49   S    
C23   O5    A    
O22   H9    S    
C29   C31   S    
C30   C50   S    
C9    C11   A    
O38   H21   S    
C57   O38   S    
C10   C12   A    
C16   C18   A    
C12   C14   S    
O44   H24   S    
C41   C53   S    
C20   C46   S    
C2    C5    S    
C59   O41   D    
C42   C54   S    
O32   H14   S    
O1    Zn1   S    
O42   H23   S    
O7    Zn2   S    
O2    Zn2   S    
C21   C25   A    
O8    Zn1   S    
C3    C41   A    
C1    C6    S    
C19   C21   A    
C17   C59   S    
C22   C48   S    
C20   C22   A    
O12   H4    S    
C3    C5    A    
C57   O37   D    
C19   N1    A    
C15   C17   A    
C25   C27   S    
O3    Zn2   S    
C55   O33   D    
C29   C35   S    
C26   C28   S    
O4    Zn1   S    
O30   H13   S    
C30   C36   S    
C7    N3    S    
C36   C38   S    
O16   H6    S    
C37   C39   S    
C56   O35   D    
C30   C32   S    
C11   C13   S    
C31   C43   S    
C43   O9    D    
O40   H22   S    
C4    C42   A    
C15   C57   S    
C19   C45   S    
O5    Zn1   S    
C44   O11   D    
C24   C34   S    
C43   O10   S    
C8    N4    S    
O20   H8    S    
C7    C9    A    
N1    Zn1   S    
C15   C25   A    
C8    C10   A    
C45   O13   D    
C22   C26   A    
N2    Zn2   S    
C27   C28   T    
C31   C36   S    
C51   O25   D    
C1    O3    A    
C20   N2    A    
C60   O43   D    
N3    H18   S    
