data_mof_unit_9948.cif
_audit_creation_date              2012-12-11T15:34:21-0500
_audit_creation_method            fapswitch 2.2
_symmetry_space_group_name_H-M    P1
_symmetry_Int_Tables_number       1
_space_group_crystal_system       triclinic
_cell_length_a                    15.034816
_cell_length_b                    15.034773
_cell_length_c                    34.990487
_cell_angle_alpha                 90.547822
_cell_angle_beta                  90.122757
_cell_angle_gamma                 60.28934
_cell_volume                      6869.30297177

loop_
_atom_site_label
_atom_site_type_symbol
_atom_type_description
_atom_site_fract_x
_atom_site_fract_y
_atom_site_fract_z
_atom_type_partial_charge
C1    C     C_R   0.301537 0.608305 0.555805 0.537051
C2    C     C_R   0.679909 0.655851 0.667523 0.026667
C3    C     C_R   0.270765 0.625099 0.267163 -0.132553
C4    C     C_R   0.185696 0.643807 0.289456 0.008701
C5    C     C_R   0.095422 0.658233 0.271848 -0.014006
C6    C     C_R   0.088873 0.661285 0.232095 -0.130904
C7    C     C_R   0.172392 0.647829 0.209890 0.016889
C8    C     C_R   0.208972 0.560426 0.351363 -0.128560
C9    C     C_R   0.233875 0.550772 0.390004 -0.024051
C10   C     C_R   0.221611 0.718375 0.389002 -0.131751
C11   C     C_R   0.195082 0.728713 0.350264 0.024395
C12   C     C_R   0.194046 0.646228 0.331126 0.027016
C13   C     C_R   0.585414 0.723589 0.651034 -0.118319
C14   C     C_R   0.246652 0.627883 0.408762 -0.015095
C15   C     C_R   0.735853 0.026116 0.943588 0.540319
C16   C     C_R   0.746200 0.722985 0.944906 0.543073
C17   C     C_R   0.038353 0.734111 0.948377 0.541868
C18   C     C_R   0.723324 0.039073 0.052986 0.535032
C19   C     C_R   0.733614 0.734366 0.054600 0.542181
C20   C     C_R   0.027998 0.744675 0.057757 0.545746
C21   C     C_R   0.562239 0.711371 0.613188 -0.008693
C22   C     C_R   0.686350 0.671411 0.786900 0.348033
C23   C     C_R   0.688955 0.661286 0.709385 0.336871
C24   C     C_R   0.762367 0.594973 0.850085 -0.125723
C25   C     C_R   0.775764 0.606990 0.888910 -0.131509
C26   C     C_R   0.636912 0.782470 0.886714 -0.133536
C27   C     C_R   0.624029 0.770608 0.847913 -0.127877
C28   C     C_R   0.689293 0.678111 0.828909 0.033897
C29   C     C_R   0.610815 0.588832 0.555412 0.533803
C30   C     C_R   0.715844 0.702169 0.907214 0.021485
C31   C     C_R   0.723344 0.074517 0.906217 0.004210
C32   C     C_R   0.625435 0.139573 0.891557 -0.111318
C33   C     C_R   0.612098 0.167511 0.852851 0.027152
C34   C     C_R   0.699823 0.129193 0.829009 0.023100
C35   C     C_R   0.797686 0.070569 0.844556 -0.143959
C36   C     C_R   0.809513 0.043728 0.882853 -0.137766
C37   C     C_R   0.700803 0.222722 0.771675 -0.118005
C38   C     C_R   0.695857 0.237658 0.732085 0.036486
C39   C     C_R   0.687369 0.166311 0.707740 0.027751
C40   C     C_R   0.590095 0.300384 0.553529 0.538647
C41   C     C_R   0.684835 0.082384 0.723501 -0.101372
C42   C     C_R   0.683042 0.071285 0.763067 0.020677
C43   C     C_R   0.692802 0.141677 0.787303 0.008537
C44   C     C_R   0.575200 0.202579 0.650200 0.005629
C45   C     C_R   0.553964 0.232266 0.612172 -0.124189
C46   C     C_R   0.720841 0.218022 0.605050 -0.133691
C47   C     C_R   0.743694 0.185700 0.642841 -0.141159
C48   C     C_R   0.669328 0.183128 0.666254 0.008998
C49   C     C_R   0.624294 0.245136 0.589891 0.003096
C50   C     C_R   0.093105 0.697674 0.911634 0.020619
C51   C     C_R   0.300224 0.609783 0.445883 0.535023
C52   C     C_R   0.117483 0.762405 0.890844 -0.131236
C53   C     C_R   0.143964 0.742822 0.852401 -0.124490
C54   C     C_R   0.148706 0.657199 0.834339 0.028800
C55   C     C_R   0.133584 0.587276 0.855607 -0.119569
C56   C     C_R   0.105322 0.607665 0.894105 -0.128782
C57   C     C_R   0.246694 0.566782 0.775827 -0.118062
C58   C     C_R   0.259381 0.562337 0.736117 0.006687
C59   C     C_R   0.181985 0.638035 0.712956 0.015923
C60   C     C_R   0.093917 0.717460 0.730192 -0.130064
C61   C     C_R   0.082930 0.722434 0.769765 -0.117236
C62   C     C_R   0.608296 0.590367 0.445726 0.531103
C63   C     C_R   0.159280 0.647395 0.792681 0.012558
C64   C     C_R   0.188412 0.722865 0.653015 -0.128567
C65   C     C_R   0.212567 0.718514 0.614218 -0.028604
C66   C     C_R   0.237169 0.545523 0.610679 -0.029325
C67   C     C_R   0.212425 0.552027 0.649410 -0.116454
C68   C     C_R   0.193755 0.637885 0.671097 0.000685
C69   C     C_R   0.245705 0.626128 0.592998 -0.012576
C70   C     C_R   0.694300 0.719498 0.090951 0.022118
C71   C     C_R   0.625630 0.805094 0.112780 -0.130185
C72   C     C_R   0.607895 0.793653 0.150990 -0.126378
C73   C     C_R   0.588315 0.301159 0.444237 0.531544
C74   C     C_R   0.657310 0.696443 0.167650 0.030696
C75   C     C_R   0.718865 0.609943 0.145010 -0.119548
C76   C     C_R   0.737703 0.621432 0.106920 -0.127501
C77   C     C_R   0.632411 0.612115 0.224288 -0.126468
C78   C     C_R   0.630780 0.601112 0.263672 -0.134792
C79   C     C_R   0.650599 0.663041 0.288557 0.012796
C80   C     C_R   0.672423 0.736750 0.273484 0.009803
C81   C     C_R   0.672986 0.748046 0.233919 -0.118625
C82   C     C_R   0.652625 0.686189 0.209203 0.013427
C83   C     C_R   0.547903 0.668646 0.344197 -0.138172
C84   C     C_R   0.635501 0.625304 0.591594 0.010768
C85   C     C_R   0.537741 0.654067 0.382568 -0.141626
C86   C     C_R   0.715238 0.609929 0.393744 0.005174
C87   C     C_R   0.723866 0.625875 0.354670 -0.087791
C88   C     C_R   0.640921 0.653416 0.329910 0.013399
C89   C     C_R   0.621160 0.622045 0.407531 0.039150
C90   C     C_R   0.699754 0.100814 0.088779 0.017063
C91   C     C_R   0.772898 0.119982 0.107850 0.008247
C92   C     C_R   0.754884 0.151372 0.146422 -0.098641
C93   C     C_R   0.665625 0.168480 0.165115 0.008126
C94   C     C_R   0.588774 0.162942 0.144732 -0.129912
C95   C     C_R   0.734151 0.564857 0.607023 -0.122630
C96   C     C_R   0.605711 0.129258 0.106977 -0.141575
C97   C     C_R   0.573120 0.261214 0.224288 -0.128702
C98   C     C_R   0.567000 0.269150 0.263926 -0.131442
C99   C     C_R   0.645305 0.194743 0.286403 0.019659
C100  C     C_R   0.731259 0.110643 0.269364 0.023663
C101  C     C_R   0.736984 0.104775 0.229271 -0.091991
C102  C     C_R   0.658598 0.179688 0.206855 0.006346
C103  C     C_R   0.681206 0.262477 0.344105 -0.154989
C104  C     C_R   0.671774 0.284196 0.382713 -0.153008
C105  C     C_R   0.583850 0.185398 0.391541 0.036988
C106  C     C_R   0.758494 0.580762 0.644255 0.008139
C107  C     C_R   0.589618 0.167138 0.351236 0.037884
C108  C     C_R   0.637734 0.207969 0.328051 0.011996
C109  C     C_R   0.619424 0.250909 0.406449 0.023287
C110  C     C_R   0.086067 0.708225 0.093465 0.005492
C111  C     C_R   0.096949 0.619977 0.110946 -0.138112
C112  C     C_R   0.133155 0.597032 0.148136 -0.142424
C113  C     C_R   0.159241 0.661592 0.168450 0.041397
C114  C     C_R   0.156604 0.746517 0.150037 0.029885
C115  C     C_R   0.120551 0.768095 0.112428 -0.118831
C116  C     C_R   0.264526 0.626070 0.227481 -0.127810
Cr1   Cr    Cr6+3 0.421670 0.426920 0.499620 1.068922
Cr2   Cr    Cr6+3 0.427030 0.651190 0.500980 1.015715
Cr3   Cr    Cr6+3 0.651280 0.421870 0.499380 1.008973
Cr4   Cr    Cr6+3 0.910810 0.908010 0.001130 0.997134
Cr5   Cr    Cr6+3 0.682800 0.909890 0.998370 1.009223
Cr6   Cr    Cr6+3 0.908370 0.682300 0.002180 1.010013
H1    H     H_    0.792833 0.502287 0.590318 0.137811
H2    H     H_    0.885916 0.993164 0.893493 0.134094
H3    H     H_    0.817450 0.167811 0.654411 0.118292
H4    H     H_    0.708152 0.276255 0.790599 0.115584
H5    H     H_    0.678515 0.028081 0.704675 0.117048
H6    H     H_    0.479422 0.251747 0.600802 0.157140
H7    H     H_    0.865021 0.041448 0.826476 0.112422
H8    H     H_    0.776847 0.226138 0.588297 0.132284
H9    H     H_    0.109246 0.832162 0.903464 0.127136
H10   H     H_    0.087057 0.556441 0.909392 0.123409
H11   H     H_    0.210501 0.488555 0.663120 0.125583
H12   H     H_    0.306374 0.509849 0.793735 0.108202
H13   H     H_    0.156332 0.796913 0.836255 0.110858
H14   H     H_    0.034038 0.776212 0.712959 0.112079
H15   H     H_    0.014984 0.785170 0.782626 0.113669
H16   H     H_    0.168996 0.791516 0.669576 0.115499
H17   H     H_    0.836935 0.543509 0.903998 0.127613
H18   H     H_    0.137350 0.520628 0.841855 0.110712
H19   H     H_    0.591374 0.881633 0.101222 0.128632
H20   H     H_    0.790643 0.554261 0.090607 0.122562
H21   H     H_    0.795625 0.614859 0.343272 0.140630
H22   H     H_    0.613512 0.544380 0.274867 0.110353
H23   H     H_    0.616784 0.563669 0.205592 0.107166
H24   H     H_    0.559074 0.861094 0.168000 0.105138
H25   H     H_    0.690393 0.804339 0.222300 0.108847
H26   H     H_    0.483782 0.689326 0.325276 0.108609
H27   H     H_    0.465488 0.662631 0.392331 0.134399
H28   H     H_    0.757618 0.534277 0.157418 0.106048
H29   H     H_    0.547295 0.118677 0.092944 0.130302
H30   H     H_    0.501287 0.333509 0.277218 0.113507
H31   H     H_    0.511971 0.319056 0.207213 0.110620
H32   H     H_    0.527080 0.784324 0.668523 0.130016
H33   H     H_    0.811678 0.158780 0.162988 0.111240
H34   H     H_    0.801166 0.041606 0.214934 0.110604
H35   H     H_    0.719203 0.292112 0.326220 0.119346
H36   H     H_    0.700242 0.333138 0.393549 0.144243
H37   H     H_    0.518882 0.176944 0.158862 0.109626
H38   H     H_    0.071837 0.571910 0.096788 0.131200
H39   H     H_    0.113353 0.835778 0.098797 0.121376
H40   H     H_    0.813165 0.522431 0.836259 0.126655
H41   H     H_    0.341746 0.610319 0.280595 0.108707
H42   H     H_    0.330595 0.611912 0.210571 0.103363
H43   H     H_    0.135133 0.531901 0.161985 0.111825
H44   H     H_    0.017945 0.676681 0.218362 0.115681
H45   H     H_    0.205254 0.498736 0.336424 0.115267
H46   H     H_    0.226950 0.779867 0.403249 0.137411
H47   H     H_    0.589084 0.856649 0.899986 0.130745
H48   H     H_    0.565422 0.835273 0.832525 0.117444
H49   H     H_    0.559296 0.165450 0.910040 0.122828
N1    N     N_R   0.733118 0.579469 0.768499 -0.246376
N2    N     N_R   0.733274 0.574613 0.730491 -0.258198
N3    N     N_R   0.641502 0.753081 0.727816 -0.250072
N4    N     N_R   0.640752 0.757936 0.765788 -0.255936
O1    O     O_R   0.502070 0.323090 0.541280 -0.504925
O2    O     O_R   0.520720 0.641670 0.461580 -0.506136
O3    O     O_R   0.674120 0.502090 0.457500 -0.522056
O4    O     O_R   0.640110 0.338380 0.459630 -0.507044
O5    O     O_3   0.499990 0.499990 0.499990 -0.243595
O6    O     O_R   0.017640 0.822070 0.960410 -0.523824
O7    O     O_R   0.822000 0.989470 0.960340 -0.502770
O8    O     O_R   0.666920 0.007430 0.955290 -0.518051
O9    O     O_R   0.694410 0.812480 0.959650 -0.502003
O10   O     O_R   0.831550 0.656950 0.958960 -0.520625
O11   O     O_R   0.998590 0.685540 0.963930 -0.501031
O12   O     O_R   0.338340 0.520690 0.539540 -0.481642
O13   O     O_R   0.008220 0.831200 0.045060 -0.531017
O14   O     O_R   0.813270 0.997930 0.038810 -0.512702
O15   O     O_R   0.657500 0.016560 0.039940 -0.521662
O16   O     O_R   0.685680 0.820940 0.038120 -0.502497
O17   O     O_R   0.822130 0.666070 0.043610 -0.518896
O18   O     O_R   0.989860 0.694000 0.042400 -0.499403
O19   O     O_3   0.833990 0.833400 0.000560 -0.231798
O20   O     O_R   0.324760 0.674070 0.543580 -0.507272
O21   O     O_R   0.522400 0.640310 0.540110 -0.506903
O22   O     O_R   0.675940 0.500630 0.542210 -0.519618
O23   O     O_R   0.641790 0.337020 0.538150 -0.500631
O24   O     O_R   0.500260 0.324550 0.456580 -0.507090
O25   O     O_R   0.336660 0.522040 0.461020 -0.479099
O26   O     O_R   0.322940 0.675540 0.458880 -0.522685
C117  C     C_3   0.695980 0.332058 0.717424 -0.258583
C118  C     C_3   0.803189 0.319125 0.719480 -0.433149
H50   H     H_    0.826217 0.318126 0.749723 0.161395
H51   H     H_    0.859915 0.246862 0.705170 0.139960
H52   H     H_    0.803859 0.383813 0.704832 0.169733
H53   H     H_    0.667672 0.350115 0.687667 0.172034
H54   H     H_    0.642618 0.399813 0.734924 0.171066
C119  C     C_3   0.504762 0.237067 0.838014 -0.274855
C120  C     C_3   0.434071 0.192544 0.844600 -0.446502
H55   H     H_    0.472572 0.110309 0.836414 0.156199
H56   H     H_    0.411163 0.200342 0.875121 0.141508
H57   H     H_    0.363557 0.234899 0.827255 0.142145
H58   H     H_    0.472205 0.312426 0.852903 0.139187
H59   H     H_    0.504969 0.251952 0.807026 0.165561
C121  C     C_3   0.665490 0.987014 0.778066 -0.274232
C122  C     C_3   0.560380 0.004355 0.765695 -0.405598
H60   H     H_    0.500966 0.086101 0.769214 0.168875
H61   H     H_    0.562261 0.981967 0.735249 0.180079
H62   H     H_    0.538102 0.957724 0.783349 0.152006
H63   H     H_    0.726148 0.911777 0.766868 0.159359
H64   H     H_    0.669582 0.982567 0.809689 0.158977
C123  C     C_1   0.496267 0.199469 0.672703 0.211110
N5    N     N_1   0.433015 0.197063 0.690702 -0.311262
C124  C     C_3   0.458152 0.790306 0.598176 -0.248674
C125  C     C_3   0.467710 0.857603 0.567854 -0.404056
H65   H     H_    0.501792 0.901748 0.580658 0.146866
H66   H     H_    0.516506 0.811285 0.543574 0.159511
H67   H     H_    0.390543 0.912415 0.556739 0.154770
H68   H     H_    0.415117 0.753351 0.587383 0.203020
H69   H     H_    0.409438 0.842157 0.621537 0.137624
C126  C     C_1   0.355210 0.483916 0.720156 0.189856
N6    N     N_1   0.432226 0.421444 0.707403 -0.309690
C127  C     C_1   0.202628 0.810427 0.597434 0.200127
N7    N     N_1   0.194227 0.884340 0.584078 -0.313526
C128  C     C_1   0.254592 0.453829 0.590554 0.215898
N8    N     N_1   0.268206 0.380366 0.574555 -0.294886
C129  C     C_1   0.691817 0.803026 0.297953 0.197560
N9    N     N_1   0.707799 0.855761 0.317623 -0.332835
C130  C     C_3   0.868504 0.516889 0.657576 -0.280141
C131  C     C_3   0.940630 0.540393 0.634569 -0.433670
H70   H     H_    0.941814 0.519481 0.603986 0.154901
H71   H     H_    0.916204 0.623129 0.636968 0.161169
H72   H     H_    0.019671 0.495443 0.645923 0.147313
H73   H     H_    0.878272 0.531269 0.687938 0.175239
H74   H     H_    0.892911 0.434285 0.654444 0.140354
C132  C     C_3   0.806139 0.581527 0.419617 -0.273204
C133  C     C_3   0.785013 0.668057 0.447795 -0.425207
H75   H     H_    0.765312 0.739400 0.432118 0.163123
H76   H     H_    0.721158 0.682685 0.467410 0.148459
H77   H     H_    0.854487 0.646545 0.465205 0.144183
H78   H     H_    0.826533 0.510193 0.435290 0.171442
H79   H     H_    0.874860 0.565542 0.402525 0.147372
C134  C     C_3   0.870938 0.101990 0.088078 -0.260098
C135  C     C_3   0.927673 0.151264 0.107349 -0.472224
H80   H     H_    0.874507 0.233829 0.113219 0.154533
H81   H     H_    0.964365 0.111109 0.134256 0.139649
H82   H     H_    0.989317 0.144529 0.088053 0.137376
H83   H     H_    0.924891 0.018329 0.085792 0.181192
H84   H     H_    0.851119 0.134509 0.058877 0.156501
C136  C     C_3   0.541934 0.108770 0.332501 -0.273773
C137  C     C_3   0.425439 0.174771 0.330746 -0.441879
H85   H     H_    0.391801 0.200094 0.359697 0.165792
H86   H     H_    0.403809 0.243523 0.313089 0.153952
H87   H     H_    0.392685 0.129978 0.317496 0.139076
H88   H     H_    0.569907 0.084275 0.302865 0.165135
H89   H     H_    0.564940 0.035884 0.347364 0.164346
C138  C     C_3   0.813567 0.029905 0.294772 -0.269818
C139  C     C_3   0.900733 0.938709 0.274066 -0.444485
H90   H     H_    0.870875 0.897932 0.256160 0.166324
H91   H     H_    0.944072 0.964965 0.256292 0.132912
H92   H     H_    0.953562 0.884362 0.295534 0.154906
H93   H     H_    0.847482 0.066979 0.312634 0.144224
H94   H     H_    0.776995 0.999561 0.314300 0.182265
C140  C     C_3   0.544334 0.133346 0.418680 -0.265997
C141  C     C_3   0.628662 0.059838 0.445497 -0.435832
H95   H     H_    0.694691 0.001286 0.428645 0.157224
H96   H     H_    0.655130 0.101485 0.464509 0.154730
H97   H     H_    0.598838 0.020222 0.463673 0.139475
H98   H     H_    0.514909 0.088216 0.403861 0.136938
H99   H     H_    0.477526 0.190165 0.435372 0.193423
C142  C     C_3   0.167543 0.828268 0.330447 -0.275255
C143  C     C_3   0.261503 0.839576 0.323451 -0.443113
H100  H     H_    0.302310 0.833724 0.350615 0.150351
H101  H     H_    0.314124 0.779656 0.303076 0.146566
H102  H     H_    0.237350 0.915580 0.310753 0.139252
H103  H     H_    0.129893 0.834199 0.302556 0.146959
H104  H     H_    0.111533 0.893499 0.348357 0.140671
C144  C     C_1   0.008909 0.671292 0.294065 0.171361
N10   N     N_1   0.939942 0.681371 0.312017 -0.305568
C145  C     C_1   0.249888 0.458576 0.408624 0.219116
N11   N     N_1   0.262656 0.384607 0.423396 -0.310145
C146  C     C_3   0.184072 0.819700 0.169954 -0.268726
C147  C     C_3   0.099694 0.892447 0.197248 -0.442206
H105  H     H_    0.024883 0.932041 0.182233 0.147577
H106  H     H_    0.093817 0.850193 0.221970 0.163035
H107  H     H_    0.117990 0.950996 0.208284 0.130123
H108  H     H_    0.257660 0.777285 0.185386 0.142388
H109  H     H_    0.196075 0.867009 0.148559 0.129988

loop_
_geom_bond_atom_site_label_1
_geom_bond_atom_site_label_2
_ccdc_geom_bond_type
C136  H88   S    
C44   C48   A    
C55   C56   A    
C135  H81   S    
C18   O14   A    
C115  H39   S    
C94   H37   S    
C80   C81   A    
C143  H101  S    
Cr3   O23   S    
C41   C42   A    
C41   H5    S    
C11   C142  S    
C35   C36   A    
C53   H13   S    
C100  C101  A    
C75   C76   A    
C62   O2    A    
C6    H44   S    
C97   C98   A    
C57   C58   A    
C104  C109  A    
C39   C41   A    
C23   N3    A    
C98   H30   S    
C132  H78   S    
C52   C53   A    
C122  H62   S    
C142  H104  S    
C99   C108  S    
C105  C107  A    
C46   C49   A    
C142  C143  S    
C93   C94   A    
C64   C68   A    
C67   H11   S    
C37   C38   A    
Cr6   O19   S    
Cr5   O16   S    
C131  H70   S    
C3    C116  A    
C14   C51   S    
C147  H105  S    
N3    N4    A    
C95   C106  A    
C65   C69   A    
Cr6   O11   S    
C66   C69   A    
C54   C63   S    
C75   H28   S    
C16   C30   S    
C40   C49   S    
C62   C89   S    
Cr3   O22   S    
C128  N8    T    
C15   C31   S    
C119  C120  S    
C1    O20   A    
C34   C35   A    
C46   C47   A    
C80   C129  S    
C146  H108  S    
C61   C63   A    
C2    C13   A    
C76   H20   S    
C110  C111  A    
C126  N6    T    
C124  H68   S    
C103  C104  A    
C121  H63   S    
C33   C119  S    
C111  C112  A    
C26   H47   S    
C8    C9    A    
C81   H25   S    
C15   O8    A    
C138  H93   S    
C114  C146  S    
C50   C52   A    
C107  C108  A    
C21   C84   A    
C57   C63   A    
C103  C108  A    
Cr3   O3    S    
C134  H84   S    
C4    C12   S    
Cr2   O21   S    
Cr4   O6    S    
C35   H7    S    
C137  H85   S    
C31   C32   A    
C97   C102  A    
Cr1   O24   S    
Cr1   O5    S    
C3    H41   S    
C19   O17   A    
Cr5   O8    S    
C145  N11   T    
C1    C69   S    
C66   C67   A    
C37   H4    S    
C135  H82   S    
C59   C60   A    
C106  C130  S    
C139  H90   S    
C143  H102  S    
C130  H74   S    
C138  H94   S    
C146  C147  S    
Cr3   O4    S    
C137  H87   S    
C116  H42   S    
C133  H75   S    
Cr4   O13   S    
C79   C88   S    
C22   C28   S    
C133  H76   S    
C22   N4    A    
C121  H64   S    
C1    O12   A    
C38   C39   A    
C47   H3    S    
C93   C102  S    
C44   C45   A    
C117  C118  S    
C67   C68   A    
C105  C140  S    
C101  C102  A    
C118  H52   S    
C42   C121  S    
C24   C25   A    
C123  N5    T    
C72   C74   A    
Cr1   O12   S    
C114  C115  A    
C91   C92   A    
C9    C145  S    
C9    C14   A    
C85   C89   A    
C78   C79   A    
C103  H35   S    
Cr6   O10   S    
C137  H86   S    
C100  C138  S    
C101  H34   S    
Cr4   O19   S    
C122  H60   S    
C77   C78   A    
C96   H29   S    
C40   O1    A    
C97   H31   S    
C2    C106  A    
C19   O16   A    
C81   C82   A    
C55   H18   S    
C83   H26   S    
C66   C128  S    
C60   C61   A    
C131  H71   S    
C84   C95   A    
C18   C90   S    
C7    C116  A    
C146  H109  S    
C94   C96   A    
C111  H38   S    
C62   O3    A    
C134  C135  S    
C8    H45   S    
C78   H22   S    
C59   C68   S    
C20   O13   A    
C118  H51   S    
C65   C127  S    
C47   C48   A    
C141  H97   S    
C45   C49   A    
C17   O11   A    
C8    C12   A    
C124  C125  S    
C26   C27   A    
C13   C21   A    
C107  C136  S    
C44   C123  S    
C124  H69   S    
C121  C122  S    
C90   C96   A    
Cr2   O20   S    
C36   H2    S    
C27   H48   S    
C20   O18   A    
C56   H10   S    
Cr1   O25   S    
C38   C117  S    
C29   C84   S    
Cr5   O9    S    
C20   C110  S    
C132  H79   S    
Cr1   O1    S    
C83   C85   A    
C140  C141  S    
C141  H96   S    
C98   C99   A    
C125  H66   S    
C117  H53   S    
C139  H91   S    
C86   C132  S    
C70   C76   A    
C130  H73   S    
C57   H12   S    
Cr2   O26   S    
C127  N7    T    
Cr6   O18   S    
C53   C54   A    
C3    C4    A    
C120  H57   S    
C77   H23   S    
Cr5   O19   S    
C2    C23   S    
C70   C71   A    
N1    N2    A    
C144  N10   T    
C113  C114  A    
C74   C82   S    
Cr3   O5    S    
C95   H1    S    
C25   C30   A    
C105  C109  A    
C129  N9    T    
C18   O15   A    
C15   O7    A    
C51   O25   A    
C130  C131  S    
C25   H17   S    
C86   C87   A    
C52   H9    S    
C32   H49   S    
C147  H107  S    
C24   H40   S    
C34   C43   S    
C24   C28   A    
C104  H36   S    
C4    C5    A    
C86   C89   A    
C5    C144  S    
C17   C50   S    
C46   H8    S    
C54   C55   A    
C132  C133  S    
C16   O9    A    
C136  H89   S    
C6    C7    A    
C23   N2    A    
C91   C134  S    
C122  H61   S    
C125  H67   S    
C21   C124  S    
C120  H56   S    
C119  H58   S    
C119  H59   S    
C99   C100  A    
C71   H19   S    
C60   H14   S    
C16   O10   A    
C131  H72   S    
C64   C65   A    
C7    C113  S    
C140  H98   S    
C58   C59   A    
C71   C72   A    
C29   O21   A    
C50   C56   A    
C32   C33   A    
C147  H106  S    
C141  H95   S    
C61   H15   S    
C90   C91   A    
C5    C6    A    
C40   O23   A    
C77   C82   A    
Cr5   O15   S    
C72   H24   S    
C112  H43   S    
C73   O24   A    
C92   C93   A    
C33   C34   A    
C83   C88   A    
C92   H33   S    
C112  C113  A    
C73   C109  S    
C120  H55   S    
C74   C75   A    
C140  H99   S    
C85   H27   S    
C13   H32   S    
C133  H77   S    
C58   C126  S    
C10   C11   A    
Cr6   O17   S    
C79   C80   A    
C73   O4    A    
Cr2   O2    S    
C17   O6    A    
C142  H103  S    
C29   O22   A    
C134  H83   S    
C138  C139  S    
C87   C88   A    
C10   H46   S    
C125  H65   S    
C42   C43   A    
C139  H92   S    
C51   O26   A    
C143  H100  S    
C136  C137  S    
C31   C36   A    
C19   C70   S    
C117  H54   S    
C45   H6    S    
C118  H50   S    
C87   H21   S    
Cr4   O14   S    
Cr4   O7    S    
C110  C115  A    
C37   C43   A    
C22   N1    A    
C64   H16   S    
C135  H80   S    
C11   C12   A    
C10   C14   A    
C39   C48   S    
C27   C28   A    
C26   C30   A    
Cr2   O5    S    
