data_mof_unit_47507.cif
_audit_creation_date              2012-12-11T15:57:30-0500
_audit_creation_method            fapswitch 2.2
_symmetry_space_group_name_H-M    P1
_symmetry_Int_Tables_number       1
_space_group_crystal_system       triclinic
_cell_length_a                    10.788603
_cell_length_b                    10.747854
_cell_length_c                    17.004585
_cell_angle_alpha                 99.699669
_cell_angle_beta                  99.824594
_cell_angle_gamma                 61.802866
_cell_volume                      1703.49068852

loop_
_atom_site_label
_atom_site_type_symbol
_atom_type_description
_atom_site_fract_x
_atom_site_fract_y
_atom_site_fract_z
_atom_type_partial_charge
C1    C     C_R   0.353970 0.776543 0.402549 0.537857
C2    C     C_2   0.315546 0.310521 0.811585 -0.105236
C3    C     C_2   0.360382 0.195203 0.757638 -0.181201
C4    C     C_R   0.370153 0.346501 0.357260 0.545460
C5    C     C_2   0.388590 0.201989 0.678925 -0.199416
C6    C     C_1   0.845883 0.329543 0.705017 -0.043250
C7    C     C_1   0.892958 0.293974 0.771411 -0.038736
C8    C     C_1   0.339122 0.811462 0.708986 -0.034761
C9    C     C_1   0.312142 0.839122 0.776886 -0.036600
C10   C     C_R   0.890438 0.309926 0.084562 0.554376
C11   C     C_R   0.318808 0.299383 0.119639 0.550325
C12   C     C_2   0.802135 0.347222 0.148937 0.257642
C13   C     C_R   0.289896 0.898533 0.086323 0.537901
C14   C     C_R   0.942985 0.273629 0.853784 0.554828
C15   C     C_R   0.304175 0.288630 0.890771 0.543878
C16   C     C_R   0.768512 0.381104 0.401908 0.540407
C17   C     C_R   0.277761 0.885379 0.856555 0.539865
C18   C     C_R   0.358464 0.770187 0.627000 0.538979
C19   C     C_R   0.364508 0.343876 0.578043 0.574966
C20   C     C_R   0.777236 0.379244 0.628950 0.556330
C21   C     C_1   0.343536 0.336125 0.273868 -0.034357
C22   C     C_1   0.331861 0.326289 0.202948 -0.035299
C23   C     C_2   0.809651 0.242543 0.185388 -0.122815
C24   C     C_2   0.818489 0.344606 0.323763 -0.087954
C25   C     C_2   0.147484 0.391930 0.645185 0.216706
C26   C     C_3   0.656469 0.583146 0.127528 0.017857
C27   C     C_3   0.697934 0.702973 0.139166 -0.347661
C28   C     C_3   0.083040 0.011675 0.357186 0.018530
C29   C     C_3   0.964519 0.968486 0.343439 -0.347742
C30   C     C_2   0.771097 0.269759 0.266564 -0.137805
C31   C     C_2   0.319397 0.866902 0.338832 0.256163
C32   C     C_2   0.329982 0.848135 0.164778 -0.089157
C33   C     C_2   0.401226 0.898519 0.222501 -0.135022
C34   C     C_2   0.425284 0.860685 0.304203 -0.119936
C35   C     C_2   0.301316 0.307935 0.634379 0.001872
Cr1   Cr    Cr6+3 0.608020 0.610770 0.522990 1.060502
Cr2   Cr    Cr6+3 0.289390 0.599570 0.488050 1.063408
Cr3   Cr    Cr6+3 0.602610 0.289690 0.489020 1.010143
Cr4   Cr    Cr6+3 0.053780 0.052210 0.965970 1.035031
Cr5   Cr    Cr6+3 0.060060 0.372530 0.992430 1.020502
Cr6   Cr    Cr6+3 0.372600 0.061970 0.991430 1.004771
H1    H     H_    0.854375 0.133299 0.158425 0.120138
H2    H     H_    0.101583 0.362648 0.686446 0.109191
H3    H     H_    0.545660 0.624547 0.138185 0.137305
H4    H     H_    0.660669 0.538036 0.063444 0.123720
H5    H     H_    0.809036 0.661618 0.126824 0.175640
H6    H     H_    0.628999 0.783852 0.097501 0.121158
H7    H     H_    0.688392 0.753223 0.201904 0.146980
H8    H     H_    0.041009 0.123144 0.346546 0.141042
H9    H     H_    0.126025 0.007453 0.421681 0.116321
H10   H     H_    0.005783 0.856966 0.355879 0.177895
H11   H     H_    0.882025 0.037226 0.383921 0.119444
H12   H     H_    0.495339 0.129264 0.664315 0.169819
H13   H     H_    0.916678 0.977552 0.280187 0.145317
H14   H     H_    0.283186 0.416543 0.796365 0.112056
H15   H     H_    0.707001 0.223921 0.279535 0.146711
H16   H     H_    0.885004 0.387807 0.310869 0.152691
H17   H     H_    0.444672 0.964944 0.209699 0.143112
H18   H     H_    0.533398 0.815722 0.332531 0.120979
H19   H     H_    0.289367 0.779381 0.177866 0.149543
H20   H     H_    0.393189 0.089831 0.774232 0.167187
O1    O     O_R   0.749250 0.499990 0.439200 -0.485871
O2    O     O_R   0.411120 0.181190 0.091480 -0.519799
O3    O     O_R   0.364220 0.944920 0.062310 -0.511551
O4    O     O_R   0.477870 0.725740 0.440280 -0.526563
O5    O     O_R   0.158740 0.906940 0.874970 -0.503994
O6    O     O_R   0.930920 0.176940 0.885610 -0.487134
O7    O     O_R   0.910730 0.394510 0.895320 -0.508603
O8    O     O_R   0.185840 0.361180 0.920280 -0.509619
O9    O     O_R   0.399210 0.173040 0.915160 -0.506319
O10   O     O_R   0.353170 0.937370 0.898860 -0.507128
O11   O     O_3   0.162150 0.162240 0.983280 -0.275322
O12   O     O_R   0.299400 0.468710 0.556310 -0.444128
O13   O     O_R   0.260770 0.742210 0.412610 -0.510013
O14   O     O_R   0.297990 0.466320 0.394220 -0.493433
O15   O     O_R   0.487720 0.253870 0.385870 -0.527599
O16   O     O_R   0.721940 0.304340 0.422320 -0.519305
O17   O     O_R   0.750770 0.502570 0.614050 -0.473403
O18   O     O_R   0.479280 0.728140 0.602370 -0.498799
O19   O     O_R   0.262290 0.744790 0.587460 -0.501039
O20   O     O_2   0.069618 0.492346 0.606784 -0.474469
O21   O     O_3   0.739608 0.486049 0.184624 -0.570625
O22   O     O_3   0.182133 0.929479 0.301340 -0.568727
O23   O     O_R   0.489240 0.256450 0.560730 -0.531780
O24   O     O_R   0.723350 0.306730 0.584410 -0.497566
O25   O     O_3   0.500010 0.500010 0.500020 -0.265113
O26   O     O_R   0.170650 0.915100 0.051290 -0.501517
O27   O     O_R   0.941960 0.184500 0.049060 -0.518770
O28   O     O_R   0.922640 0.402670 0.071640 -0.506725
O29   O     O_R   0.196880 0.368740 0.083740 -0.492689

loop_
_geom_bond_atom_site_label_1
_geom_bond_atom_site_label_2
_ccdc_geom_bond_type
C27   H7    S    
Cr2   O13   S    
C33   H17   S    
C13   C32   S    
Cr4   O26   S    
C25   H2    S    
C26   H3    S    
C18   O19   A    
Cr3   O15   S    
C12   C23   D    
C10   O27   A    
C26   C27   S    
C23   H1    S    
Cr3   O25   S    
C1    O13   A    
C5    H12   S    
C28   C29   S    
C11   O2    A    
C2    H14   S    
C29   H13   S    
C1    C31   S    
C31   O22   S    
C16   O16   A    
C4    O14   A    
C26   H4    S    
C28   H9    S    
C7    C14   S    
C10   O28   A    
C8    C9    T    
C1    O4    A    
C14   O6    A    
Cr5   O28   S    
Cr6   O10   S    
Cr2   O14   S    
C16   C24   S    
C21   C22   T    
C28   O22   S    
C25   O20   D    
C16   O1    A    
Cr4   O27   S    
Cr1   O1    S    
C3    H20   S    
C15   O8    A    
Cr2   O19   S    
Cr5   O8    S    
Cr3   O24   S    
C23   C30   S    
Cr2   O25   S    
C19   O12   A    
Cr1   O4    S    
C18   O18   A    
Cr1   O25   S    
C30   H15   S    
C8    C18   S    
C28   H8    S    
Cr4   O11   S    
C20   O24   A    
C13   O26   A    
C33   C34   S    
C17   O5    A    
C31   C34   D    
C12   O21   S    
C2    C15   S    
C10   C12   S    
C25   C35   S    
Cr6   O11   S    
C27   H5    S    
C9    C17   S    
C17   O10   A    
C34   H18   S    
Cr4   O5    S    
Cr6   O2    S    
C19   O23   A    
C29   H10   S    
C27   H6    S    
C15   O9    A    
Cr2   O12   S    
C14   O7    A    
Cr5   O11   S    
Cr3   O23   S    
Cr4   O6    S    
C24   H16   S    
C3    C5    S    
Cr1   O18   S    
C6    C7    T    
Cr3   O16   S    
C6    C20   S    
C11   C22   S    
C20   O17   A    
C32   C33   D    
C2    C3    D    
Cr1   O17   S    
C4    C21   S    
C11   O29   A    
C13   O3    A    
C5    C35   D    
C24   C30   D    
C4    O15   A    
C26   O21   S    
Cr5   O7    S    
C32   H19   S    
C19   C35   S    
Cr6   O3    S    
Cr5   O29   S    
Cr6   O9    S    
C29   H11   S    
