data_mof_unit_41734.cif
_audit_creation_date              2012-12-11T17:01:27-0500
_audit_creation_method            fapswitch 2.2
_symmetry_space_group_name_H-M    P1
_symmetry_Int_Tables_number       1
_space_group_crystal_system       triclinic
_cell_length_a                    15.159993
_cell_length_b                    15.043848
_cell_length_c                    14.923871
_cell_angle_alpha                 108.908158
_cell_angle_beta                  108.366294
_cell_angle_gamma                 110.513868
_cell_volume                      2639.36784008

loop_
_atom_site_label
_atom_site_type_symbol
_atom_type_description
_atom_site_fract_x
_atom_site_fract_y
_atom_site_fract_z
_atom_type_partial_charge
C1    C     C_R   0.983430 0.791954 0.075290 -0.142901
C2    C     C_R   0.210469 0.800968 0.300179 -0.117778
C3    C     C_R   0.921820 0.407776 0.216966 -0.080443
C4    C     C_R   0.783159 0.213635 0.690609 -0.099021
C5    C     C_R   0.301422 0.591342 0.000097 -0.138661
C6    C     C_R   0.958637 0.498089 0.313083 0.090507
C7    C     C_R   0.305760 0.500310 0.946379 0.050358
C8    C     C_R   0.301635 0.862057 0.297646 0.058187
C9    C     C_R   0.931444 0.134200 0.934110 -0.041753
C10   C     C_3   0.478184 0.386728 0.877089 -0.592023
C11   C     C_3   0.375437 0.389279 0.863935 -0.426082
C12   C     C_R   0.681910 0.169090 0.680373 0.062766
C13   C     C_3   0.584804 0.533598 0.072762 0.423047
C14   C     C_3   0.558513 0.579562 0.913960 0.505123
C15   C     C_3   0.578181 0.502882 0.958673 0.074433
C16   C     C_R   0.025085 0.594189 0.781860 -0.157576
C17   C     C_3   0.403609 0.502045 0.949310 0.241193
C18   C     C_3   0.477672 0.525145 0.064533 -0.251873
C19   C     C_3   0.462460 0.589449 0.922863 -0.602738
C20   C     C_R   0.584660 0.031208 0.490654 0.168242
C21   C     C_R   0.583795 0.095316 0.580990 0.019095
C22   C     C_R   0.488994 0.095810 0.572591 -0.165640
C23   C     C_R   0.953909 0.507405 0.680647 0.155495
C24   C     C_R   0.394428 0.031003 0.473456 -0.038793
C25   C     C_R   0.395939 0.962083 0.384355 -0.108343
C26   C     C_R   0.491912 0.965872 0.393754 0.089974
C27   C     C_3   0.548808 0.991627 0.331674 -0.237197
C28   C     C_R   0.686342 0.408943 0.945465 -0.128690
C29   C     C_3   0.651159 0.064209 0.438908 -0.633428
C30   C     C_R   0.994873 0.601120 0.495527 -0.122538
C31   C     C_R   0.933771 0.502056 0.400168 -0.116028
C32   C     C_R   0.849039 0.414498 0.392509 0.456368
C33   C     C_R   0.834261 0.429699 0.484529 -0.253877
C34   C     C_R   0.676370 0.500881 0.967033 0.055620
C35   C     C_R   0.918417 0.519569 0.585381 0.027100
C36   C     C_R   0.987368 0.611446 0.586764 0.086066
C37   C     C_3   0.105407 0.696369 0.659805 -0.636669
C38   C     C_3   0.113197 0.683633 0.558152 0.507033
C39   C     C_R   0.956584 0.964073 0.052048 0.107505
C40   C     C_R   0.939410 0.413027 0.686616 -0.088069
C41   C     C_R   0.992240 0.908922 0.992580 0.071067
C42   C     C_R   0.970153 0.898032 0.889448 -0.163486
C43   C     C_R   0.931626 0.960510 0.856818 -0.042237
C44   C     C_R   0.918448 0.034091 0.931064 -0.065795
C45   C     C_R   0.008612 0.589847 0.305278 -0.106630
C46   C     C_R   0.919840 0.025359 0.021934 0.118687
C47   C     C_3   0.968497 0.109935 0.137883 -0.522078
C48   C     C_3   0.008026 0.039943 0.170741 -0.267650
C49   C     C_R   0.777864 0.591819 0.034343 -0.043730
C50   C     C_R   0.689536 0.215272 0.780598 -0.099658
C51   C     C_R   0.076267 0.793994 0.985135 -0.134489
C52   C     C_R   0.026715 0.843366 0.026137 0.080716
C53   C     C_2   0.792558 0.147088 0.987042 0.405014
C54   C     C_3   0.678693 0.774272 0.027901 0.237786
C55   C     C_3   0.635939 0.834648 0.977771 -0.364061
C56   C     C_R   0.211753 0.408854 0.912342 -0.153832
C57   C     C_3   0.645251 0.931737 0.063375 -0.942711
C58   C     C_3   0.744835 0.639872 0.242021 0.169867
C59   C     C_3   0.706736 0.647050 0.326509 -0.323165
C60   C     C_3   0.784816 0.652609 0.424868 -0.893872
C61   C     C_2   0.493082 0.618832 0.159572 0.568976
C62   C     C_2   0.297979 0.040874 0.462351 0.515929
C63   C     C_2   0.516342 0.052531 0.278013 0.541817
C64   C     C_3   0.800084 0.231875 0.315754 0.219166
C65   C     C_3   0.918067 0.258267 0.367849 -0.425727
C66   C     C_3   0.925649 0.165363 0.383561 -0.958056
C67   C     C_R   0.298243 0.800299 0.204669 -0.099807
C68   C     C_2   0.731211 0.356195 0.473728 0.504521
C69   C     C_3   0.162966 0.545043 0.536702 0.241926
C70   C     C_3   0.268140 0.551072 0.599770 -0.277270
C71   C     C_3   0.248001 0.442355 0.594908 -1.032930
C72   C     C_2   0.908493 0.950752 0.748743 0.504389
C73   C     C_2   0.129041 0.094436 0.231680 0.589657
C74   C     C_R   0.896568 0.194385 0.987811 0.003058
C75   C     C_R   0.999518 0.197933 0.909011 -0.113684
H1    H     H_    0.947785 0.816404 0.123784 0.075326
H2    H     H_    0.327540 0.372780 0.780626 0.197916
H3    H     H_    0.809161 0.187105 0.632920 0.094783
H4    H     H_    0.327655 0.321970 0.874377 0.185233
H5    H     H_    0.590709 0.469322 0.092215 0.015335
H6    H     H_    0.435359 0.451915 0.070890 0.054873
H7    H     H_    0.527153 0.532948 0.825135 0.094717
H8    H     H_    0.405835 0.576093 0.844494 0.160882
H9    H     H_    0.485399 0.669936 0.984006 0.205183
H10   H     H_    0.489984 0.150567 0.641694 0.161405
H11   H     H_    0.053177 0.677917 0.803985 0.120284
H12   H     H_    0.182619 0.324465 0.859825 0.103762
H13   H     H_    0.548209 0.919989 0.277537 0.197022
H14   H     H_    0.708792 0.033830 0.446111 0.208030
H15   H     H_    0.687337 0.152303 0.464557 0.194606
H16   H     H_    0.117005 0.777369 0.708177 0.196367
H17   H     H_    0.154530 0.672104 0.708270 0.199523
H18   H     H_    0.129881 0.758288 0.550809 0.066644
H19   H     H_    0.623771 0.325401 0.904228 0.118468
H20   H     H_    0.984531 0.843097 0.836058 0.160532
H21   H     H_    0.033474 0.190236 0.160199 0.216985
H22   H     H_    0.905653 0.113792 0.159149 0.173149
H23   H     H_    0.350796 0.825072 0.172001 0.119931
H24   H     H_    0.967582 0.003556 0.210631 0.102659
H25   H     H_    0.892173 0.331174 0.619716 0.095442
H26   H     H_    0.798801 0.675193 0.075804 0.147236
H27   H     H_    0.627740 0.188238 0.802576 0.123000
H28   H     H_    0.128982 0.823642 0.954154 0.110331
H29   H     H_    0.031979 0.672391 0.357808 0.086982
H30   H     H_    0.753027 0.063515 0.970060 0.039039
H31   H     H_    0.767737 0.825872 0.075201 0.097220
H32   H     H_    0.653709 0.765144 0.087922 0.191045
H33   H     H_    0.682982 0.863418 0.939039 0.205437
H34   H     H_    0.035275 0.173893 0.860307 0.102064
H35   H     H_    0.550463 0.779723 0.913886 0.213629
H36   H     H_    0.596665 0.904361 0.101318 0.294903
H37   H     H_    0.615430 0.975156 0.025681 0.290454
H38   H     H_    0.730561 0.988404 0.126431 0.240845
H39   H     H_    0.824821 0.713391 0.280258 0.121110
H40   H     H_    0.757941 0.569311 0.217220 0.098531
H41   H     H_    0.699463 0.721003 0.353247 0.233426
H42   H     H_    0.626821 0.574289 0.290408 0.178798
H43   H     H_    0.785157 0.574985 0.400744 0.255450
H44   H     H_    0.758516 0.664793 0.487216 0.283780
H45   H     H_    0.185071 0.825216 0.359423 0.091364
H46   H     H_    0.867390 0.721131 0.460344 0.274648
H47   H     H_    0.461359 0.601908 0.211648 -0.010268
H48   H     H_    0.230076 0.003313 0.382796 -0.016323
H49   H     H_    0.505904 0.118449 0.320692 0.042813
H50   H     H_    0.754884 0.157951 0.235464 0.164885
H51   H     H_    0.762673 0.209663 0.363634 0.086415
H52   H     H_    0.954212 0.273923 0.316646 0.199282
H53   H     H_    0.966223 0.331700 0.448911 0.195145
H54   H     H_    0.896154 0.153612 0.440496 0.263147
H55   H     H_    0.010839 0.185203 0.417862 0.273344
H56   H     H_    0.872115 0.323832 0.191721 0.186158
H57   H     H_    0.877204 0.088457 0.305406 0.258302
H58   H     H_    0.664903 0.292094 0.394390 0.038537
H59   H     H_    0.124869 0.483398 0.450428 0.108749
H60   H     H_    0.108407 0.516630 0.568791 0.081281
H61   H     H_    0.322248 0.573669 0.565350 0.215715
H62   H     H_    0.308753 0.614823 0.685750 0.196484
H63   H     H_    0.197707 0.420480 0.633132 0.268169
H64   H     H_    0.325984 0.448603 0.639216 0.273358
H65   H     H_    0.206620 0.377056 0.509563 0.278344
H66   H     H_    0.870319 0.992336 0.720286 0.003142
H67   H     H_    0.357520 0.675740 0.030495 0.134265
H68   H     H_    0.168015 0.110020 0.314079 -0.008315
H69   H     H_    0.481312 0.328603 0.907199 0.201410
H70   H     H_    0.474796 0.354879 0.796768 0.215561
N1    N     N_R   0.995640 0.706130 0.053910 -0.039064
N2    N     N_R   0.054010 0.556790 0.847890 -0.047582
N3    N     N_R   0.789940 0.443190 0.997130 -0.026735
N4    N     N_R   0.997630 0.443170 0.791110 -0.051361
N5    N     N_R   0.846320 0.556810 0.053910 -0.072828
N6    N     N_R   0.791080 0.293860 0.847890 -0.025343
N7    N     N_R   0.052880 0.706130 0.997130 -0.037973
N8    N     N_R   0.002370 0.556830 0.208890 -0.057014
N9    N     N_R   0.153680 0.443190 0.946090 -0.040532
N10   N     N_R   0.208920 0.706140 0.152110 -0.047300
N11   N     N_R   0.947120 0.293870 0.002870 -0.047433
N12   N     N_R   0.004360 0.293870 0.946090 -0.054548
N13   N     N_R   0.151690 0.706140 0.208890 -0.043170
N14   N     N_R   0.945990 0.443210 0.152110 -0.044090
N15   N     N_R   0.210060 0.556810 0.002870 -0.046337
N16   N     N_R   0.848310 0.293860 0.791110 -0.046779
Ni1   Ni    Ni4+2 0.999010 0.630300 0.130220 0.201548
Ni2   Ni    Ni4+2 0.000990 0.369700 0.869780 0.210857
Ni3   Ni    Ni4+2 0.130280 0.630280 0.000000 0.220902
Ni4   Ni    Ni4+2 0.869720 0.369720 0.000000 0.290320
O1    O     O_2   0.747067 0.199030 0.999937 -0.596805
O2    O     O_2   0.930499 0.895153 0.689647 -0.596064
O3    O     O_2   0.184064 0.124313 0.191224 -0.570633
O4    O     O_3   0.653591 0.675191 0.945715 -0.673389
O5    O     O_3   0.673882 0.639590 0.152914 -0.658328
O6    O     O_2   0.539440 0.712722 0.178405 -0.615594
O7    O     O_2   0.293679 0.092175 0.541630 -0.595437
O8    O     O_2   0.501002 0.027729 0.185895 -0.589910
O9    O     O_3   0.786223 0.314867 0.298210 -0.662076
O10   O     O_2   0.717119 0.369422 0.552123 -0.580556
O11   O     O_3   0.185842 0.647724 0.543350 -0.644394

loop_
_geom_bond_atom_site_label_1
_geom_bond_atom_site_label_2
_ccdc_geom_bond_type
C70   H61   S    
C69   H59   S    
N3    Ni4   S    
C6    C45   A    
C27   C29   S    
C41   C42   A    
C53   C74   S    
C3    C6    A    
C29   H14   S    
C63   H49   S    
C39   C41   A    
N9    N15   A    
N1    Ni1   S    
C26   C27   S    
C43   C72   S    
C54   H32   S    
C16   N2    A    
C3    H56   S    
N15   Ni3   S    
C67   N10   A    
C36   C37   S    
C58   O5    S    
N3    N5    A    
N2    Ni3   S    
C73   O3    D    
C49   H26   S    
C30   C31   A    
C57   H37   S    
C51   H28   S    
C23   C40   A    
C18   H6    S    
C30   C38   S    
C60   H44   S    
C28   H19   S    
C22   H10   S    
C29   H15   S    
C11   H2    S    
C67   H23   S    
C33   C35   A    
C54   C55   S    
C50   N6    A    
C35   C36   A    
C59   H41   S    
C7    C17   S    
C47   C48   S    
C24   C62   S    
C47   H21   S    
C60   H43   S    
C70   C71   S    
N4    Ni2   S    
C69   O11   S    
C4    C12   A    
N12   Ni2   S    
C41   C52   S    
C66   H54   S    
C75   N12   A    
C68   H58   S    
C6    C31   S    
C13   H5    S    
C28   C34   A    
C59   C60   S    
C69   H60   S    
C21   C22   A    
N10   N13   A    
C3    N14   A    
C8    C25   S    
C54   O4    S    
C1    N1    A    
C60   H46   S    
C7    C56   A    
C14   O4    S    
C19   H8    S    
C14   C19   S    
C62   H48   S    
N16   Ni2   S    
C68   O10   D    
C44   C46   A    
C63   O8    D    
C71   H63   S    
C66   H57   S    
C20   C29   S    
C72   H66   S    
N5    Ni1   S    
C28   N3    A    
C75   H34   S    
C37   H16   S    
C42   H20   S    
C65   H53   S    
N9    Ni2   S    
C24   C25   A    
C56   N9    A    
C5    C7    A    
C54   H31   S    
C56   H12   S    
C71   H64   S    
N6    N16   A    
C58   C59   S    
N6    Ni4   S    
C32   O9    S    
C12   C21   S    
C51   C52   A    
C61   H47   S    
N11   N12   A    
N8    N14   A    
C43   C44   A    
C4    H3    S    
C37   C38   S    
C45   H29   S    
C53   H30   S    
C38   O11   S    
C31   C32   A    
C2    N13   A    
C5    N15   A    
C17   C18   S    
C74   N11   A    
C10   H69   S    
N7    Ni3   S    
C11   H4    S    
C8    C67   A    
C39   C46   A    
C61   O6    D    
C13   C18   S    
C13   O5    S    
C51   N7    A    
C50   H27   S    
C16   C23   A    
C23   C35   S    
C13   C15   S    
C55   H35   S    
C58   H40   S    
C72   O2    D    
N1    N7    A    
C45   N8    A    
C42   C43   A    
C14   H7    S    
C64   O9    S    
C19   H9    S    
C65   H52   S    
C73   H68   S    
C48   H24   S    
C46   C47   S    
C11   C17   S    
C9    C44   S    
C2    H45   S    
C15   C34   S    
C37   H17   S    
N2    N4    A    
C14   C15   S    
C1    H1    S    
C48   C73   S    
C2    C8    A    
C40   H25   S    
C57   H38   S    
C18   C61   S    
C71   H65   S    
N10   Ni3   S    
C62   O7    D    
N8    Ni1   S    
C64   H51   S    
C47   H22   S    
C30   C36   A    
C55   H33   S    
C10   C15   S    
C64   C65   S    
C34   C49   A    
C55   C57   S    
C25   C26   A    
C32   C33   A    
C5    H67   S    
C57   H36   S    
C20   C26   A    
N11   Ni4   S    
C16   H11   S    
C38   H18   S    
C17   C19   S    
C49   N5    A    
C40   N4    A    
C22   C24   A    
C65   C66   S    
C27   H13   S    
C1    C52   A    
C69   C70   S    
C10   C11   S    
N13   Ni1   S    
C10   H70   S    
N14   Ni4   S    
C53   O1    D    
C20   C21   A    
C70   H62   S    
C59   H42   S    
C64   H50   S    
C9    C74   A    
C58   H39   S    
C4    N16   A    
C27   C63   S    
C9    C75   A    
C12   C50   A    
C33   C68   S    
C39   C48   S    
C66   H55   S    
