data_mof_unit_68407.cif
_audit_creation_date              2012-12-10T19:47:25-0500
_audit_creation_method            fapswitch 2.2
_symmetry_space_group_name_H-M    P1
_symmetry_Int_Tables_number       1
_space_group_crystal_system       triclinic
_cell_length_a                    10.938661
_cell_length_b                    10.934029
_cell_length_c                    12.953663
_cell_angle_alpha                 90.210029
_cell_angle_beta                  91.828303
_cell_angle_gamma                 87.361867
_cell_volume                      1546.87155559

loop_
_atom_site_label
_atom_site_type_symbol
_atom_type_description
_atom_site_fract_x
_atom_site_fract_y
_atom_site_fract_z
_atom_type_partial_charge
C1    C     C_R   0.262580 0.499175 0.501622 0.891864
C2    C     C_R   0.737461 0.501653 0.498439 0.895142
C3    C     C_R   0.510764 0.871679 0.492717 -0.132215
C4    C     C_R   0.488335 0.128300 0.506887 -0.150508
C5    C     C_R   0.452080 0.940861 0.411703 0.055352
C6    C     C_R   0.547101 0.059052 0.587654 0.052613
C7    C     C_R   0.136196 0.463065 0.871557 0.610010
C8    C     C_R   0.854710 0.550440 0.131745 0.631244
C9    C     C_R   0.142838 0.440350 0.765036 -0.271384
C10   C     C_R   0.855572 0.569187 0.238864 -0.260244
C11   C     C_R   0.121573 0.541328 0.697016 -0.117813
C12   C     C_R   0.878283 0.465332 0.303524 -0.121465
C13   C     C_R   0.121633 0.662536 0.735957 -0.169750
C14   C     C_R   0.875988 0.345698 0.261856 -0.165977
C15   C     C_R   0.117609 0.683034 0.843238 -0.269193
C16   C     C_R   0.873860 0.329302 0.154172 -0.269160
C17   C     C_R   0.115607 0.581529 0.908303 0.610397
C18   C     C_R   0.870658 0.433035 0.091255 0.609986
C19   C     C_R   0.936193 0.529830 0.587994 -0.150987
C20   C     C_R   0.063923 0.473664 0.412025 -0.150978
C21   C     C_R   0.871309 0.504184 0.496463 -0.004375
C22   C     C_R   0.128875 0.497873 0.503883 0.002446
C23   C     C_R   0.495374 0.262613 0.502948 0.834980
C24   C     C_R   0.504160 0.737406 0.496970 0.840490
C25   C     C_R   0.936543 0.480499 0.406596 0.057126
C26   C     C_R   0.063719 0.522303 0.593924 0.068509
C27   C     C_2   0.467663 0.465718 0.033141 0.493489
C28   C     C_2   0.531368 0.534214 0.966811 0.498321
C29   C     C_1   0.522901 0.524539 0.851585 0.296128
C30   C     C_1   0.476684 0.475358 0.148401 0.290449
C31   C     C_R   0.719272 0.239410 0.791165 -0.181355
C32   C     C_R   0.283490 0.758408 0.206924 -0.182984
C33   C     C_R   0.698125 0.172892 0.699085 -0.224082
C34   C     C_R   0.303096 0.825344 0.299128 -0.221999
C35   C     C_R   0.584447 0.117139 0.685810 -0.090893
C36   C     C_R   0.415756 0.882792 0.313026 -0.083568
C37   C     C_R   0.501292 0.117746 0.766304 0.637137
C38   C     C_R   0.498628 0.884444 0.232412 0.635608
C39   C     C_R   0.529594 0.173558 0.859915 -0.199477
C40   C     C_R   0.471361 0.828825 0.138433 -0.197221
C41   C     C_R   0.637292 0.235451 0.872072 0.491882
C42   C     C_R   0.364928 0.764929 0.125900 0.493267
C43   C     C_R   0.564742 0.931958 0.578016 0.009326
C44   C     C_R   0.434347 0.068061 0.421497 0.002427
Cu1   Cu    Cu3+1 0.492140 0.492110 0.395880 1.059967
Cu2   Cu    Cu3+1 0.507860 0.507890 0.604120 1.059093
H1    H     H_    0.887222 0.557660 0.655553 0.194150
H2    H     H_    0.112526 0.449269 0.343280 0.193603
H3    H     H_    0.466954 0.170221 0.922720 0.255495
H4    H     H_    0.533548 0.834399 0.075476 0.254368
N1    N     N_1   0.480320 0.480250 0.239400 -0.172110
N2    N     N_1   0.519680 0.519750 0.760600 -0.171766
O1    O     O_R   0.313000 0.493330 0.412070 -0.567000
O2    O     O_R   0.687000 0.506670 0.587930 -0.563539
O3    O     O_R   0.326280 0.506660 0.587930 -0.573310
O4    O     O_R   0.673720 0.493340 0.412070 -0.571942
O5    O     O_R   0.493370 0.312980 0.412070 -0.546103
O6    O     O_R   0.506630 0.687020 0.587930 -0.550543
O7    O     O_R   0.506650 0.326310 0.587930 -0.602430
O8    O     O_R   0.493350 0.673690 0.412070 -0.600768
F1    F     F_    0.662859 0.290246 0.963699 -0.660807
F2    F     F_    0.339013 0.712074 0.033413 -0.662290
C45   C     C_2   0.119863 0.766643 0.663680 0.962873
O9    O     O_2   0.207581 0.779413 0.609393 -0.562420
O10   O     O_R   0.020244 0.851445 0.659911 -0.705153
H5    H     H_    0.030895 0.919362 0.608347 0.369540
C46   C     C_2   0.881139 0.238733 0.331323 0.953413
O11   O     O_2   0.795626 0.222990 0.387367 -0.559370
O12   O     O_R   0.981174 0.154540 0.330212 -0.716359
H6    H     H_    0.972919 0.084586 0.380297 0.365297
C47   C     C_2   0.114726 0.808265 0.889197 1.049361
O13   O     O_2   0.169061 0.890143 0.849148 -0.495134
O14   O     O_R   0.052768 0.831846 0.980371 -0.622180
H7    H     H_    0.063247 0.918044 0.007101 0.342249
C48   C     C_2   0.876423 0.205665 0.105841 1.059424
O15   O     O_2   0.818830 0.123877 0.142486 -0.521056
O16   O     O_R   0.942822 0.183367 0.016876 -0.623626
H8    H     H_    0.932400 0.098009 0.988217 0.342377
F3    F     F_    0.608096 0.617153 0.007178 -0.644305
F4    F     F_    0.389923 0.383582 0.992794 -0.643822
C49   C     C_2   0.822590 0.318610 0.803014 1.096883
O17   O     O_2   0.926396 0.273781 0.813380 -0.505207
O18   O     O_R   0.800363 0.445357 0.802365 -0.711293
H9    H     H_    0.877526 0.491655 0.814751 0.341785
C50   C     C_2   0.180715 0.678683 0.193794 1.088382
O19   O     O_2   0.076688 0.723324 0.186370 -0.499177
O20   O     O_R   0.203413 0.552069 0.188446 -0.715425
H10   H     H_    0.126007 0.505615 0.177696 0.346810
C51   C     C_2   0.793480 0.160121 0.618937 0.934733
O21   O     O_2   0.802830 0.066769 0.567055 -0.553412
O22   O     O_R   0.875145 0.252587 0.604418 -0.772777
H11   H     H_    0.940424 0.229097 0.553293 0.358098
C52   C     C_2   0.206679 0.838118 0.378227 0.931094
O23   O     O_2   0.195218 0.932402 0.428669 -0.569975
O24   O     O_R   0.126239 0.744751 0.393184 -0.779162
H12   H     H_    0.059723 0.768363 0.443156 0.357728
F5    F     F_    0.393940 0.060870 0.754565 -0.580431
F6    F     F_    0.603985 0.944547 0.244023 -0.602151
C53   C     C_2   0.649995 0.863878 0.652428 0.931979
O25   O     O_2   0.735197 0.800200 0.619690 -0.545566
O26   O     O_R   0.631849 0.870829 0.758671 -0.719467
H13   H     H_    0.695509 0.819873 0.800257 0.369546
C54   C     C_2   0.349171 0.136361 0.347192 0.933082
O27   O     O_2   0.264360 0.200473 0.380062 -0.563470
O28   O     O_R   0.366914 0.129216 0.240903 -0.714481
H14   H     H_    0.303338 0.180407 0.199431 0.370434
F7    F     F_    0.092926 0.596490 0.008649 -0.578213
F8    F     F_    0.882497 0.421092 0.989205 -0.579663
F9    F     F_    0.141853 0.370011 0.940969 -0.504035
F10   F     F_    0.844715 0.646023 0.064944 -0.492817
C55   C     C_2   0.168067 0.311733 0.727692 1.029883
O29   O     O_2   0.187523 0.228640 0.789869 -0.409648
O30   O     O_R   0.172738 0.284441 0.622482 -0.783138
H15   H     H_    0.192171 0.194444 0.608425 0.365431
C56   C     C_2   0.837907 0.696898 0.280433 1.011680
O31   O     O_2   0.822998 0.715075 0.372331 -0.606502
O32   O     O_R   0.836153 0.797536 0.213932 -0.589275
H16   H     H_    0.830794 0.878648 0.252060 0.389996

loop_
_geom_bond_atom_site_label_1
_geom_bond_atom_site_label_2
_ccdc_geom_bond_type
C9    C55   S    
C30   N1    T    
C45   O10   S    
Cu1   O8    S    
O26   H13   S    
Cu2   O7    S    
C16   C48   S    
O14   H7    S    
C55   O29   D    
C34   C52   S    
C41   F1    S    
O20   H10   S    
C37   F5    S    
C49   O17   D    
C39   C41   A    
O16   H8    S    
C23   O7    A    
C3    C43   A    
C52   O23   D    
C28   C29   S    
C35   C37   A    
C43   C53   S    
C8    F10   S    
C17   F7    S    
C50   O19   D    
C19   H1    S    
C20   C25   A    
Cu1   N1    S    
C56   O31   D    
C5    C36   S    
Cu2   N2    S    
C6    C35   S    
C23   O5    A    
C19   C26   A    
C28   F3    S    
C1    O1    A    
C54   O27   D    
C54   O28   S    
C53   O25   D    
Cu1   O4    S    
C56   O32   S    
Cu2   O3    S    
C14   C46   S    
C31   C33   A    
C51   O22   S    
C42   F2    S    
C38   F6    S    
C40   C42   A    
Cu1   O1    S    
C1    C22   S    
C52   O24   S    
Cu2   O6    S    
C27   C30   S    
C3    C24   S    
C49   O18   S    
C44   C54   S    
C50   O20   S    
C46   O11   D    
C4    C6    A    
C27   F4    S    
C2    O2    A    
O22   H11   S    
C47   O14   S    
C4    C23   S    
C4    C44   A    
C11   C26   S    
C7    C17   A    
Cu1   Cu2   S    
C8    C18   A    
C7    F9    S    
C46   O12   S    
C32   C34   A    
C48   O15   D    
C33   C51   S    
C48   O16   S    
O18   H9    S    
C13   C45   S    
C24   O8    A    
Cu1   O5    S    
Cu2   O2    S    
C2    C21   S    
C55   O30   S    
C16   C18   A    
C9    C11   A    
C20   H2    S    
C10   C12   A    
C8    C10   A    
C53   O26   S    
C5    C44   A    
C12   C14   A    
C6    C43   A    
C13   C15   A    
C14   C16   A    
C27   C28   D    
O30   H15   S    
C7    C9    A    
C21   C25   A    
C31   C41   A    
C39   H3    S    
C20   C22   A    
C3    C5    A    
C15   C17   A    
C15   C47   S    
O28   H14   S    
C31   C49   S    
C12   C25   S    
C36   C38   A    
C1    O3    A    
C47   O13   D    
C37   C39   A    
C2    O4    A    
O32   H16   S    
C38   C40   A    
C11   C13   A    
C40   H4    S    
C32   C50   S    
C33   C35   A    
C34   C36   A    
O12   H6    S    
C18   F8    S    
C45   O9    D    
C24   O6    A    
O10   H5    S    
C22   C26   A    
O24   H12   S    
C32   C42   A    
C51   O21   D    
C10   C56   S    
C19   C21   A    
C29   N2    T    
