data_mof_unit_38437.cif
_audit_creation_date              2012-12-10T21:01:00-0500
_audit_creation_method            fapswitch 2.2
_symmetry_space_group_name_H-M    P1
_symmetry_Int_Tables_number       1
_space_group_crystal_system       triclinic
_cell_length_a                    15.869437
_cell_length_b                    15.109412
_cell_length_c                    10.541621
_cell_angle_alpha                 89.439613
_cell_angle_beta                  90.14723
_cell_angle_gamma                 89.817623
_cell_volume                      2527.50509373

loop_
_atom_site_label
_atom_site_type_symbol
_atom_type_description
_atom_site_fract_x
_atom_site_fract_y
_atom_site_fract_z
_atom_type_partial_charge
C1    C     C_R   0.339089 0.500231 0.500621 0.916442
C2    C     C_R   0.660911 0.499769 0.499382 0.916465
C3    C     C_1   0.823611 0.498192 0.498454 -0.055168
C4    C     C_1   0.176389 0.501818 0.501516 -0.055105
C5    C     C_R   0.954496 0.581284 0.491528 0.062315
C6    C     C_R   0.045503 0.418728 0.508392 0.062298
C7    C     C_R   0.043226 0.582362 0.490606 0.052281
C8    C     C_R   0.956774 0.417651 0.509339 0.052290
C9    C     C_R   0.912923 0.498915 0.499811 0.038033
C10   C     C_R   0.087076 0.501099 0.500132 0.037972
C11   C     C_R   0.500580 0.500590 0.257125 0.983926
C12   C     C_R   0.499420 0.499410 0.742875 0.983926
C13   C     C_1   0.251045 0.501101 0.501486 -0.174198
C14   C     C_1   0.748955 0.498903 0.498503 -0.174254
C15   C     C_R   0.442767 0.954924 0.416532 0.073033
C16   C     C_R   0.557238 0.045075 0.583457 0.073029
C17   C     C_R   0.551392 0.949970 0.584453 0.033914
C18   C     C_R   0.448613 0.050029 0.415538 0.033923
C19   C     C_R   0.496560 0.904887 0.499585 -0.000570
C20   C     C_R   0.503444 0.095113 0.500407 -0.000565
C21   C     C_3   0.501326 0.584740 0.037349 0.376647
C22   C     C_3   0.498676 0.415261 0.962651 0.376629
C23   C     C_3   0.569201 0.540148 0.955915 0.340210
C24   C     C_3   0.430801 0.459852 0.044085 0.340203
C25   C     C_3   0.430842 0.542670 0.957599 -0.111489
C26   C     C_3   0.569161 0.457331 0.042400 -0.111494
C27   C     C_3   0.498894 0.498158 0.876983 -0.312582
C28   C     C_3   0.501108 0.501842 0.123017 -0.312589
C29   C     C_1   0.498486 0.806905 0.499081 0.065963
C30   C     C_1   0.501516 0.193095 0.500915 0.065954
N1    N     N_1   0.500000 0.270550 0.500000 -0.095437
N2    N     N_1   0.500000 0.729450 0.500000 -0.095428
O1    O     O_R   0.378020 0.573650 0.500040 -0.634208
O2    O     O_R   0.621980 0.426350 0.499960 -0.634200
O3    O     O_R   0.621980 0.573650 0.499960 -0.595375
O4    O     O_R   0.378020 0.426350 0.500040 -0.595419
O5    O     O_R   0.499980 0.573650 0.313960 -0.585425
O6    O     O_R   0.500020 0.426350 0.686040 -0.585434
O7    O     O_R   0.500020 0.573650 0.686040 -0.603346
O8    O     O_R   0.499980 0.426350 0.313960 -0.603346
Zn1   Zn    Zn3+2 0.500000 0.598370 0.500000 0.997576
Zn2   Zn    Zn3+2 0.500000 0.401630 0.500000 0.997544
C31   C     C_3   0.395479 0.105720 0.322793 -0.393927
C32   C     C_3   0.314003 0.138058 0.385894 -0.370363
C33   C     C_3   0.256663 0.185513 0.290766 -0.797906
H1    H     H_    0.288536 0.245125 0.251994 0.316298
H2    H     H_    0.239930 0.140685 0.211768 0.256626
H3    H     H_    0.197748 0.206317 0.338628 0.233697
H4    H     H_    0.279141 0.081443 0.428204 0.217576
H5    H     H_    0.329617 0.184439 0.463377 0.235243
H6    H     H_    0.431997 0.163528 0.287494 0.228295
H7    H     H_    0.380632 0.069441 0.234738 0.202614
C34   C     C_3   0.604526 0.894278 0.677199 -0.393924
C35   C     C_3   0.685994 0.861924 0.614092 -0.370356
C36   C     C_3   0.743351 0.814503 0.709233 -0.797902
H8    H     H_    0.760112 0.859367 0.788176 0.256595
H9    H     H_    0.711478 0.754914 0.748083 0.316306
H10   H     H_    0.802250 0.793664 0.661357 0.233702
H11   H     H_    0.670371 0.815516 0.536644 0.235209
H12   H     H_    0.720847 0.918529 0.571734 0.217602
H13   H     H_    0.619383 0.930560 0.765246 0.202619
H14   H     H_    0.568003 0.836477 0.712511 0.228287
C37   C     C_3   0.621494 0.087485 0.674933 -0.430467
C38   C     C_3   0.649206 0.184096 0.655154 -0.301147
C39   C     C_3   0.729172 0.204535 0.730337 -0.916809
H15   H     H_    0.720606 0.186944 0.832023 0.278020
H16   H     H_    0.783518 0.166789 0.692165 0.259717
H17   H     H_    0.743344 0.276299 0.722612 0.255855
H18   H     H_    0.662268 0.197230 0.553368 0.217331
H19   H     H_    0.599257 0.229255 0.690017 0.272662
H20   H     H_    0.596936 0.080727 0.773211 0.218840
H21   H     H_    0.680607 0.048416 0.669082 0.217617
C40   C     C_3   0.378518 0.912512 0.325048 -0.430465
C41   C     C_3   0.350799 0.815904 0.344837 -0.301128
C42   C     C_3   0.270827 0.795468 0.269669 -0.916780
H22   H     H_    0.216483 0.833210 0.307858 0.259727
H23   H     H_    0.279383 0.813066 0.167983 0.277993
H24   H     H_    0.256657 0.723702 0.277386 0.255855
H25   H     H_    0.400743 0.770740 0.309974 0.272655
H26   H     H_    0.337741 0.802775 0.446625 0.217312
H27   H     H_    0.319405 0.951583 0.330881 0.217616
H28   H     H_    0.403083 0.919263 0.226775 0.218836
C43   C     C_3   0.352934 0.588972 0.901697 -0.320605
C44   C     C_3   0.296710 0.628362 0.004959 -0.297727
C45   C     C_3   0.218510 0.672067 0.947562 -0.922624
H29   H     H_    0.236882 0.725686 0.880442 0.269539
H30   H     H_    0.180025 0.622305 0.896828 0.266072
H31   H     H_    0.179665 0.701143 0.024169 0.257737
H32   H     H_    0.276330 0.575989 0.072545 0.262372
H33   H     H_    0.332327 0.678723 0.058636 0.261420
H34   H     H_    0.373996 0.642649 0.836440 0.221164
H35   H     H_    0.316568 0.540030 0.845876 0.201542
C46   C     C_3   0.647063 0.411018 0.098305 -0.320580
C47   C     C_3   0.703308 0.371664 0.995040 -0.297723
C48   C     C_3   0.781464 0.327880 0.052452 -0.922574
H36   H     H_    0.819950 0.377588 0.103301 0.266035
H37   H     H_    0.763040 0.274219 0.119477 0.269522
H38   H     H_    0.820330 0.298843 0.975837 0.257735
H39   H     H_    0.667686 0.321357 0.941258 0.261418
H40   H     H_    0.723742 0.424071 0.927542 0.262367
H41   H     H_    0.683417 0.459945 0.154171 0.201480
H42   H     H_    0.625990 0.357321 0.163521 0.221199
Cl1   Cl    Cl    0.507246 0.697407 0.086098 -0.606465
Cl2   Cl    Cl    0.492759 0.302593 0.913904 -0.606465
Cl3   Cl    Cl    0.659202 0.595306 0.892534 -0.633079
Cl4   Cl    Cl    0.340796 0.404699 0.107462 -0.633066
C49   C     C_3   0.091734 0.669390 0.482537 -0.406979
C50   C     C_3   0.109556 0.704818 0.615800 -0.334101
C51   C     C_3   0.149922 0.796198 0.610094 -0.891224
H43   H     H_    0.211401 0.792673 0.560779 0.268188
H44   H     H_    0.108036 0.843798 0.559237 0.259089
H45   H     H_    0.160659 0.820534 0.707819 0.251563
H46   H     H_    0.050100 0.709280 0.670855 0.222083
H47   H     H_    0.152773 0.658583 0.666749 0.229345
H48   H     H_    0.152186 0.660654 0.431378 0.209464
H49   H     H_    0.057621 0.719400 0.424262 0.200119
C52   C     C_3   0.908268 0.330622 0.517440 -0.406920
C53   C     C_3   0.890388 0.295203 0.384188 -0.334095
C54   C     C_3   0.850144 0.203766 0.389911 -0.891362
H50   H     H_    0.892171 0.156196 0.440537 0.259096
H51   H     H_    0.788750 0.207164 0.439461 0.268245
H52   H     H_    0.839275 0.179481 0.292197 0.251588
H53   H     H_    0.847076 0.341392 0.333333 0.229336
H54   H     H_    0.949806 0.290836 0.329027 0.222117
H55   H     H_    0.942405 0.280608 0.575677 0.200100
H56   H     H_    0.847839 0.339358 0.568660 0.209416
C55   C     C_3   0.903062 0.666815 0.481379 -0.420151
C56   C     C_3   0.880330 0.687295 0.342577 -0.331868
C57   C     C_3   0.823742 0.768790 0.331590 -0.843825
H57   H     H_    0.762654 0.755982 0.379245 0.268324
H58   H     H_    0.854576 0.826933 0.375438 0.250114
H59   H     H_    0.811284 0.783988 0.229985 0.265241
H60   H     H_    0.938672 0.698961 0.286913 0.215530
H61   H     H_    0.846816 0.630089 0.300491 0.238375
H62   H     H_    0.844629 0.661506 0.538635 0.221268
H63   H     H_    0.936329 0.723769 0.523646 0.197842
C58   C     C_3   0.096943 0.333199 0.518468 -0.420091
C59   C     C_3   0.119725 0.312688 0.657249 -0.331933
C60   C     C_3   0.176620 0.231426 0.668117 -0.843865
H64   H     H_    0.146105 0.173242 0.623904 0.250175
H65   H     H_    0.237729 0.244617 0.620757 0.268442
H66   H     H_    0.188978 0.216071 0.769702 0.265234
H67   H     H_    0.153013 0.369987 0.699473 0.238375
H68   H     H_    0.061416 0.300727 0.712854 0.215483
H69   H     H_    0.063667 0.276245 0.476205 0.197747
H70   H     H_    0.155352 0.338534 0.461156 0.221350

loop_
_geom_bond_atom_site_label_1
_geom_bond_atom_site_label_2
_ccdc_geom_bond_type
C32   H4    S    
C2    O3    A    
C7    C10   A    
C36   H8    S    
C46   C47   S    
N1    Zn2   S    
C15   C18   A    
C40   C41   S    
O4    Zn2   S    
C48   H36   S    
O2    Zn2   S    
C31   C32   S    
C56   C57   S    
C48   H38   S    
C1    O1    A    
O7    Zn1   S    
C35   H12   S    
C34   C35   S    
C15   C19   A    
C43   H35   S    
C11   C28   S    
C58   H69   S    
C55   H62   S    
O6    Zn2   S    
C29   N2    T    
C59   H67   S    
C51   H44   S    
C30   N1    T    
C60   H66   S    
C31   H7    S    
C45   H31   S    
C23   Cl3   S    
C22   Cl2   S    
C50   C51   S    
C23   C26   S    
C50   H47   S    
C4    C13   T    
C11   O5    A    
C53   C54   S    
C17   C19   A    
C34   H13   S    
C8    C9    A    
C39   H16   S    
C49   C50   S    
C24   C25   S    
C16   C37   S    
C38   H19   S    
C52   H56   S    
C18   C20   A    
C57   H59   S    
C2    O2    A    
C26   C46   S    
C54   H51   S    
C41   H26   S    
C12   O6    A    
C47   C48   S    
C44   H33   S    
O3    Zn1   S    
C40   H27   S    
C8    C52   S    
C35   H11   S    
C33   H2    S    
C60   H64   S    
C41   C42   S    
C45   H30   S    
C58   H70   S    
C44   C45   S    
C51   H43   S    
C51   H45   S    
C46   H41   S    
C5    C7    A    
C16   C17   A    
C6    C8    A    
C12   C27   S    
C45   H29   S    
C50   H46   S    
C42   H22   S    
C5    C9    A    
C3    C9    S    
C56   H61   S    
C34   H14   S    
C43   C44   S    
C47   H40   S    
C16   C20   A    
C39   H17   S    
C5    C55   S    
C53   H54   S    
C38   H18   S    
C55   H63   S    
C42   H23   S    
C49   H48   S    
C3    C14   T    
C15   C40   S    
C21   C28   S    
C37   H20   S    
C23   C27   S    
C41   H25   S    
C36   H9    S    
C7    C49   S    
C24   Cl4   S    
C44   H32   S    
N2    Zn1   S    
C4    C10   S    
C55   C56   S    
C19   C29   S    
C17   C34   S    
C40   H28   S    
C32   C33   S    
C57   H57   S    
C33   H3    S    
C32   H5    S    
C21   C25   S    
C35   C36   S    
C24   C28   S    
C46   H42   S    
C6    C10   A    
C54   H50   S    
C48   H37   S    
C25   C27   S    
C43   H34   S    
C58   C59   S    
C26   C28   S    
C22   C27   S    
O1    Zn1   S    
C38   C39   S    
C6    C58   S    
C21   C23   S    
C59   H68   S    
C56   H60   S    
C20   C30   S    
C60   H65   S    
C31   H6    S    
C47   H39   S    
C12   O7    A    
O8    Zn2   S    
C54   H52   S    
C22   C24   S    
C53   H53   S    
O5    Zn1   S    
C11   O8    A    
C2    C14   S    
C42   H24   S    
C49   H49   S    
C59   C60   S    
C37   C38   S    
C21   Cl1   S    
C33   H1    S    
C1    C13   S    
C37   H21   S    
C39   H15   S    
C22   C26   S    
C36   H10   S    
C18   C31   S    
C25   C43   S    
C52   C53   S    
C52   H55   S    
C1    O4    A    
C57   H58   S    
