data_mof_unit_59420.cif
_audit_creation_date              2012-12-11T15:48:50-0500
_audit_creation_method            fapswitch 2.2
_symmetry_space_group_name_H-M    P1
_symmetry_Int_Tables_number       1
_space_group_crystal_system       triclinic
_cell_length_a                    10.97107
_cell_length_b                    11.094835
_cell_length_c                    18.811688
_cell_angle_alpha                 90.101885
_cell_angle_beta                  89.935761
_cell_angle_gamma                 60.478691
_cell_volume                      1992.51281481

loop_
_atom_site_label
_atom_site_type_symbol
_atom_type_description
_atom_site_fract_x
_atom_site_fract_y
_atom_site_fract_z
_atom_type_partial_charge
C1    C     C_R   0.244854 0.642922 0.611196 0.546720
C2    C     C_R   0.581462 0.137553 0.709067 -0.149537
C3    C     C_R   0.583854 0.137041 0.782011 -0.129670
C4    C     C_R   0.653230 0.620586 0.601066 0.575940
C5    C     C_3   0.922097 0.160079 0.778028 0.387447
C6    C     C_3   0.924157 0.114307 0.700702 -0.210715
C7    C     C_R   0.676147 0.158969 0.670178 0.006927
C8    C     C_R   0.170831 0.678229 0.834222 0.017478
C9    C     C_R   0.165332 0.573837 0.796778 0.006462
C10   C     C_R   0.188542 0.560393 0.723587 -0.058804
C11   C     C_R   0.215326 0.762903 0.725238 -0.172091
C12   C     C_3   0.660069 0.566845 0.800908 -0.259517
C13   C     C_R   0.210640 0.763840 0.798789 -0.195098
C14   C     C_3   0.255295 0.422601 0.809255 0.147709
C15   C     C_3   0.291206 0.409315 0.730308 -0.234012
C16   C     C_R   0.630769 0.223974 0.600929 0.550997
C17   C     C_R   0.205462 0.659725 0.686090 0.011868
C18   C     C_R   0.651499 0.659328 0.165178 0.015173
C19   C     C_R   0.745887 0.538422 0.201657 0.033333
C20   C     C_R   0.740987 0.530844 0.274185 0.041286
C21   C     C_R   0.530575 0.751460 0.277730 -0.158607
C22   C     C_R   0.534939 0.760151 0.203070 -0.166095
C23   C     C_3   0.701210 0.679096 0.811000 0.020107
C24   C     C_3   0.903416 0.458570 0.202740 -0.267499
C25   C     C_3   0.896009 0.451864 0.282569 -0.279762
C26   C     C_R   0.641928 0.640953 0.314244 0.016355
C27   C     C_R   0.638713 0.185432 0.169234 0.019156
C28   C     C_R   0.227500 0.646271 0.399884 0.549214
C29   C     C_R   0.519364 0.207577 0.206861 0.027128
C30   C     C_R   0.515593 0.219185 0.279558 0.042231
C31   C     C_R   0.737589 0.213336 0.278964 -0.161707
C32   C     C_R   0.740634 0.204443 0.204868 -0.162747
C33   C     C_3   0.444070 0.125851 0.208971 -0.272269
C34   C     C_3   0.669853 0.648459 0.675928 0.079421
C35   C     C_3   0.439952 0.139610 0.289014 -0.279598
C36   C     C_R   0.629628 0.209155 0.317229 0.018930
C37   C     C_R   0.165135 0.668310 0.179014 0.020182
C38   C     C_R   0.189354 0.764284 0.216040 0.034423
C39   C     C_R   0.201177 0.757797 0.287852 0.042723
C40   C     C_R   0.638527 0.618521 0.390343 0.550033
C41   C     C_R   0.194972 0.544053 0.288666 -0.160097
C42   C     C_R   0.183142 0.549615 0.214567 -0.168873
C43   C     C_3   0.110057 0.920387 0.218634 -0.267725
C44   C     C_3   0.124984 0.910728 0.298357 -0.280352
C45   C     C_3   0.814566 0.636763 0.688702 -0.236247
C46   C     C_R   0.191799 0.655893 0.326021 0.018957
C47   C     C_R   0.703393 0.099882 0.894945 0.547750
C48   C     C_R   0.726443 0.691243 0.887140 0.539737
C49   C     C_R   0.114629 0.709512 0.905446 0.546303
C50   C     C_R   0.673554 0.110095 0.102616 0.552761
C51   C     C_R   0.695267 0.688989 0.096886 0.542203
C52   C     C_R   0.612904 0.236957 0.392752 0.549522
C53   C     C_R   0.094915 0.709526 0.111583 0.550778
C54   C     C_3   0.582912 0.816658 0.778846 -0.195586
C55   C     C_3   0.551762 0.792103 0.701691 0.168380
C56   C     C_3   0.657864 0.537533 0.721135 -0.257025
C57   C     C_3   0.837348 0.642192 0.769005 -0.228872
C58   C     C_3   0.050580 0.102008 0.892764 -0.225390
C59   C     C_3   0.073403 0.247548 0.756241 -0.126379
C60   C     C_3   0.443046 0.447603 0.860496 -0.085268
C61   C     C_3   0.400861 0.986826 0.635951 -0.140216
C62   C     C_R   0.687504 0.149726 0.820784 -0.013044
C63   C     C_R   0.769569 0.194294 0.781846 0.011029
C64   C     C_R   0.771513 0.180635 0.708291 -0.040246
Cr1   Cr    Cr6+3 0.392960 0.397920 0.502240 1.001084
Cr2   Cr    Cr6+3 0.398340 0.708480 0.501250 0.997350
Cr3   Cr    Cr6+3 0.708670 0.393570 0.496460 1.001593
Cr4   Cr    Cr6+3 0.937650 0.938540 0.007610 0.967063
Cr5   Cr    Cr6+3 0.625330 0.937370 0.994520 1.010469
Cr6   Cr    Cr6+3 0.937940 0.625230 0.001190 1.013227
H1    H     H_    0.619457 0.892935 0.779178 0.157928
H2    H     H_    0.485098 0.858992 0.811040 0.089922
H3    H     H_    0.232396 0.835304 0.827694 0.155515
H4    H     H_    0.186150 0.381564 0.824310 0.124393
H5    H     H_    0.397292 0.391019 0.717292 0.158512
H6    H     H_    0.259315 0.343794 0.699972 0.084213
H7    H     H_    0.443894 0.832972 0.306707 0.129943
H8    H     H_    0.453677 0.849727 0.176103 0.119284
H9    H     H_    0.950717 0.521895 0.185816 0.171594
H10   H     H_    0.946602 0.355677 0.176490 0.124588
H11   H     H_    0.935125 0.345191 0.302730 0.133516
H12   H     H_    0.745828 0.434357 0.707519 0.203870
H13   H     H_    0.453938 0.785499 0.703712 0.106146
H14   H     H_    0.937350 0.512349 0.310772 0.138281
H15   H     H_    0.821878 0.217802 0.306228 0.130012
H16   H     H_    0.830034 0.197375 0.176686 0.122227
H17   H     H_    0.511472 0.017670 0.191004 0.164265
H18   H     H_    0.338832 0.181778 0.183941 0.128340
H19   H     H_    0.332347 0.204407 0.310383 0.132843
H20   H     H_    0.504096 0.039431 0.316859 0.137966
H21   H     H_    0.203193 0.455093 0.316466 0.132384
H22   H     H_    0.177821 0.467364 0.186306 0.121172
H23   H     H_    0.923307 0.540758 0.787046 0.167508
H24   H     H_    0.999211 0.965145 0.202046 0.168997
H25   H     H_    0.168728 0.966857 0.193193 0.125919
H26   H     H_    0.193377 0.950281 0.319175 0.136660
H27   H     H_    0.023722 0.948365 0.326893 0.135964
H28   H     H_    0.870140 0.720857 0.779608 0.111491
H29   H     H_    0.819719 0.723188 0.661564 0.156470
H30   H     H_    0.730606 0.470891 0.830218 0.190373
H31   H     H_    0.553794 0.607850 0.823784 0.084223
H32   H     H_    0.559732 0.535630 0.708343 0.092942
H33   H     H_    0.985073 0.978909 0.834474 0.269049
H34   H     H_    0.900193 0.538443 0.666460 0.128570
H35   H     H_    0.039404 0.052905 0.941193 0.182945
H36   H     H_    0.984262 0.215107 0.902090 0.171572
H37   H     H_    0.162342 0.074097 0.889298 0.107466
H38   H     H_    0.064646 0.339690 0.729476 0.105513
H39   H     H_    0.122373 0.161585 0.717578 0.094681
H40   H     H_    0.146250 0.218315 0.801383 0.124854
H41   H     H_    0.395286 0.534784 0.898678 0.122550
H42   H     H_    0.455720 0.480639 0.806979 0.111513
H43   H     H_    0.548073 0.381396 0.883038 0.127441
H44   H     H_    0.340607 0.045497 0.683197 0.071958
H45   H     H_    0.494017 0.137726 0.683981 0.171240
H46   H     H_    0.350949 0.930910 0.611382 0.150956
H47   H     H_    0.397428 0.061547 0.595812 0.146548
H48   H     H_    0.503629 0.121873 0.807182 0.175184
H49   H     H_    0.950025 0.168047 0.658522 0.133427
H50   H     H_    0.971624 0.000602 0.693622 0.108706
H51   H     H_    0.232246 0.840414 0.699531 0.128032
N1    N     N_2   0.010921 0.055389 0.828387 -0.498639
O1    O     O_R   0.507380 0.255700 0.581440 -0.535780
O2    O     O_R   0.837170 0.593410 0.915250 -0.520630
O3    O     O_R   0.065200 0.635530 0.931570 -0.485553
O4    O     O_R   0.280320 0.527350 0.578930 -0.501464
O5    O     O_R   0.068260 0.828890 0.091840 -0.530811
O6    O     O_R   0.798870 0.057410 0.079340 -0.517056
O7    O     O_R   0.584930 0.080350 0.076780 -0.516402
O8    O     O_R   0.626960 0.809650 0.067060 -0.508854
O9    O     O_R   0.816040 0.596610 0.076510 -0.525881
O10   O     O_R   0.045610 0.638500 0.081060 -0.509607
O11   O     O_3   0.833640 0.833710 0.001100 -0.255676
O12   O     O_R   0.524480 0.695810 0.424040 -0.506881
O13   O     O_R   0.260510 0.739590 0.584590 -0.547895
O14   O     O_R   0.532300 0.695080 0.573820 -0.492207
O15   O     O_R   0.744840 0.503500 0.576370 -0.540712
O16   O     O_R   0.699120 0.276560 0.571960 -0.506236
O17   O     O_R   0.498940 0.256500 0.419860 -0.519692
O18   O     O_R   0.272500 0.528080 0.429150 -0.509610
O19   O     O_R   0.252060 0.740380 0.423010 -0.519937
O20   O     O_3   0.938447 0.279031 0.780277 -0.587456
O21   O     O_3   0.368283 0.374314 0.859040 -0.554323
O22   O     O_3   0.541759 0.897447 0.655361 -0.574622
O23   O     O_R   0.736390 0.504290 0.414790 -0.519774
O24   O     O_R   0.691300 0.277290 0.422170 -0.511686
O25   O     O_3   0.499990 0.499990 0.499980 -0.261314
O26   O     O_R   0.089400 0.825690 0.930570 -0.562179
O27   O     O_R   0.818460 0.054440 0.929850 -0.526749
O28   O     O_R   0.606060 0.077150 0.915510 -0.499951
O29   O     O_R   0.646550 0.806680 0.917570 -0.518485

loop_
_geom_bond_atom_site_label_1
_geom_bond_atom_site_label_2
_ccdc_geom_bond_type
C15   H5    S    
C21   C26   A    
C34   C56   S    
C8    C13   A    
C31   H15   S    
C27   C29   A    
C41   C42   A    
C2    C7    A    
C28   O18   A    
C43   C44   S    
C52   O17   A    
C47   C62   S    
Cr2   O19   S    
C61   O22   S    
C12   C23   S    
C45   C57   S    
C62   C63   A    
C30   C35   S    
C60   H42   S    
Cr5   O28   S    
C14   H4    S    
Cr4   O11   S    
C45   H34   S    
C33   H18   S    
C18   C19   A    
C10   C15   S    
C31   C36   A    
C60   O21   S    
C38   C39   A    
C20   C25   S    
C10   C17   A    
C29   C33   S    
C43   H24   S    
C5    C63   S    
C58   H37   S    
C44   H27   S    
C6    C64   S    
C37   C42   A    
Cr3   O16   S    
Cr4   O27   S    
C53   O5    A    
C59   H39   S    
C4    O15   A    
Cr2   O12   S    
Cr1   O18   S    
C24   H10   S    
C54   H1    S    
C47   O27   A    
C59   O20   S    
Cr5   O8    S    
Cr3   O23   S    
Cr6   O11   S    
C43   H25   S    
C41   C46   A    
C23   C48   S    
Cr1   O25   S    
C9    C10   A    
Cr4   O6    S    
C36   C52   S    
C27   C50   S    
C4    O14   A    
C37   C53   S    
C15   H6    S    
C34   C55   S    
C57   H23   S    
C21   C22   A    
C25   H11   S    
C60   H43   S    
C11   H51   S    
Cr3   O24   S    
C6    H50   S    
C51   O8    A    
C18   C51   S    
C50   O7    A    
C4    C34   S    
C58   N1    S    
C61   H47   S    
Cr5   O29   S    
C1    O4    A    
C22   H8    S    
C45   H29   S    
C53   O10   A    
C51   O9    A    
C8    C9    A    
C40   O12   A    
C5    N1    S    
C63   C64   A    
C49   O26   A    
C58   H36   S    
C37   C38   A    
C9    C14   S    
C29   C30   A    
C44   H26   S    
C3    H48   S    
C25   H14   S    
C2    H45   S    
C24   H9    S    
C31   C32   A    
C47   O28   A    
C32   H16   S    
C61   H46   S    
Cr6   O10   S    
C34   C45   S    
C24   C25   S    
Cr4   O5    S    
Cr2   O25   S    
C12   C56   S    
C39   C46   A    
Cr2   O14   S    
C40   O23   A    
Cr6   O3    S    
C7    C16   S    
C41   H21   S    
C13   H3    S    
Cr3   O25   S    
C50   O6    A    
C55   H13   S    
C35   H19   S    
C6    H49   S    
C23   C54   S    
C3    C62   A    
C23   C57   S    
C54   C55   S    
C11   C17   A    
C52   O24   A    
C55   O22   S    
C27   C32   A    
C18   C22   A    
C16   O1    A    
C16   O16   A    
Cr4   O26   S    
C48   O2    A    
C59   H40   S    
C56   H12   S    
C39   C44   S    
Cr5   O11   S    
C49   O3    A    
C1    C17   S    
C59   H38   S    
C30   C36   A    
C28   C46   S    
C58   H35   S    
Cr1   O4    S    
C19   C20   A    
C2    C3    A    
C14   O21   S    
C56   H32   S    
C38   C43   S    
C60   H41   S    
C11   C13   A    
C26   C40   S    
C5    O20   S    
C5    C6    S    
C20   C26   A    
C57   H28   S    
Cr6   O9    S    
C33   C35   S    
C19   C24   S    
C42   H22   S    
Cr1   O1    S    
C33   H17   S    
Cr3   O15   S    
C7    C64   A    
C12   H30   S    
Cr2   O13   S    
Cr1   O17   S    
C35   H20   S    
Cr6   O2    S    
C12   H31   S    
C54   H2    S    
Cr5   O7    S    
C48   O29   A    
C21   H7    S    
C61   H44   S    
C14   C15   S    
C28   O19   A    
C1    O13   A    
H33   N1    S    
C8    C49   S    
