data_mof_unit_63674.cif
_audit_creation_date              2012-10-26T18:07:55-0400
_audit_creation_method            fapswitch 2.2
_symmetry_space_group_name_H-M    P1
_symmetry_Int_Tables_number       1
_space_group_crystal_system       triclinic
_cell_length_a                    30.223314
_cell_length_b                    31.295892
_cell_length_c                    21.831821
_cell_angle_alpha                 89.992952
_cell_angle_beta                  135.181034
_cell_angle_gamma                 90.003098
_cell_volume                      14555.5231412

loop_
_atom_site_label
_atom_site_type_symbol
_atom_type_description
_atom_site_fract_x
_atom_site_fract_y
_atom_site_fract_z
_atom_type_partial_charge
C1    C     C_R   0.689575 0.808406 0.881775 0.530428
C2    C     C_R   0.440519 0.753675 0.838352 0.272058
C3    C     C_R   0.665399 0.251296 0.001845 0.527709
C4    C     C_R   0.446489 0.744319 0.075298 0.245800
C5    C     C_R   0.631662 0.734554 0.074857 0.237362
C6    C     C_R   0.946475 0.244126 0.075239 0.245847
C7    C     C_R   0.131576 0.234362 0.074664 0.237340
C8    C     C_R   0.382711 0.746605 0.997295 0.015033
C9    C     C_R   0.615909 0.747746 0.999850 0.018201
C10   C     C_R   0.882703 0.246601 0.997266 0.014945
C11   C     C_R   0.115897 0.247765 0.999814 0.018294
C12   C     C_R   0.363678 0.743370 0.916935 -0.038749
C13   C     C_R   0.894347 0.255935 0.838483 0.272252
C14   C     C_R   0.553723 0.757957 0.922822 -0.033146
C15   C     C_R   0.863660 0.243570 0.916878 -0.038634
C16   C     C_R   0.053778 0.258198 0.922912 -0.033210
C17   C     C_R   0.409778 0.746881 0.915465 0.004376
C18   C     C_R   0.504863 0.750388 0.917615 0.007126
C19   C     C_R   0.909775 0.247112 0.915446 0.004360
C20   C     C_R   0.004872 0.250647 0.917619 0.007139
C21   C     C_R   0.473718 0.740090 0.994167 -0.075311
C22   C     C_R   0.520903 0.739974 0.994785 -0.074645
C23   C     C_R   0.973675 0.240116 0.994059 -0.075333
C24   C     C_R   0.940545 0.254169 0.838405 0.272079
C25   C     C_R   0.020854 0.240007 0.994667 -0.074649
C26   C     C_3   0.854458 0.609786 0.100497 -0.350241
C27   C     C_3   0.145456 0.609814 0.899428 -0.346717
C28   C     C_3   0.354460 0.109787 0.100499 -0.350249
C29   C     C_3   0.645458 0.109813 0.899430 -0.346721
C30   C     C_3   0.296772 0.729752 0.837441 -0.296386
C31   C     C_3   0.542924 0.783788 0.854135 -0.324402
C32   C     C_3   0.796706 0.230110 0.837252 -0.296382
C33   C     C_3   0.043141 0.284206 0.854521 -0.324577
C34   C     C_3   0.203664 0.762963 0.169506 -0.373935
C35   C     C_R   0.595870 0.713119 0.144065 0.285388
C36   C     C_3   0.796317 0.762778 0.830433 -0.372886
C37   C     C_3   0.703675 0.262882 0.169536 -0.373896
C38   C     C_3   0.296325 0.262859 0.830458 -0.372928
C39   C     C_R   0.550447 0.717273 0.145634 0.283848
C40   C     C_R   0.095667 0.212741 0.143633 0.285394
C41   C     C_R   0.050274 0.216891 0.145259 0.283872
C42   C     C_2   0.595962 0.908062 0.749232 -0.144994
C43   C     C_2   0.403639 0.908225 0.250462 -0.138527
C44   C     C_2   0.095957 0.408060 0.749227 -0.144943
C45   C     C_R   0.310413 0.808411 0.118225 0.560021
C46   C     C_2   0.903637 0.408226 0.250461 -0.138592
C47   C     C_2   0.597677 0.911109 0.689703 -0.099805
C48   C     C_2   0.402351 0.911062 0.310431 -0.101090
C49   C     C_2   0.097678 0.411110 0.689705 -0.099803
C50   C     C_2   0.902351 0.411062 0.310431 -0.101080
C51   C     C_2   0.636602 0.877624 0.822054 -0.148681
C52   C     C_2   0.362938 0.877788 0.177669 -0.128275
C53   C     C_2   0.136596 0.377622 0.822050 -0.148691
C54   C     C_2   0.862935 0.377788 0.177668 -0.128416
C55   C     C_2   0.651975 0.839905 0.812307 -0.111953
C56   C     C_R   0.189575 0.308406 0.881775 0.530395
C57   C     C_2   0.348000 0.839925 0.187673 -0.090730
C58   C     C_2   0.151975 0.339904 0.812307 -0.111939
C59   C     C_2   0.847999 0.339925 0.187673 -0.090845
C60   C     C_R   0.135737 0.756088 0.083989 -0.009288
C61   C     C_R   0.864258 0.755990 0.915988 -0.008854
C62   C     C_R   0.635741 0.256045 0.084003 -0.009299
C63   C     C_R   0.364261 0.256033 0.915999 -0.008840
C64   C     C_R   0.118569 0.753643 0.004626 0.007389
C65   C     C_R   0.881428 0.753655 0.995364 0.007938
C66   C     C_R   0.618571 0.253647 0.004633 0.007353
C67   C     C_R   0.810413 0.308411 0.118225 0.559906
C68   C     C_R   0.381431 0.253652 0.995371 0.007971
C69   C     C_R   0.055561 0.752739 0.925498 -0.106464
C70   C     C_R   0.944441 0.752870 0.074499 -0.107085
C71   C     C_R   0.555560 0.252792 0.925501 -0.106465
C72   C     C_R   0.444442 0.252818 0.074507 -0.107097
C73   C     C_R   0.664744 0.749200 0.000575 0.586458
C74   C     C_R   0.335726 0.749541 0.000151 0.581103
C75   C     C_R   0.164739 0.249206 0.000561 0.586581
C76   C     C_R   0.835726 0.249539 0.000145 0.581014
C77   C     C_R   0.007856 0.753108 0.922465 0.025862
C78   C     C_R   0.490806 0.734318 0.073093 0.000574
C79   C     C_R   0.992146 0.753245 0.077532 0.026198
C80   C     C_R   0.507855 0.253164 0.922468 0.025860
C81   C     C_R   0.492148 0.253190 0.077540 0.026201
C82   C     C_R   0.023977 0.753488 0.001140 0.002098
C83   C     C_R   0.976025 0.753493 0.998857 0.002143
C84   C     C_R   0.523977 0.253490 0.001145 0.002096
C85   C     C_R   0.476026 0.253491 0.998863 0.002139
C86   C     C_R   0.087935 0.754295 0.082088 -0.003747
C87   C     C_R   0.912064 0.754177 0.917903 -0.003825
C88   C     C_R   0.587938 0.254245 0.082098 -0.003753
C89   C     C_R   0.583922 0.729501 0.072678 -0.003656
C90   C     C_R   0.412065 0.254227 0.917909 -0.003816
C91   C     C_R   0.944322 0.752648 0.842422 0.236728
C92   C     C_R   0.055681 0.752919 0.157580 0.236844
C93   C     C_R   0.444319 0.252758 0.842420 0.236724
C94   C     C_R   0.555684 0.252809 0.157589 0.236840
C95   C     C_R   0.897444 0.753300 0.840687 -0.077896
C96   C     C_R   0.102557 0.753560 0.159311 -0.077952
C97   C     C_R   0.397443 0.253407 0.840687 -0.077900
C98   C     C_R   0.602560 0.253453 0.159321 -0.077962
C99   C     C_2   0.911100 0.594711 0.257540 -0.121713
C100  C     C_R   0.990731 0.234131 0.072917 0.000594
C101  C     C_2   0.088873 0.594734 0.742417 -0.114177
C102  C     C_2   0.411100 0.094711 0.257540 -0.121745
C103  C     C_2   0.588872 0.094734 0.742417 -0.114195
C104  C     C_2   0.898322 0.585438 0.303889 0.204131
C105  C     C_2   0.101673 0.585439 0.696103 0.207214
C106  C     C_2   0.398322 0.085438 0.303889 0.204098
C107  C     C_2   0.601673 0.085438 0.696104 0.207205
C108  C     C_2   0.870346 0.622870 0.180718 -0.016365
C109  C     C_2   0.129631 0.622886 0.819244 -0.004744
C110  C     C_2   0.370346 0.122870 0.180719 -0.016376
C111  C     C_R   0.083811 0.229316 0.072433 -0.003650
C112  C     C_2   0.629632 0.122885 0.819244 -0.004751
C113  C     C_2   0.852569 0.660552 0.187617 -0.013926
C114  C     C_2   0.147461 0.660555 0.812383 -0.029475
C115  C     C_2   0.352568 0.160552 0.187617 -0.013838
C116  C     C_2   0.647460 0.160556 0.812383 -0.029448
C117  C     C_R   0.060818 0.557252 0.620433 0.571998
C118  C     C_R   0.939181 0.557251 0.379564 0.567569
C119  C     C_R   0.560818 0.057251 0.620433 0.571982
C120  C     C_R   0.439181 0.057251 0.379564 0.567534
C121  C     C_R   0.812055 0.691704 0.117965 0.578396
C122  C     C_R   0.394306 0.755471 0.838398 0.272209
C123  C     C_R   0.187946 0.691704 0.882035 0.540318
C124  C     C_R   0.312055 0.191704 0.117965 0.578539
C125  C     C_R   0.687947 0.191704 0.882035 0.540401
C126  C     C_R   0.560139 0.942157 0.619268 0.546288
C127  C     C_R   0.439873 0.942146 0.380768 0.547002
C128  C     C_R   0.060139 0.442157 0.619269 0.546281
C129  C     C_R   0.939873 0.442146 0.380768 0.546992
C130  C     C_R   0.834600 0.751298 0.998154 0.527348
C131  C     C_R   0.165397 0.751294 0.001841 0.527706
C132  C     C_R   0.334601 0.251297 0.998157 0.527343
Cl1   Cl    Cl    0.470143 0.760987 0.172775 -0.477073
Cl2   Cl    Cl    0.173669 0.600599 0.731816 -0.563279
Cl3   Cl    Cl    0.326348 0.100627 0.268224 -0.480072
Cl4   Cl    Cl    0.673670 0.100598 0.731818 -0.563206
Cl5   Cl    Cl    0.320075 0.776067 0.743333 -0.493304
Cl6   Cl    Cl    0.413954 0.748201 0.735581 -0.499691
Cl7   Cl    Cl    0.820222 0.276777 0.743680 -0.493442
Cl8   Cl    Cl    0.913932 0.249041 0.735556 -0.499807
Cl9   Cl    Cl    0.662123 0.680841 0.226199 -0.332231
Cl10  Cl    Cl    0.565513 0.693122 0.232564 -0.370993
Cl11  Cl    Cl    0.161735 0.180252 0.225392 -0.332255
Cl12  Cl    Cl    0.712919 0.730824 0.172464 -0.430706
Cl13  Cl    Cl    0.065203 0.192512 0.231922 -0.371023
Cl14  Cl    Cl    0.970249 0.260573 0.172894 -0.476835
Cl15  Cl    Cl    0.212817 0.230386 0.172220 -0.430687
Cl16  Cl    Cl    0.920490 0.751534 0.741594 -0.546099
Cl17  Cl    Cl    0.079516 0.751994 0.258415 -0.546679
Cl18  Cl    Cl    0.420485 0.251719 0.741586 -0.546237
Cl19  Cl    Cl    0.579520 0.251810 0.258425 -0.546792
Cl20  Cl    Cl    0.826349 0.600627 0.268226 -0.480476
Cu1   Cu    Cu3+1 0.719490 0.719480 0.938970 0.990651
Cu2   Cu    Cu3+1 0.544470 0.999980 0.500010 1.048291
Cu3   Cu    Cu3+1 0.955530 0.499980 0.499990 1.060024
Cu4   Cu    Cu3+1 0.044470 0.499980 0.500010 1.048276
Cu5   Cu    Cu3+1 0.280510 0.719480 0.061030 1.038516
Cu6   Cu    Cu3+1 0.219490 0.219480 0.938970 0.990807
Cu7   Cu    Cu3+1 0.780510 0.219480 0.061030 1.038716
Cu8   Cu    Cu3+1 0.780480 0.780500 0.060980 1.062364
Cu9   Cu    Cu3+1 0.219520 0.780500 0.939020 1.018633
Cu10  Cu    Cu3+1 0.280480 0.280500 0.060980 1.062045
Cu11  Cu    Cu3+1 0.719520 0.280500 0.939020 1.018502
Cu12  Cu    Cu3+1 0.455530 0.999980 0.499990 1.059969
H1    H     H_    0.044331 0.751239 0.866142 0.187075
H2    H     H_    0.048464 0.580492 0.725217 0.129414
H3    H     H_    0.451489 0.080449 0.274713 0.129547
H4    H     H_    0.548463 0.080493 0.725216 0.129389
H5    H     H_    0.872476 0.670453 0.250795 0.165007
H6    H     H_    0.127606 0.670456 0.749230 0.151341
H7    H     H_    0.372474 0.170453 0.250794 0.164986
H8    H     H_    0.627605 0.170456 0.749229 0.151299
H9    H     H_    0.566978 0.929732 0.747433 0.154017
H10   H     H_    0.432279 0.930078 0.251869 0.157017
H11   H     H_    0.066968 0.429727 0.747424 0.154044
H12   H     H_    0.955676 0.751458 0.133866 0.185901
H13   H     H_    0.932275 0.430079 0.251865 0.156983
H14   H     H_    0.631525 0.892702 0.696698 0.118874
H15   H     H_    0.368792 0.892485 0.303828 0.115782
H16   H     H_    0.131530 0.392706 0.696706 0.118851
H17   H     H_    0.868793 0.392484 0.303831 0.115812
H18   H     H_    0.651014 0.885360 0.882631 0.153890
H19   H     H_    0.348122 0.885661 0.116863 0.160520
H20   H     H_    0.151003 0.385356 0.882624 0.153835
H21   H     H_    0.848117 0.385663 0.116860 0.160491
H22   H     H_    0.631958 0.830129 0.749088 0.116721
H23   H     H_    0.544327 0.251329 0.866139 0.187113
H24   H     H_    0.368350 0.830068 0.251040 0.115584
H25   H     H_    0.131964 0.330130 0.749090 0.116732
H26   H     H_    0.868351 0.330068 0.251041 0.115598
H27   H     H_    0.878826 0.579646 0.111916 0.132359
H28   H     H_    0.803223 0.604147 0.045886 0.178342
H29   H     H_    0.869373 0.635017 0.082442 0.140456
H30   H     H_    0.121063 0.579685 0.887991 0.130070
H31   H     H_    0.196684 0.604163 0.954081 0.176737
H32   H     H_    0.130524 0.635058 0.917432 0.142669
H33   H     H_    0.378829 0.079648 0.111919 0.132369
H34   H     H_    0.455676 0.251369 0.133871 0.185851
H35   H     H_    0.303225 0.104148 0.045886 0.178346
H36   H     H_    0.369376 0.135018 0.082445 0.140441
H37   H     H_    0.621066 0.079683 0.887993 0.130066
H38   H     H_    0.696687 0.104162 0.954081 0.176770
H39   H     H_    0.630528 0.135056 0.917436 0.142641
H40   H     H_    0.294341 0.710607 0.792342 0.202478
H41   H     H_    0.278519 0.708113 0.855697 0.136212
H42   H     H_    0.265626 0.758112 0.803940 0.200677
H43   H     H_    0.504186 0.807104 0.822178 0.184471
H44   H     H_    0.584230 0.803879 0.883180 0.104643
H45   H     H_    0.849341 0.752684 0.777679 0.163019
H46   H     H_    0.533565 0.762151 0.805714 0.199734
H47   H     H_    0.794210 0.211099 0.791976 0.202277
H48   H     H_    0.778370 0.208399 0.855294 0.136269
H49   H     H_    0.765667 0.258528 0.804018 0.200735
H50   H     H_    0.004583 0.307639 0.822886 0.184500
H51   H     H_    0.084583 0.304184 0.883770 0.104658
H52   H     H_    0.033602 0.262700 0.805820 0.199635
H53   H     H_    0.235043 0.771189 0.161695 0.155525
H54   H     H_    0.206891 0.790497 0.204592 0.136310
H55   H     H_    0.221985 0.733793 0.210252 0.150491
H56   H     H_    0.150662 0.753054 0.222324 0.162738
H57   H     H_    0.764942 0.771094 0.838210 0.159419
H58   H     H_    0.793043 0.790228 0.795147 0.135547
H59   H     H_    0.778031 0.733540 0.789890 0.151626
H60   H     H_    0.735053 0.271142 0.161736 0.155549
H61   H     H_    0.706923 0.290383 0.204702 0.136323
H62   H     H_    0.721980 0.233682 0.210205 0.150488
H63   H     H_    0.264949 0.271141 0.838250 0.159411
H64   H     H_    0.293070 0.290345 0.795248 0.135525
H65   H     H_    0.278023 0.233648 0.789834 0.151602
H66   H     H_    0.349338 0.252836 0.777675 0.162994
H67   H     H_    0.650666 0.252902 0.222335 0.162736
H68   H     H_    0.951488 0.580448 0.274712 0.129539
O1    O     O_R   0.679710 0.768740 0.859430 -0.518526
O2    O     O_R   0.493030 0.955460 0.410980 -0.508089
O3    O     O_R   0.006970 0.455460 0.589020 -0.509707
O4    O     O_R   0.993030 0.455460 0.410980 -0.508117
O5    O     O_R   0.582050 0.955480 0.588990 -0.500314
O6    O     O_R   0.417950 0.955480 0.411010 -0.499889
O7    O     O_R   0.082050 0.455480 0.588990 -0.500337
O8    O     O_R   0.917950 0.455480 0.411010 -0.499883
O9    O     O_R   0.731220 0.820270 0.962460 -0.504255
O10   O     O_R   0.268780 0.820270 0.037540 -0.502733
O11   O     O_R   0.231220 0.320270 0.962460 -0.504298
O12   O     O_R   0.320290 0.768740 0.140570 -0.492645
O13   O     O_R   0.768780 0.320270 0.037540 -0.502720
O14   O     O_R   0.659370 0.724200 0.948480 -0.497612
O15   O     O_R   0.340630 0.724200 0.051520 -0.451028
O16   O     O_R   0.159370 0.224200 0.948480 -0.497442
O17   O     O_R   0.840630 0.224200 0.051520 -0.450786
O18   O     O_R   0.710880 0.775730 0.051510 -0.468377
O19   O     O_R   0.289120 0.775730 0.948490 -0.512711
O20   O     O_R   0.210880 0.275730 0.051510 -0.468638
O21   O     O_R   0.789120 0.275730 0.948490 -0.512880
O22   O     O_R   0.768760 0.679710 0.037490 -0.502199
O23   O     O_R   0.179710 0.268740 0.859430 -0.518484
O24   O     O_R   0.231240 0.679710 0.962510 -0.507099
O25   O     O_R   0.268760 0.179710 0.037490 -0.502155
O26   O     O_R   0.731240 0.179710 0.962510 -0.507037
O27   O     O_R   0.820270 0.731240 0.140520 -0.478729
O28   O     O_R   0.179730 0.731240 0.859480 -0.511615
O29   O     O_R   0.320270 0.231240 0.140520 -0.478787
O30   O     O_R   0.679730 0.231240 0.859480 -0.511655
O31   O     O_R   0.789100 0.724240 0.948440 -0.520159
O32   O     O_R   0.210900 0.724240 0.051560 -0.521552
O33   O     O_R   0.289100 0.224240 0.948440 -0.520164
O34   O     O_R   0.820290 0.268740 0.140570 -0.492681
O35   O     O_R   0.710900 0.224240 0.051560 -0.521568
O36   O     O_R   0.840600 0.775770 0.051470 -0.505052
O37   O     O_R   0.159400 0.775770 0.948530 -0.502182
O38   O     O_R   0.340600 0.275770 0.051470 -0.505045
O39   O     O_R   0.659400 0.275770 0.948530 -0.502193
O40   O     O_R   0.006940 0.544490 0.589000 -0.533614
O41   O     O_R   0.993060 0.544490 0.411000 -0.536270
O42   O     O_R   0.506940 0.044490 0.589000 -0.533624
O43   O     O_R   0.493060 0.044490 0.411000 -0.536276
O44   O     O_R   0.082020 0.544510 0.588970 -0.446846
O45   O     O_R   0.917980 0.544510 0.411030 -0.444088
O46   O     O_R   0.582020 0.044510 0.588970 -0.446862
O47   O     O_R   0.417980 0.044510 0.411030 -0.444085
O48   O     O_R   0.506970 0.955460 0.589020 -0.509740

loop_
_geom_bond_atom_site_label_1
_geom_bond_atom_site_label_2
_ccdc_geom_bond_type
C44   C49   D    
Cu6   Cu10  S    
C83   C87   A    
Cu1   O22   S    
C102  H3    S    
C29   H39   S    
C53   C58   D    
C36   H58   S    
C2    C18   A    
C67   O34   A    
C14   C18   A    
C29   C112  S    
C69   C77   A    
C52   H19   S    
C14   C31   S    
C4    C8    A    
C51   H18   S    
C119  O46   A    
C37   C62   S    
C33   H51   S    
C34   H53   S    
C15   C32   S    
Cu10  O11   S    
C45   O10   A    
C24   Cl8   S    
C128  O7    A    
C15   C19   A    
C99   C108  S    
Cu2   O5    S    
C45   C57   S    
C28   H36   S    
C9    C73   S    
C120  O43   A    
C13   Cl7   S    
Cu12  O42   S    
C16   C20   A    
Cu5   O12   S    
C48   C127  S    
C73   O18   A    
C47   H14   S    
C10   C15   A    
C132  O38   A    
C6    Cl14  S    
C43   H10   S    
C43   C52   S    
C63   C90   A    
C20   C25   A    
C94   C98   A    
Cu7   O35   S    
C65   C70   A    
C30   H42   S    
C92   C96   A    
C3    O39   A    
C116  H8    S    
C68   C132  S    
C4    C78   A    
C59   H26   S    
C55   H22   S    
Cu4   O44   S    
Cu11  O21   S    
Cu6   O23   S    
C71   C80   A    
C57   H24   S    
Cu10  O20   S    
C61   C87   A    
C59   C67   S    
C132  O33   A    
C38   C63   S    
C10   C76   S    
C44   C53   S    
C77   C91   A    
C20   C24   A    
C1    O1    A    
C54   H21   S    
C87   C95   A    
C21   C78   A    
C44   H11   S    
Cu12  O47   S    
C106  Cl3   S    
C29   H38   S    
Cu8   O9    S    
C40   C111  A    
C43   C48   D    
C90   C97   A    
C104  C118  S    
C130  O31   A    
C8    C12   A    
C42   C51   S    
C49   H16   S    
C130  O36   A    
C128  O3    A    
C37   H61   S    
C23   C100  A    
C77   C82   A    
C103  H4    S    
Cu6   O33   S    
C21   C22   A    
C34   C60   S    
C46   H13   S    
C105  C117  S    
C93   Cl18  S    
C101  H2    S    
Cu6   O16   S    
C117  O44   A    
C76   O17   A    
C107  C119  S    
C91   Cl16  S    
C33   H52   S    
C81   C85   A    
C99   H68   S    
C38   H65   S    
C7    Cl15  S    
C54   C59   D    
C2    C122  A    
Cu4   O7    S    
C101  C105  D    
C85   C90   A    
C81   C94   A    
C12   C17   A    
C28   H35   S    
C3    O35   A    
C13   C19   A    
C129  O4    A    
C80   C84   A    
C95   H45   S    
C39   C78   A    
Cu8   O18   S    
C121  O22   A    
C29   H37   S    
C84   C85   A    
Cu7   O17   S    
C115  H7    S    
C31   H43   S    
C52   C57   D    
C53   H20   S    
C26   C108  S    
Cu9   O19   S    
C32   H47   S    
C62   C66   A    
C34   H55   S    
C120  O47   A    
C113  H5    S    
C73   O14   A    
Cu10  O29   S    
C28   C110  S    
C94   Cl19  S    
C82   C86   A    
C30   H41   S    
C62   C88   A    
C125  O26   A    
Cu8   O27   S    
C17   C21   A    
C13   C24   A    
Cu11  O39   S    
C103  C112  S    
Cu7   O34   S    
C74   O19   A    
C2    Cl6   S    
C108  C113  D    
C125  O30   A    
C35   C39   A    
C9    C14   A    
C5    C9    A    
C107  Cl4   S    
C50   C129  S    
C16   C33   S    
C70   H12   S    
C11   C16   A    
C7    C11   A    
C66   C71   A    
C131  O37   A    
C64   C131  S    
Cu3   O3    S    
C72   C81   A    
C68   C72   A    
Cu1   O14   S    
Cu2   O2    S    
C58   H25   S    
C8    C74   S    
C123  O24   A    
C41   C100  A    
Cu1   O1    S    
C27   H30   S    
C97   H66   S    
C64   C69   A    
C86   C96   A    
C76   O21   A    
Cu5   O15   S    
C36   H59   S    
Cu9   O10   S    
C1    O9    A    
C109  C114  D    
C35   Cl9   S    
C114  C123  S    
C35   C89   A    
Cu9   O28   S    
C40   C41   A    
C46   C54   S    
C121  O27   A    
C124  O25   A    
Cu8   O36   S    
Cu7   O26   S    
C116  C125  S    
C113  C121  S    
C129  O8    A    
Cu12  O6    S    
C38   H64   S    
Cu7   Cu11  S    
Cu5   O24   S    
C3    C66   S    
C27   H31   S    
C32   H49   S    
C36   C61   S    
C93   C97   A    
C112  C116  D    
C117  O40   A    
C19   C23   A    
C47   C126  S    
C79   C92   A    
C131  O32   A    
Cu2   Cu12  S    
C114  H6    S    
C49   C128  S    
C63   C68   A    
Cu10  O38   S    
C127  O2    A    
C26   H28   S    
C115  C124  S    
C106  C120  S    
C70   C79   A    
C18   C22   A    
C40   Cl11  S    
C56   O11   A    
C48   H15   S    
C84   C88   A    
C122  Cl5   S    
C71   H23   S    
Cu5   Cu9   S    
C5    Cl12  S    
C42   H9    S    
Cu3   O8    S    
C118  O45   A    
C103  C107  D    
C33   H50   S    
C34   H54   S    
C38   H63   S    
C26   H27   S    
C123  O28   A    
C7    C111  A    
Cu6   O25   S    
C30   H40   S    
C46   C50   D    
C28   H33   S    
C65   C130  S    
C60   C64   A    
C37   H62   S    
Cu9   O37   S    
C104  Cl20  S    
Cu1   Cu8   S    
C12   C30   S    
C1    C55   S    
C31   H44   S    
Cu3   O45   S    
C96   H56   S    
C26   H29   S    
C119  O42   A    
C79   C83   A    
C74   O15   A    
C67   O13   A    
C72   H34   S    
C31   H46   S    
C126  O48   A    
C124  O29   A    
Cu4   O4    S    
C102  C110  S    
C32   H48   S    
C36   H57   S    
Cu11  O30   S    
Cu4   O41   S    
C22   C89   A    
C56   C58   S    
Cu5   O32   S    
C99   C104  D    
C39   Cl10  S    
C51   C55   D    
C42   C47   D    
C25   C111  A    
Cu2   O43   S    
Cu1   O31   S    
C69   H1    S    
C37   H60   S    
Cu11  O13   S    
C6    C10   A    
C60   C86   A    
C91   C95   A    
C98   H67   S    
C50   H17   S    
C88   C98   A    
C61   C65   A    
C17   C122  A    
C45   O12   A    
C23   C25   A    
C41   Cl13  S    
C27   C109  S    
C127  O6    A    
C82   C83   A    
C102  C106  D    
C56   O23   A    
C92   Cl17  S    
Cu12  O48   S    
Cu2   O46   S    
C11   C75   S    
C27   H32   S    
Cu3   O40   S    
C80   C93   A    
Cu3   Cu4   S    
C126  O5    A    
C101  C109  S    
C110  C115  D    
C118  O41   A    
C5    C89   A    
C75   O16   A    
C75   O20   A    
C6    C100  A    
C4    Cl1   S    
C105  Cl2   S    
