data_mof_unit_57895.cif
_audit_creation_date              2012-12-11T17:11:36-0500
_audit_creation_method            fapswitch 2.2
_symmetry_space_group_name_H-M    P1
_symmetry_Int_Tables_number       1
_space_group_crystal_system       triclinic
_cell_length_a                    14.958858
_cell_length_b                    6.936804
_cell_length_c                    13.634085
_cell_angle_alpha                 90.0
_cell_angle_beta                  100.712327
_cell_angle_gamma                 90.000015
_cell_volume                      1390.10821725

loop_
_atom_site_label
_atom_site_type_symbol
_atom_type_description
_atom_site_fract_x
_atom_site_fract_y
_atom_site_fract_z
_atom_type_partial_charge
O1    O     O_R   0.398250 0.605080 0.401520 -0.537150
O2    O     O_R   0.898250 0.394920 0.901520 -0.537150
O3    O     O_R   0.584130 0.932110 0.405450 -0.523925
O4    O     O_R   0.084130 0.067890 0.905450 -0.523922
O5    O     O_R   0.601750 0.105090 0.598480 -0.528228
O6    O     O_R   0.101750 0.894910 0.098480 -0.528221
C1    C     C_R   0.616319 0.764248 0.388239 0.780461
C2    C     C_R   0.116320 0.235752 0.888241 0.780474
O7    O     O_R   0.397870 0.934620 0.389680 -0.539256
O8    O     O_R   0.897870 0.065380 0.889680 -0.539257
O9    O     O_R   0.414160 0.107620 0.582600 -0.537136
O10   O     O_R   0.914160 0.892380 0.082600 -0.537135
C3    C     C_R   0.363985 0.765716 0.362638 0.736899
C4    C     C_R   0.863985 0.234284 0.862638 0.736897
O11   O     O_R   0.585840 0.602550 0.417400 -0.541655
O12   O     O_R   0.085840 0.397450 0.917400 -0.541654
O13   O     O_3   0.505560 0.772440 0.563310 -0.379052
O14   O     O_3   0.005560 0.227560 0.063310 -0.379051
V1    V     V_3+5 0.498970 0.046250 0.488250 1.476073
V2    V     V_3+5 0.998970 0.953750 0.988250 1.476066
O15   O     O_R   0.415870 0.437500 0.594550 -0.545631
O16   O     O_R   0.915870 0.562500 0.094550 -0.545635
C5    C     C_R   0.388262 0.268257 0.616878 0.744660
C6    C     C_R   0.888263 0.731743 0.116879 0.744664
O17   O     O_R   0.602130 0.434980 0.610320 -0.545539
O18   O     O_R   0.102130 0.565020 0.110320 -0.545539
C7    C     C_R   0.635923 0.265891 0.637412 0.745130
C8    C     C_R   0.135923 0.734109 0.137412 0.745130
V3    V     V_3+5 0.501030 0.546580 0.511750 1.439448
V4    V     V_3+5 0.001030 0.453420 0.011750 1.439439
O19   O     O_3   0.494440 0.270520 0.436690 -0.364886
O20   O     O_3   0.994440 0.729480 0.936690 -0.364888
C9    C     C_1   0.716302 0.255175 0.716921 -0.169746
C10   C     C_1   0.216302 0.744825 0.216922 -0.169744
C11   C     C_1   0.783624 0.244987 0.783076 -0.176318
C12   C     C_1   0.283624 0.755012 0.283076 -0.176317
C13   C     C_2   0.319124 0.119258 0.752424 0.115735
C14   C     C_2   0.819115 0.880754 0.252414 0.115720
C15   C     C_2   0.319278 0.257814 0.682017 -0.299844
C16   C     C_2   0.819277 0.742186 0.182017 -0.299854
H1    H     H_    0.264857 0.363356 0.668095 0.131068
H2    H     H_    0.764862 0.636631 0.168100 0.131070
C17   C     C_2   0.240416 0.093955 0.805766 0.016131
C18   C     C_2   0.740406 0.906051 0.305754 0.016144
C19   C     C_2   0.192095 0.246786 0.831048 -0.422615
C20   C     C_2   0.692092 0.753215 0.331045 -0.422597
H3    H     H_    0.212411 0.390951 0.813582 0.173583
H4    H     H_    0.712415 0.609051 0.313586 0.173554
C21   C     C_3   0.398896 0.981549 0.778244 -0.680236
H5    H     H_    0.399363 0.909252 0.850958 0.193650
H6    H     H_    0.395040 0.868725 0.719873 0.223806
H7    H     H_    0.464331 0.060831 0.785475 0.182054
C22   C     C_3   0.898879 0.018485 0.278227 -0.680261
H8    H     H_    0.899341 0.090795 0.350937 0.193653
H9    H     H_    0.964319 0.939219 0.285464 0.182065
H10   H     H_    0.895018 0.131297 0.219851 0.223802
C23   C     C_2   0.220795 0.893534 0.833220 0.792373
O21   O     O_2   0.198974 0.773262 0.767626 -0.576608
O22   O     O_R   0.232293 0.840503 0.933721 -0.663075
H11   H     H_    0.218848 0.699062 0.942737 0.279838
C24   C     C_2   0.720772 0.106472 0.333196 0.792379
O23   O     O_2   0.698916 0.226712 0.267593 -0.576594
O24   O     O_R   0.732293 0.159536 0.433694 -0.663087
H12   H     H_    0.718834 0.300972 0.442701 0.279842

loop_
_geom_bond_atom_site_label_1
_geom_bond_atom_site_label_2
_ccdc_geom_bond_type
C13   C17   S    
C14   C16   D    
C1    C20   S    
C14   C18   S    
O5    V1    S    
C18   C24   S    
O17   C7    A    
O13   V3    S    
O10   C6    A    
O18   C8    A    
O8    C4    A    
O2    V4    S    
O4    C2    A    
C21   H7    S    
V1    O19   S    
O3    V1    S    
O10   V2    S    
C2    O12   A    
O1    V3    S    
C8    C10   S    
O22   H11   S    
C13   C15   D    
C22   H8    S    
C7    C9    S    
V4    O20   S    
C17   C19   D    
C9    C11   T    
O9    V1    S    
C23   O21   D    
C14   C22   S    
O6    V2    S    
C3    C12   S    
C19   H3    S    
O14   V4    S    
C1    O11   A    
O13   V1    S    
C18   C20   D    
O11   V3    S    
O3    C1    A    
C10   C12   T    
C22   H9    S    
O15   C5    A    
O17   V3    S    
C24   O23   D    
O2    C4    A    
O16   C6    A    
C23   O22   S    
O1    C3    A    
C17   C23   S    
O12   V4    S    
O24   H12   S    
O4    V2    S    
C20   H4    S    
C13   C21   S    
C15   H1    S    
O14   V2    S    
V3    O19   S    
C21   H5    S    
V2    O20   S    
C22   H10   S    
O9    C5    A    
C4    C11   S    
C24   O24   S    
O7    C3    A    
C2    C19   S    
O16   V4    S    
C6    C16   S    
O5    C7    A    
O15   V3    S    
C5    C15   S    
O6    C8    A    
O7    V1    S    
O8    V2    S    
C16   H2    S    
C21   H6    S    
O18   V4    S    
