data_mof_unit_35119.cif
_audit_creation_date              2012-12-11T16:08:53-0500
_audit_creation_method            fapswitch 2.2
_symmetry_space_group_name_H-M    P1
_symmetry_Int_Tables_number       1
_space_group_crystal_system       triclinic
_cell_length_a                    19.91402
_cell_length_b                    19.846849
_cell_length_c                    19.837119
_cell_angle_alpha                 110.616245
_cell_angle_beta                  107.402614
_cell_angle_gamma                 110.689069
_cell_volume                      6008.60731185

loop_
_atom_site_label
_atom_site_type_symbol
_atom_type_description
_atom_site_fract_x
_atom_site_fract_y
_atom_site_fract_z
_atom_type_partial_charge
C1    C     C_R   0.656721 0.929870 0.925994 0.126616
C2    C     C_3   0.525541 0.545345 0.036003 -0.234297
C3    C     C_3   0.657076 0.610730 0.080435 0.252286
C4    C     C_3   0.542872 0.538988 0.113314 0.252887
C5    C     C_1   0.557790 0.737376 0.053172 -0.012759
C6    C     C_1   0.576100 0.363825 0.077840 -0.001223
C7    C     C_3   0.612519 0.631414 0.169585 -0.206957
C8    C     C_3   0.587394 0.518651 0.024581 -0.203834
C9    C     C_3   0.596468 0.637676 0.091482 0.094000
C10   C     C_3   0.603372 0.511690 0.102366 0.098179
C11   C     C_1   0.580896 0.697018 0.074606 -0.057573
C12   C     C_R   0.332940 0.069972 0.037653 0.142117
C13   C     C_1   0.594154 0.433926 0.095459 -0.054959
C14   C     C_3   0.483295 0.044153 0.532938 -0.152508
C15   C     C_3   0.324356 0.964165 0.421541 -0.157320
C16   C     C_R   0.496322 0.070216 0.227201 0.165960
C17   C     C_R   0.462949 0.930024 0.762638 0.186601
C18   C     C_3   0.439334 0.963703 0.448866 -0.151506
C19   C     C_3   0.368640 0.045174 0.507216 -0.156176
C20   C     C_1   0.421761 0.000161 0.285938 0.000158
C21   C     C_1   0.447424 0.004241 0.683318 -0.012369
C22   C     C_3   0.442415 0.083274 0.493339 -0.153063
C23   C     C_R   0.451226 0.000870 0.229342 0.054041
C24   C     C_3   0.365793 0.925363 0.461999 -0.157704
C25   C     C_3   0.398436 0.002666 0.409724 0.213714
C26   C     C_3   0.409838 0.005967 0.545608 0.218115
C27   C     C_1   0.404791 0.000772 0.338755 -0.083700
C28   C     C_1   0.426395 0.006264 0.621524 -0.089771
C29   C     C_3   0.985787 0.448668 0.481035 0.482976
C30   C     C_3   0.060294 0.395116 0.565845 0.486644
C31   C     C_3   0.003397 0.470472 0.568547 0.485749
C32   C     C_3   0.041644 0.372430 0.476952 0.486869
C33   C     C_1   0.212641 0.636145 0.711829 -0.062916
C34   C     C_R   0.476681 0.000450 0.755532 0.077182
C35   C     C_1   0.816101 0.253323 0.317554 -0.050196
C36   C     C_3   0.072588 0.464788 0.499889 -0.604536
C37   C     C_3   0.972231 0.378227 0.545908 -0.601851
C38   C     C_3   0.090625 0.487055 0.589144 -0.087298
C39   C     C_3   0.954629 0.356232 0.456746 -0.095842
C40   C     C_R   0.735973 0.191710 0.166727 -0.134619
C41   C     C_R   0.273017 0.768456 0.841801 -0.093811
C42   C     C_1   0.160154 0.565947 0.658911 0.123174
C43   C     C_1   0.878835 0.294593 0.380773 0.122982
C44   C     C_3   0.993216 0.968526 0.954962 -0.150986
C45   C     C_R   0.742512 0.212538 0.243332 0.106458
C46   C     C_3   0.954618 0.028482 0.856350 -0.156346
C47   C     C_3   0.985842 0.047092 0.979833 -0.150770
C48   C     C_3   0.963102 0.949379 0.831423 -0.154983
C49   C     C_1   0.784158 0.998794 0.919917 0.050864
C50   C     C_1   0.179908 0.999010 0.956773 0.022394
C51   C     C_3   0.913551 0.919571 0.872640 -0.152088
C52   C     C_3   0.035109 0.077251 0.939089 -0.154923
C53   C     C_3   0.906651 0.998212 0.897583 0.209322
C54   C     C_3   0.041721 0.998477 0.914115 0.219581
C55   C     C_1   0.836318 0.998486 0.902625 -0.090687
C56   C     C_R   0.270598 0.722152 0.770187 0.075048
C57   C     C_1   0.117289 0.998672 0.933617 -0.102175
C58   C     C_R   0.467303 0.799825 0.036872 0.190246
C59   C     C_R   0.572247 0.230825 0.003053 0.175380
C60   C     C_R   0.666108 0.191852 0.236334 -0.154831
C61   C     C_R   0.342162 0.768448 0.772955 -0.116825
C62   C     C_R   0.542004 0.805743 0.971990 -0.217233
C63   C     C_R   0.504147 0.231151 0.073282 -0.168164
C64   C     C_R   0.426078 0.931302 0.157712 -0.180521
C65   C     C_R   0.528162 0.070020 0.833481 -0.223511
C66   C     C_R   0.727292 0.069137 0.996438 0.123422
C67   C     C_R   0.524154 0.779473 0.023399 0.067449
C68   C     C_R   0.262790 0.929394 0.967708 0.136154
C69   C     C_R   0.728557 0.999209 0.950603 0.005804
C70   C     C_R   0.254178 0.999450 0.986715 0.016412
C71   C     C_3   0.665212 0.806806 0.853959 -0.938902
C72   C     C_3   0.296744 0.180718 0.078576 -0.919157
C73   C     C_3   0.904975 0.492902 0.593253 0.288934
C74   C     C_3   0.890033 0.560301 0.640067 -0.910417
C75   C     C_3   0.139537 0.349745 0.451618 0.286304
C76   C     C_3   0.154214 0.282735 0.403555 -0.911904
C77   C     C_3   0.988277 0.557948 0.462835 0.291132
C78   C     C_R   0.547425 0.277506 0.047752 0.047304
C79   C     C_3   0.934356 0.585097 0.421412 -0.910221
C80   C     C_3   0.059975 0.287471 0.585567 0.286804
C81   C     C_3   0.114364 0.262154 0.629434 -0.912168
C82   C     C_3   0.547967 0.192957 0.359865 -0.950953
C83   C     C_3   0.391904 0.822136 0.613981 -0.937412
C84   C     C_3   0.427691 0.717922 0.102992 -0.924388
C85   C     C_3   0.639253 0.312934 0.950482 -0.939334
C86   C     C_3   0.862495 0.189383 0.051317 -0.919594
C87   C     C_3   0.116075 0.818395 0.900932 -0.896643
C88   C     C_3   0.767823 0.614832 0.050113 -0.928001
C89   C     C_3   0.674943 0.603773 0.158349 -0.239841
C90   C     C_3   0.431093 0.535195 0.141734 -0.929369
H1    H     H_    0.736270 0.626337 0.207235 0.136421
H2    H     H_    0.473722 0.147949 0.504773 0.117740
H3    H     H_    0.930531 0.342026 0.562766 0.171225
H4    H     H_    0.114111 0.500805 0.482749 0.171220
H5    H     H_    0.994310 0.087319 0.040873 0.118933
H6    H     H_    0.955652 0.909381 0.770921 0.117084
H7    H     H_    0.010101 0.944073 0.995785 0.116180
H8    H     H_    0.937032 0.052814 0.815675 0.116784
H9    H     H_    0.086504 0.141809 0.966761 0.120557
H10   H     H_    0.862373 0.854956 0.845223 0.120036
H11   H     H_    0.785035 0.199210 0.152157 0.131358
H12   H     H_    0.463950 0.521861 0.986814 0.136360
H13   H     H_    0.234846 0.742376 0.865131 0.111450
H14   H     H_    0.651033 0.199568 0.285276 0.127788
H15   H     H_    0.365779 0.742432 0.735081 0.105215
H16   H     H_    0.583613 0.798970 0.949612 0.150305
H17   H     H_    0.492611 0.257256 0.123225 0.123727
H18   H     H_    0.376225 0.869510 0.133721 0.120356
H19   H     H_    0.550587 0.134151 0.848828 0.147106
H20   H     H_    0.557241 0.812114 0.829438 0.156050
H21   H     H_    0.628196 0.744505 0.845389 0.242542
H22   H     H_    0.724106 0.842541 0.912152 0.252807
H23   H     H_    0.578112 0.472562 0.965728 0.133346
H24   H     H_    0.678365 0.797243 0.801871 0.258807
H25   H     H_    0.398004 0.180220 0.150099 0.156514
H26   H     H_    0.328641 0.249736 0.119547 0.243751
H27   H     H_    0.251077 0.150537 0.095359 0.252471
H28   H     H_    0.266304 0.166074 0.014224 0.258583
H29   H     H_    0.882560 0.441416 0.606102 0.097563
H30   H     H_    0.869118 0.468297 0.526338 0.121104
H31   H     H_    0.911045 0.612198 0.627593 0.257075
H32   H     H_    0.823533 0.533219 0.620134 0.209606
H33   H     H_    0.924080 0.585652 0.707217 0.261744
H34   H     H_    0.621591 0.677791 0.228100 0.130704
H35   H     H_    0.175315 0.373215 0.518254 0.121442
H36   H     H_    0.162242 0.402016 0.439838 0.098494
H37   H     H_    0.120350 0.258626 0.336671 0.262288
H38   H     H_    0.220714 0.309764 0.423501 0.210133
H39   H     H_    0.132874 0.229992 0.414836 0.256502
H40   H     H_    0.039000 0.569829 0.447394 0.098819
H41   H     H_    0.014301 0.596912 0.530569 0.123426
H42   H     H_    0.883534 0.574725 0.436517 0.256922
H43   H     H_    0.971300 0.652785 0.443415 0.209159
H44   H     H_    0.908197 0.548368 0.353613 0.263963
H45   H     H_    0.468445 0.930140 0.424115 0.118008
H46   H     H_    0.035797 0.248286 0.518217 0.121401
H47   H     H_    0.008027 0.274473 0.599201 0.098377
H48   H     H_    0.138727 0.299142 0.696906 0.263140
H49   H     H_    0.078302 0.194425 0.607709 0.209223
H50   H     H_    0.166434 0.273649 0.616200 0.256655
H51   H     H_    0.519360 0.188382 0.246577 0.152897
H52   H     H_    0.602082 0.255287 0.385829 0.240450
H53   H     H_    0.569821 0.156967 0.382808 0.253235
H54   H     H_    0.505518 0.202414 0.382501 0.261371
H55   H     H_    0.464834 0.820426 0.713737 0.153378
H56   H     H_    0.339847 0.078577 0.532819 0.116855
H57   H     H_    0.364606 0.753517 0.574859 0.244585
H58   H     H_    0.438347 0.854830 0.599233 0.254594
H59   H     H_    0.341588 0.835740 0.599559 0.260045
H60   H     H_    0.356155 0.750451 0.035030 0.150684
H61   H     H_    0.385281 0.704000 0.128439 0.246700
H62   H     H_    0.491189 0.752032 0.154247 0.260721
H63   H     H_    0.413307 0.657492 0.054062 0.253613
H64   H     H_    0.665733 0.228870 0.977077 0.154564
H65   H     H_    0.648402 0.286592 0.896732 0.241105
H66   H     H_    0.689601 0.379272 0.993627 0.265062
H67   H     H_    0.548752 0.076927 0.579531 0.116914
H68   H     H_    0.579886 0.310882 0.927719 0.249237
H69   H     H_    0.752482 0.189848 0.025072 0.156609
H70   H     H_    0.890045 0.251876 0.106142 0.244702
H71   H     H_    0.886227 0.198137 0.009218 0.258782
H72   H     H_    0.882476 0.151475 0.072591 0.249216
H73   H     H_    0.219700 0.819896 0.970812 0.150938
H74   H     H_    0.079199 0.749617 0.874226 0.247033
H75   H     H_    0.098068 0.831251 0.850285 0.260721
H76   H     H_    0.102359 0.849850 0.949088 0.244392
H77   H     H_    0.753866 0.716517 0.102318 0.164388
H78   H     H_    0.259186 0.931479 0.374379 0.116346
H79   H     H_    0.810571 0.648547 0.032558 0.251059
H80   H     H_    0.727853 0.548063 0.999807 0.256463
H81   H     H_    0.804193 0.618980 0.107750 0.246933
H82   H     H_    0.445424 0.433488 0.091332 0.167244
H83   H     H_    0.388268 0.502223 0.159648 0.251197
H84   H     H_    0.394761 0.529901 0.083365 0.248296
H85   H     H_    0.470760 0.602303 0.191217 0.258783
H86   H     H_    0.334725 0.860684 0.450619 0.121025
N1    N     N_R   0.613530 0.956740 0.956480 -0.084093
N2    N     N_R   0.386500 0.842990 0.843230 -0.046741
N3    N     N_R   0.499770 0.842990 0.956480 -0.054206
N4    N     N_R   0.500230 0.157010 0.043520 -0.053050
N5    N     N_R   0.456470 0.956710 0.113500 -0.055170
N6    N     N_R   0.543530 0.043290 0.886500 -0.058455
N7    N     N_R   0.656800 0.043290 0.999750 -0.085676
N8    N     N_R   0.343200 0.956710 0.000250 -0.090439
N9    N     N_2   0.619712 0.849952 0.854957 -0.110480
N10   N     N_2   0.356153 0.154276 0.089628 -0.109984
N11   N     N_2   0.506063 0.150257 0.270769 -0.114477
N12   N     N_R   0.386470 0.043260 0.043520 -0.092363
N13   N     N_2   0.429958 0.846338 0.699596 -0.116168
N14   N     N_2   0.416603 0.769380 0.069329 -0.115560
N15   N     N_2   0.641112 0.265890 0.992094 -0.111103
N16   N     N_2   0.773943 0.149875 0.008958 -0.108748
N17   N     N_2   0.202171 0.845193 0.936361 -0.111168
N18   N     N_2   0.719036 0.652511 0.062325 -0.110574
N19   N     N_2   0.480218 0.497566 0.130970 -0.111127
N20   N     N_R   0.499750 0.043260 0.156770 -0.076178
N21   N     N_R   0.500250 0.956740 0.843230 -0.080966
N22   N     N_R   0.656790 0.157020 0.113500 -0.048738
N23   N     N_R   0.343210 0.842980 0.886500 -0.049209
N24   N     N_R   0.456490 0.842980 0.999750 -0.076757
N25   N     N_R   0.543510 0.157020 0.000250 -0.074159
N26   N     N_R   0.613500 0.157010 0.156770 -0.044040
Ni1   Ni    Ni4+2 0.500010 0.900760 0.900750 0.190864
Ni2   Ni    Ni4+2 0.499990 0.099240 0.099250 0.192237
Ni3   Ni    Ni4+2 0.599260 0.099260 0.000000 0.195728
Ni4   Ni    Ni4+2 0.400740 0.900740 0.000000 0.186975
O1    O     O_3   0.989713 0.528170 0.620025 -0.628875
O2    O     O_3   0.054838 0.314612 0.425054 -0.629201
O3    O     O_3   0.940622 0.471749 0.433562 -0.630270
O4    O     O_3   0.106467 0.373684 0.614352 -0.628565

loop_
_geom_bond_atom_site_label_1
_geom_bond_atom_site_label_2
_ccdc_geom_bond_type
C4    N19   S    
H64   N15   S    
C45   C60   A    
C73   H29   S    
C81   H50   S    
C73   C74   S    
C14   C18   S    
C59   N15   S    
C7    H34   S    
C5    C67   S    
N21   Ni1   S    
N20   Ni2   S    
H20   N9    S    
C87   H75   S    
C15   C19   S    
N6    N21   A    
C29   C36   S    
C58   N24   A    
N26   Ni2   S    
C62   C67   A    
C18   C24   S    
C33   C42   T    
C32   C36   S    
C24   C26   S    
C38   C42   S    
C77   H41   S    
C63   H17   S    
C6    C78   S    
C66   C69   A    
N3    N24   A    
C2    H12   S    
C80   H47   S    
C12   N12   A    
C46   C52   S    
N8    Ni4   S    
C34   C65   A    
C81   H49   S    
C85   H65   S    
C32   C39   S    
N25   Ni3   S    
N5    N20   A    
C19   C26   S    
C82   H52   S    
C40   H11   S    
C1    N1    A    
C48   C51   S    
C90   N19   S    
C10   C89   S    
C22   C25   S    
C66   N16   S    
C72   H27   S    
C58   N14   S    
N24   Ni4   S    
N1    Ni1   S    
C24   H86   S    
C17   N21   A    
C68   N17   S    
C86   H72   S    
C89   H1    S    
C35   C43   T    
C44   C47   S    
C77   O3    S    
C47   C53   S    
C68   C70   A    
C33   C56   S    
C53   C55   S    
C74   H33   S    
C73   O1    S    
C61   N2    A    
C88   H81   S    
C49   C69   S    
N2    Ni1   S    
N22   Ni3   S    
N8    N12   A    
C40   C45   A    
C18   C25   S    
C29   O3    S    
C71   N9    S    
C4    C7    S    
C59   C78   A    
C52   C54   S    
C64   H18   S    
C65   N6    A    
C77   C79   S    
C81   H48   S    
C79   H43   S    
C46   C48   S    
C84   H63   S    
C88   H80   S    
C14   H67   S    
C19   H56   S    
C88   N18   S    
C19   C22   S    
C87   N17   S    
C82   H54   S    
C3    C8    S    
C62   N3    A    
H25   N10   S    
C80   C81   S    
C39   C43   S    
C21   C34   S    
C17   N13   S    
C49   C55   T    
C90   H85   S    
C10   C13   S    
N23   Ni4   S    
C1    C69   A    
C63   N4    A    
C41   H13   S    
C30   C37   S    
C31   C37   S    
C75   H35   S    
C85   H66   S    
C48   C54   S    
C75   C76   S    
C41   C56   A    
C31   O1    S    
C3    C9    S    
C44   C54   S    
H60   N14   S    
N2    N23   A    
C44   H7    S    
C59   N25   A    
C79   H42   S    
C90   H83   S    
C20   C23   S    
C12   N10   S    
C71   H22   S    
C29   C39   S    
C76   H39   S    
C37   H3    S    
C18   H45   S    
C86   H71   S    
C15   C24   S    
C14   C26   S    
C84   N14   S    
C9    C11   S    
C72   N10   S    
C8    H23   S    
H51   N11   S    
C64   N5    A    
C84   H62   S    
C44   C51   S    
C60   N26   A    
C23   C64   A    
C74   H32   S    
C21   C28   T    
N3    Ni1   S    
N4    N25   A    
C16   C23   A    
C25   C27   S    
N7    Ni3   S    
H77   N18   S    
C83   H57   S    
C15   H78   S    
C75   O2    S    
C32   O2    S    
C85   H68   S    
C4    C10   S    
C35   C45   S    
C61   H15   S    
C80   O4    S    
C51   H10   S    
C7    C9    S    
C79   H44   S    
C12   C70   A    
C68   N8    A    
C22   H2    S    
C88   H79   S    
C48   H6    S    
H55   N13   S    
C50   C57   T    
C86   N16   S    
H69   N16   S    
C83   N13   S    
C8    C10   S    
C2    C8    S    
C82   H53   S    
N4    Ni2   S    
C16   N11   S    
C30   O4    S    
C5    C11   T    
C47   C52   S    
C62   H16   S    
C20   C27   T    
C1    N9    S    
C85   N15   S    
C72   H26   S    
C52   H9    S    
C26   C28   S    
C41   N23   A    
C80   H46   S    
C31   C38   S    
N22   N26   A    
C82   N11   S    
C3    C89   S    
N6    Ni3   S    
C71   H21   S    
C75   H36   S    
C66   N7    A    
C36   C38   S    
N5    Ni4   S    
C50   C70   S    
C29   C31   S    
N1    N7    A    
C6    C13   T    
C30   C32   S    
C14   C22   S    
C65   H19   S    
C40   N22   A    
H73   N17   S    
C76   H38   S    
C2    C4    S    
C46   C53   S    
C16   N20   A    
N12   Ni2   S    
C87   H74   S    
C77   H40   S    
C46   H8    S    
C15   C25   S    
C90   H84   S    
C83   H58   S    
C87   H76   S    
C84   H61   S    
C36   H4    S    
C58   C67   A    
C74   H31   S    
C71   H24   S    
C37   C39   S    
C3    N18   S    
C17   C34   A    
C72   H28   S    
C73   H30   S    
C76   H37   S    
C47   H5    S    
C56   C61   A    
H82   N19   S    
C30   C38   S    
C51   C53   S    
C60   H14   S    
C2    C9    S    
C86   H70   S    
C54   C57   S    
C83   H59   S    
C63   C78   A    
C7    C89   S    
