data_mof_unit_44560.cif
_audit_creation_date              2012-12-10T21:06:55-0500
_audit_creation_method            fapswitch 2.2
_symmetry_space_group_name_H-M    P1
_symmetry_Int_Tables_number       1
_space_group_crystal_system       triclinic
_cell_length_a                    10.785222
_cell_length_b                    15.823093
_cell_length_c                    15.045061
_cell_angle_alpha                 89.425647
_cell_angle_beta                  90.557299
_cell_angle_gamma                 90.190335
_cell_volume                      2567.25967372

loop_
_atom_site_label
_atom_site_type_symbol
_atom_type_description
_atom_site_fract_x
_atom_site_fract_y
_atom_site_fract_z
_atom_type_partial_charge
C1    C     C_R   0.499861 0.338848 0.500312 0.905553
C2    C     C_R   0.500140 0.661152 0.499687 0.905552
C3    C     C_R   0.872790 0.496477 0.502296 -0.089163
C4    C     C_R   0.127209 0.503526 0.497704 -0.089163
C5    C     C_R   0.940874 0.481135 0.581391 -0.002357
C6    C     C_R   0.059125 0.518867 0.418609 -0.002361
C7    C     C_R   0.601618 0.955995 0.535904 -0.188909
C8    C     C_R   0.398468 0.044006 0.464046 -0.188905
C9    C     C_R   0.499926 0.913135 0.499866 0.173601
C10   C     C_R   0.500153 0.086866 0.500090 0.173611
C11   C     C_R   0.398268 0.956438 0.464059 -0.208220
C12   C     C_R   0.601819 0.043563 0.535889 -0.208224
C13   C     C_1   0.500062 0.824380 0.499437 -0.092351
C14   C     C_1   0.499990 0.175620 0.500542 -0.092347
C15   C     C_1   0.499828 0.250474 0.500750 -0.204336
C16   C     C_1   0.500197 0.749526 0.499244 -0.204312
C17   C     C_R   0.502687 0.424376 0.952919 -0.248843
C18   C     C_R   0.497273 0.575610 0.047080 -0.248834
C19   C     C_R   0.502215 0.501133 0.905014 0.014945
C20   C     C_R   0.497757 0.498852 0.094986 0.014946
C21   C     C_R   0.499999 0.577720 0.953003 0.025782
C22   C     C_R   0.499958 0.422261 0.046998 0.025830
C23   C     C_R   0.259410 0.502230 0.499182 0.873048
C24   C     C_R   0.740590 0.497770 0.500818 0.873058
C25   C     C_1   0.500791 0.500077 0.807128 0.072619
C26   C     C_1   0.499199 0.499917 0.192872 0.072545
C27   C     C_R   0.209510 0.640958 0.228872 0.069554
C28   C     C_R   0.790508 0.358995 0.771100 0.069545
C29   C     C_R   0.166667 0.619427 0.314364 -0.160266
C30   C     C_R   0.833352 0.380548 0.685613 -0.160290
C31   C     C_R   0.114212 0.539458 0.331000 0.142197
C32   C     C_R   0.885786 0.460524 0.668995 0.142196
C33   C     C_R   0.105754 0.480679 0.262002 -0.152414
C34   C     C_R   0.894229 0.519291 0.738006 -0.152388
C35   C     C_R   0.148846 0.501430 0.177390 -0.176496
C36   C     C_R   0.851136 0.498518 0.822612 -0.176444
C37   C     C_R   0.199802 0.581123 0.160651 -0.161408
C38   C     C_R   0.800198 0.418817 0.839334 -0.161407
C39   C     C_R   0.932122 0.514560 0.422179 -0.249984
C40   C     C_R   0.067877 0.485445 0.577822 -0.249984
H1    H     H_    0.232781 0.595711 0.094499 0.130804
H2    H     H_    0.767220 0.404211 0.905483 0.130797
H3    H     H_    0.503960 0.365474 0.916693 0.156738
H4    H     H_    0.495987 0.634514 0.083300 0.156783
H5    H     H_    0.170860 0.665298 0.367317 0.109787
H6    H     H_    0.829165 0.334687 0.632651 0.109798
H7    H     H_    0.064756 0.419027 0.273703 0.128462
H8    H     H_    0.935217 0.580947 0.726319 0.128445
H9    H     H_    0.142015 0.455819 0.124416 0.136947
H10   H     H_    0.857956 0.544119 0.875597 0.136915
H11   H     H_    0.680409 0.077391 0.563739 0.144280
H12   H     H_    0.319677 0.922610 0.436212 0.144270
H13   H     H_    0.680083 0.921834 0.563709 0.137107
H14   H     H_    0.319998 0.078166 0.436245 0.137099
N1    N     N_1   0.499960 0.500020 0.270550 -0.086201
N2    N     N_1   0.500040 0.499980 0.729450 -0.086190
O1    O     O_R   0.500000 0.378020 0.573650 -0.625271
O2    O     O_R   0.500000 0.621980 0.426350 -0.625277
O3    O     O_R   0.500060 0.378020 0.426320 -0.600851
O4    O     O_R   0.499940 0.621980 0.573680 -0.600835
O5    O     O_R   0.316730 0.500010 0.573660 -0.622205
O6    O     O_R   0.683270 0.499990 0.426340 -0.622201
O7    O     O_R   0.316790 0.500010 0.426330 -0.612069
O8    O     O_R   0.683210 0.499990 0.573670 -0.612059
Zn1   Zn    Zn3+2 0.499960 0.500000 0.598370 0.975818
Zn2   Zn    Zn3+2 0.500040 0.500000 0.401630 0.975794
C41   C     C_R   0.263050 0.725766 0.210249 0.096287
C42   C     C_R   0.231764 0.769868 0.131521 -0.177086
C43   C     C_R   0.284310 0.848987 0.113228 -0.127733
C44   C     C_R   0.368661 0.884818 0.173064 -0.106511
C45   C     C_R   0.400048 0.841782 0.251540 -0.144113
C46   C     C_R   0.347011 0.762942 0.270398 -0.157060
H15   H     H_    0.165921 0.743470 0.084541 0.119052
H16   H     H_    0.259616 0.882513 0.052590 0.120903
H17   H     H_    0.409620 0.945927 0.158666 0.120054
H18   H     H_    0.465933 0.869388 0.297596 0.144373
H19   H     H_    0.372875 0.730415 0.331163 0.151338
C47   C     C_R   0.736999 0.274175 0.789705 0.096307
C48   C     C_R   0.768325 0.230057 0.868414 -0.177128
C49   C     C_R   0.715816 0.150922 0.886687 -0.127829
C50   C     C_R   0.631461 0.115094 0.826851 -0.106495
C51   C     C_R   0.600032 0.158149 0.748395 -0.144104
C52   C     C_R   0.653034 0.237003 0.729554 -0.157056
H20   H     H_    0.834168 0.256455 0.915396 0.119093
H21   H     H_    0.740541 0.117382 0.947310 0.120882
H22   H     H_    0.590528 0.053973 0.841234 0.120063
H23   H     H_    0.534141 0.130545 0.702339 0.144374
H24   H     H_    0.627140 0.269544 0.668804 0.151330
H25   H     H_    0.879508 0.527300 0.361689 0.174369
H26   H     H_    0.120491 0.472704 0.638312 0.174365
C53   C     C_R   0.500311 0.339128 0.093506 0.105828
C54   C     C_R   0.406755 0.317919 0.154353 -0.140285
C55   C     C_R   0.408466 0.239742 0.198525 -0.120281
C56   C     C_R   0.502843 0.181896 0.181882 -0.111366
C57   C     C_R   0.595652 0.202161 0.121011 -0.134507
C58   C     C_R   0.594463 0.280387 0.076903 -0.150037
H27   H     H_    0.332439 0.361721 0.167437 0.127548
H28   H     H_    0.336511 0.223966 0.245583 0.126843
H29   H     H_    0.504029 0.121400 0.216129 0.123341
H30   H     H_    0.668848 0.157388 0.108298 0.120684
H31   H     H_    0.667732 0.295726 0.030801 0.122523
C59   C     C_R   0.499598 0.660841 0.906489 0.105875
C60   C     C_R   0.593250 0.682118 0.845746 -0.140286
C61   C     C_R   0.591476 0.760280 0.801543 -0.120317
C62   C     C_R   0.496922 0.818030 0.818042 -0.111323
C63   C     C_R   0.404011 0.797691 0.878806 -0.134568
C64   C     C_R   0.405274 0.719485 0.922953 -0.149998
H32   H     H_    0.667683 0.638380 0.832765 0.127485
H33   H     H_    0.663506 0.776113 0.754566 0.126825
H34   H     H_    0.495680 0.878510 0.783764 0.123346
H35   H     H_    0.330673 0.842385 0.891402 0.120682
H36   H     H_    0.331928 0.704082 0.968969 0.122455

loop_
_geom_bond_atom_site_label_1
_geom_bond_atom_site_label_2
_ccdc_geom_bond_type
C62   H34   S    
C55   C56   A    
C27   C29   A    
C18   C21   A    
C64   H36   S    
C57   C58   A    
C25   N2    T    
C26   N1    T    
C12   H11   S    
C50   C51   A    
C36   H10   S    
C46   H19   S    
C35   C37   A    
C38   H2    S    
C1    O1    A    
C1    O3    A    
O3    Zn2   S    
C61   H33   S    
C2    O4    A    
C63   C64   A    
N2    Zn1   S    
C41   C46   A    
C9    C13   S    
C11   H12   S    
C33   C35   A    
C53   C58   A    
C47   C52   A    
O2    Zn2   S    
C4    C40   A    
C42   C43   A    
C35   H9    S    
C22   C53   S    
C31   C33   A    
C44   C45   A    
C1    C15   S    
C2    C16   S    
C18   C20   A    
C50   H22   S    
C5    C32   S    
C23   O7    A    
C52   H24   S    
O7    Zn2   S    
C3    C39   A    
C24   O8    A    
C58   H31   S    
C48   H20   S    
C3    C24   S    
C43   C44   A    
C61   C62   A    
C54   H27   S    
C63   H35   S    
C7    C12   A    
O6    Zn2   S    
C41   C42   A    
C43   H16   S    
C4    C6    A    
C10   C14   S    
C8    H14   S    
C53   C54   A    
C4    C23   S    
C57   H30   S    
C42   H15   S    
C29   H5    S    
C32   C34   A    
C17   H3    S    
C49   H21   S    
C18   H4    S    
C14   C15   T    
C28   C38   A    
C59   C64   A    
C9    C11   A    
C60   H32   S    
C10   C12   A    
C21   C59   S    
C20   C22   A    
O4    Zn1   S    
C56   C57   A    
C33   H7    S    
C5    C40   A    
C34   H8    S    
C7    H13   S    
C44   H17   S    
N1    Zn2   S    
C28   C47   S    
C7    C9    A    
C24   O6    A    
C19   C21   A    
C47   C48   A    
C30   H6    S    
O1    Zn1   S    
C49   C50   A    
C3    C5    A    
C2    O2    A    
C62   C63   A    
C17   C22   A    
O8    Zn1   S    
C36   C38   A    
C45   C46   A    
C29   C31   A    
C30   C32   A    
C45   H18   S    
C20   C26   S    
C56   H29   S    
C27   C37   A    
C8    C11   A    
C28   C30   A    
C54   C55   A    
C17   C19   A    
C6    C31   S    
C34   C36   A    
C37   H1    S    
C59   C60   A    
C19   C25   S    
C27   C41   S    
C48   C49   A    
O5    Zn1   S    
C23   O5    A    
C8    C10   A    
C51   C52   A    
C13   C16   T    
C60   C61   A    
C6    C39   A    
C40   H26   S    
C55   H28   S    
C39   H25   S    
C51   H23   S    
