data_mof_unit_26713.cif
_audit_creation_date              2012-12-11T14:29:33-0500
_audit_creation_method            fapswitch 2.2
_symmetry_space_group_name_H-M    P1
_symmetry_Int_Tables_number       1
_space_group_crystal_system       triclinic
_cell_length_a                    6.938333
_cell_length_b                    14.761214
_cell_length_c                    16.212627
_cell_angle_alpha                 90.569295
_cell_angle_beta                  90.112846
_cell_angle_gamma                 89.911965
_cell_volume                      1660.3812744

loop_
_atom_site_label
_atom_site_type_symbol
_atom_type_description
_atom_site_fract_x
_atom_site_fract_y
_atom_site_fract_z
_atom_type_partial_charge
O1    O     O_R   0.494400 0.416610 0.413880 -0.547351
O2    O     O_R   0.823920 0.406790 0.585520 -0.526592
O3    O     O_R   0.994250 0.583390 0.586120 -0.526954
C1    C     C_R   0.654823 0.385062 0.613548 0.789440
O4    O     O_R   0.824110 0.405730 0.414490 -0.547176
O5    O     O_R   0.994440 0.582310 0.413870 -0.544046
C2    C     C_R   0.654841 0.383684 0.386324 0.725772
O6    O     O_R   0.494210 0.417690 0.586130 -0.518313
O7    O     O_3   0.660810 0.557940 0.500000 -0.378732
V1    V     V_3+5 0.935650 0.489250 0.500000 1.488656
O8    O     O_R   0.324160 0.593210 0.414480 -0.549211
C3    C     C_R   0.155426 0.613037 0.385101 0.692828
O9    O     O_R   0.323970 0.594270 0.585510 -0.530542
C4    C     C_R   0.155343 0.614339 0.615391 0.815297
V2    V     V_3+5 0.435660 0.510750 0.500000 1.486106
O10   O     O_3   0.160630 0.442060 0.500000 -0.362652
H1    H     H_    0.089591 0.917008 0.502468 0.125481
C5    C     C_R   0.167826 0.558569 0.793889 0.294505
C6    C     C_R   0.176255 0.535835 0.877312 -0.154156
C7    C     C_R   0.167633 0.601908 0.938439 0.389459
C8    C     C_R   0.149349 0.692251 0.917251 -0.197292
C9    C     C_R   0.140347 0.719057 0.833828 -0.028362
C10   C     C_R   0.151268 0.651670 0.769567 -0.005567
C11   C     C_R   0.119903 0.812140 0.814865 -0.130682
C12   C     C_R   0.111450 0.839423 0.731626 0.075230
C13   C     C_R   0.124530 0.773842 0.666935 0.048795
C14   C     C_R   0.144791 0.680282 0.685259 -0.164204
C15   C     C_R   0.090326 0.931973 0.711283 -0.146407
C16   C     C_R   0.082454 0.959276 0.629371 -0.120020
C17   C     C_R   0.095619 0.895484 0.566065 -0.104524
C18   C     C_R   0.116448 0.803919 0.584208 -0.138110
H2    H     H_    0.189106 0.465483 0.895016 0.186948
H3    H     H_    0.142059 0.741127 0.967336 0.132363
H4    H     H_    0.079515 0.984246 0.758347 0.093477
H5    H     H_    0.066132 0.030345 0.614983 0.113443
H6    H     H_    0.125974 0.757249 0.532496 0.087401
C19   C     C_2   0.988499 0.706806 0.279516 -0.079661
C20   C     C_2   0.151485 0.674006 0.313525 -0.220699
H7    H     H_    0.849746 0.686089 0.303729 0.120969
H8    H     H_    0.289590 0.688084 0.285741 0.170715
C21   C     C_2   0.987069 0.765318 0.204895 -0.171720
C22   C     C_2   0.126724 0.825634 0.186570 0.309318
H9    H     H_    0.863117 0.758843 0.164261 0.102686
C23   C     C_2   0.778978 0.207126 0.780809 -0.123081
C24   C     C_2   0.613844 0.179458 0.816478 -0.297636
H10   H     H_    0.914999 0.178679 0.801498 0.139601
H11   H     H_    0.475826 0.206113 0.797054 0.136787
C25   C     C_2   0.791207 0.275137 0.713507 -0.117239
C26   C     C_2   0.638464 0.317784 0.680121 -0.277534
H12   H     H_    0.934596 0.290162 0.690739 0.176123
H13   H     H_    0.493843 0.303831 0.701334 0.162928
C27   C     C_2   0.779442 0.208900 0.214042 -0.118234
C28   C     C_2   0.614195 0.181830 0.177426 -0.290517
H14   H     H_    0.915293 0.180130 0.193240 0.139742
H15   H     H_    0.476655 0.209924 0.196037 0.132665
C29   C     C_2   0.791851 0.277486 0.281950 -0.118713
C30   C     C_2   0.638317 0.315360 0.319575 -0.289542
H16   H     H_    0.935816 0.296740 0.301783 0.136965
H17   H     H_    0.493191 0.296766 0.301702 0.130791
O11   O     O_R   0.770210 0.079270 0.910680 -0.539662
O12   O     O_R   0.440150 0.091160 0.082270 -0.542701
O13   O     O_R   0.269970 0.914530 0.082860 -0.538051
C31   C     C_R   0.608847 0.113206 0.110535 0.742749
O14   O     O_R   0.440480 0.090100 0.911240 -0.544860
O15   O     O_R   0.270310 0.913460 0.910610 -0.535984
C32   C     C_R   0.609013 0.111727 0.883079 0.751589
O16   O     O_R   0.769870 0.080340 0.082930 -0.539642
O17   O     O_3   0.603660 0.938980 0.996790 -0.372366
V3    V     V_3+5 0.328750 0.007610 0.996740 1.433488
O18   O     O_R   0.940600 0.902510 0.911180 -0.536694
C33   C     C_R   0.109377 0.881303 0.882343 0.694894
O19   O     O_R   0.940270 0.903570 0.082200 -0.558331
C34   C     C_R   0.110127 0.883953 0.112134 0.644712
V4    V     V_3+5 0.828770 0.986010 0.996670 1.425312
O20   O     O_3   0.103730 0.054750 0.996710 -0.369725
O21   O     O_3   0.268566 0.844339 0.245251 -0.557170
C35   C     C_3   0.455295 0.829499 0.212968 -0.216434
H18   H     H_    0.516956 0.894072 0.190557 0.159000
H19   H     H_    0.460149 0.776374 0.163586 0.140532
H20   H     H_    0.550026 0.806185 0.263736 0.137884
Cl1   Cl    Cl    0.176240 0.463764 0.726851 -0.699340
Cl2   Cl    Cl    0.178281 0.571371 0.042758 -0.658219

loop_
_geom_bond_atom_site_label_1
_geom_bond_atom_site_label_2
_ccdc_geom_bond_type
C7    Cl2   S    
C21   C22   D    
C6    C7    A    
C1    O6    A    
C35   H18   S    
C23   C24   D    
C12   C15   A    
C13   C14   A    
C16   C17   A    
C15   C16   A    
O5    C3    A    
C17   C18   A    
C30   H17   S    
C8    H3    S    
O17   V4    S    
V2    O10   S    
C5    Cl1   S    
C29   C30   D    
C5    C6    A    
C24   H11   S    
O11   V4    S    
O12   C31   A    
O8    V2    S    
C27   H14   S    
O17   V3    S    
C26   H13   S    
O18   V4    S    
O13   C34   A    
O18   C33   A    
O1    V2    S    
C10   C14   A    
C4    C14   S    
O7    V1    S    
C35   H19   S    
O11   C32   A    
C13   C18   A    
O9    C4    A    
C3    C20   S    
H1    C17   S    
C21   H9    S    
C6    H2    S    
C23   H10   S    
C28   H15   S    
C31   O16   A    
V4    O20   S    
C5    C10   A    
C11   C12   A    
O19   V4    S    
O4    C2    A    
C12   C13   A    
O15   C33   A    
O13   V3    S    
O14   C32   A    
O2    C1    A    
C19   C20   D    
O16   V4    S    
O14   V3    S    
O21   C35   S    
O3    C4    A    
C25   C26   D    
O6    V2    S    
O9    V2    S    
C9    C11   A    
O2    V1    S    
C27   C28   D    
C35   H20   S    
O12   V3    S    
C22   C34   S    
O1    C2    A    
C9    C10   A    
O19   C34   A    
O5    V1    S    
O8    C3    A    
C16   H5    S    
C22   O21   S    
C1    C26   S    
O7    V2    S    
O4    V1    S    
C19   H7    S    
O3    V1    S    
V1    O10   S    
C20   H8    S    
C28   C31   S    
O15   V3    S    
C25   H12   S    
C29   H16   S    
V3    O20   S    
C19   C21   S    
C15   H4    S    
C27   C29   S    
C7    C8    A    
C24   C32   S    
C18   H6    S    
C8    C9    A    
C2    C30   S    
C23   C25   S    
C11   C33   S    
