data_mof_unit_33163.cif
_audit_creation_date              2013-03-05T16:46:43-0500
_audit_creation_method            fapswitch 2.2
_symmetry_space_group_name_H-M    P1
_symmetry_Int_Tables_number       1
_space_group_crystal_system       triclinic
_cell_length_a                    10.67496
_cell_length_b                    8.930236
_cell_length_c                    8.11308
_cell_angle_alpha                 89.960123
_cell_angle_beta                  92.069691
_cell_angle_gamma                 90.374038
_cell_volume                      772.898102343

loop_
_atom_site_label
_atom_site_type_symbol
_atom_site_description
_atom_site_fract_x
_atom_site_fract_y
_atom_site_fract_z
_atom_type_partial_charge
O1    O     O_R   0.500000 0.285350 0.636850 -0.591878
O2    O     O_R   0.500000 0.714650 0.636850 -0.594260
O3    O     O_R   0.500000 0.285360 0.363100 -0.605073
O4    O     O_R   0.500000 0.714640 0.363100 -0.619885
C1    C     C_R   0.501822 0.218071 0.500068 0.978391
C2    C     C_R   0.500133 0.781976 0.499947 0.927333
O5    O     O_R   0.316770 0.500000 0.636900 -0.627333
O6    O     O_R   0.683230 0.500000 0.636900 -0.605231
O7    O     O_R   0.316780 0.500000 0.363150 -0.626178
O8    O     O_R   0.683220 0.500000 0.363150 -0.576561
C3    C     C_R   0.259425 0.488118 0.497044 0.911685
C4    C     C_R   0.740937 0.514393 0.504437 0.878878
Zn1   Zn    Zn3+2 0.500000 0.500000 0.682780 1.097755
Zn2   Zn    Zn3+2 0.500000 0.500000 0.317220 1.092968
H1    H     H_    0.109340 0.597509 0.258929 0.168928
H2    H     H_    0.884402 0.627019 0.272033 0.215809
C5    C     C_R   0.114311 0.311731 0.740309 0.117471
C6    C     C_R   0.903867 0.480566 0.820946 0.135539
C7    C     C_R   0.058692 0.291618 0.893137 0.505019
C8    C     C_R   0.957917 0.380000 0.935836 0.441489
N1    N     N_1   0.500000 0.500000 0.073640 0.032084
N2    N     N_1   0.500000 0.500000 0.926360 0.031076
C9    C     C_R   0.945463 0.479456 0.656548 -0.141845
C10   C     C_R   0.062953 0.419408 0.627936 -0.140408
C11   C     C_R   0.125844 0.476125 0.490889 0.029097
C12   C     C_R   0.875310 0.532689 0.516794 -0.010721
C13   C     C_R   0.061759 0.553423 0.364508 -0.116230
C14   C     C_R   0.935303 0.575635 0.374545 -0.058109
C15   C     C_1   0.501840 0.065220 0.500051 -0.067632
C16   C     C_1   0.501145 0.934809 0.499966 -0.103978
N3    N     N_R   0.211440 0.211406 0.692550 0.236017
O9    O     O_R   0.288585 0.154055 0.802937 -0.307769
O10   O     O_R   0.211705 0.160657 0.542201 -0.392211
N4    N     N_R   0.824746 0.598763 0.877280 0.251624
O11   O     O_R   0.759370 0.581385 0.008023 -0.354868
O12   O     O_R   0.825248 0.729053 0.805125 -0.371334
F1    F     F_    0.103348 0.188312 0.002727 -0.548604
F2    F     F_    0.913116 0.366436 0.089398 -0.591055

loop_
_geom_bond_atom_site_label_1
_geom_bond_atom_site_label_2
_geom_bond_distance
_ccdc_geom_bond_type
H2    C14   1.080555 S    
O7    Zn2   2.004225 S    
N3    O10   1.301662 A    
O6    Zn1   2.004239 S    
C11   C13   1.396545 A    
C8    F2    1.355590 S    
C12   C14   1.392363 A    
C7    C8    1.392341 A    
O6    C4    1.263937 A    
C9    C10   1.394433 A    
O2    C2    1.262667 A    
N1    N2    1.194894 T    
O5    C3    1.273816 A    
O7    C3    1.270108 A    
C15   C16   1.164577 T    
O3    Zn2   1.952340 S    
O8    C4    1.287728 A    
O1    C1    1.263123 A    
Zn2   N1    1.976184 S    
C2    C16   1.364814 S    
Zn1   N2    1.976184 S    
N4    O12   1.302191 A    
C6    N4    1.441044 S    
O4    Zn2   1.952848 S    
C5    N3    1.438583 S    
C5    C10   1.423358 A    
O1    Zn1   1.953013 S    
C3    C11   1.428368 S    
C6    C9    1.420938 A    
C1    C15   1.364993 S    
O5    Zn1   1.977827 S    
C10   C11   1.411460 A    
C6    C8    1.405365 A    
O4    C2    1.262951 A    
N4    O11   1.299271 A    
O8    Zn2   1.977783 S    
C9    C12   1.419491 A    
C13   C14   1.371029 A    
O2    Zn1   1.952503 S    
C7    F1    1.357509 S    
C5    C7    1.404854 A    
H1    C13   1.083996 S    
N3    O9    1.301592 A    
C4    C12   1.442531 S    
O3    C1    1.262525 A    
