data_mof_unit_47436.cif
_audit_creation_date              2012-10-26T19:50:03-0400
_audit_creation_method            fapswitch 2.2
_symmetry_space_group_name_H-M    P1
_symmetry_Int_Tables_number       1
_space_group_crystal_system       triclinic
_cell_length_a                    15.227903
_cell_length_b                    13.800328
_cell_length_c                    10.790174
_cell_angle_alpha                 90.119842
_cell_angle_beta                  90.09308
_cell_angle_gamma                 90.011434
_cell_volume                      2267.54767285

loop_
_atom_site_label
_atom_site_type_symbol
_atom_type_description
_atom_site_fract_x
_atom_site_fract_y
_atom_site_fract_z
_atom_type_partial_charge
C1    C     C_R   0.329658 0.500047 0.500391 0.528356
C2    C     C_R   0.952535 0.499541 0.500775 -0.001015
C3    C     C_R   0.559283 0.107254 0.575422 -0.031509
C4    C     C_R   0.440613 0.106980 0.424741 -0.032479
C5    C     C_R   0.557483 0.209623 0.573642 0.052233
C6    C     C_R   0.442403 0.209361 0.426530 0.052140
C7    C     C_R   0.499956 0.054341 0.500070 0.046433
C8    C     C_R   0.557246 0.892756 0.423272 -0.151198
C9    C     C_R   0.442653 0.892933 0.576743 -0.151097
C10   C     C_R   0.556135 0.790743 0.424472 0.038872
C11   C     C_R   0.443763 0.790912 0.575438 0.038742
C12   C     C_R   0.670575 0.500041 0.500143 0.532949
C13   C     C_R   0.499965 0.945246 0.500051 0.026256
C14   C     C_R   0.500354 0.499836 0.262533 0.540496
C15   C     C_R   0.500096 0.500084 0.737420 0.543634
C16   C     C_R   0.338302 0.503552 0.128786 -0.107731
C17   C     C_R   0.338412 0.515551 0.871270 -0.109466
C18   C     C_R   0.259159 0.510918 0.064422 -0.126089
C19   C     C_R   0.259250 0.517637 0.935864 -0.125536
C20   C     C_R   0.419425 0.506806 0.934900 0.005726
C21   C     C_R   0.419534 0.503173 0.065122 0.006178
C22   C     C_R   0.500523 0.499145 0.128743 0.009165
C23   C     C_R   0.232721 0.500252 0.501189 0.031431
C24   C     C_R   0.499940 0.500122 0.871236 0.006047
C25   C     C_R   0.581477 0.493988 0.064889 -0.007171
C26   C     C_R   0.580763 0.491323 0.934382 -0.012073
C27   C     C_R   0.093713 0.576283 0.446827 -0.109556
C28   C     C_R   0.907239 0.581064 0.541570 -0.108078
C29   C     C_R   0.185249 0.578331 0.446371 -0.026657
C30   C     C_R   0.815681 0.583241 0.541469 -0.022420
C31   C     C_3   0.668276 0.491939 0.134497 -0.388739
C32   C     C_3   0.664747 0.479806 0.859607 -0.382726
C33   C     C_3   0.228998 0.664583 0.386107 -0.383161
C34   C     C_R   0.767934 0.500182 0.499550 0.029976
C35   C     C_3   0.772587 0.675437 0.586915 -0.380883
C36   C     C_3   0.230245 0.338551 0.621578 -0.381793
C37   C     C_3   0.771707 0.327004 0.406231 -0.382331
C38   C     C_3   0.624016 0.055874 0.657863 -0.421670
C39   C     C_3   0.375877 0.055290 0.342314 -0.420590
C40   C     C_R   0.185707 0.422436 0.557096 -0.026086
C41   C     C_R   0.815368 0.417268 0.456828 -0.023868
C42   C     C_R   0.094108 0.423433 0.555571 -0.108979
C43   C     C_R   0.906977 0.418496 0.458748 -0.107811
C44   C     C_R   0.048457 0.499581 0.500804 -0.000946
Cu1   Cu    Cu3+1 0.500000 0.596430 0.500000 0.909822
Cu2   Cu    Cu3+1 0.500000 0.403570 0.500000 0.906715
H1    H     H_    0.602376 0.930469 0.362745 0.093007
H2    H     H_    0.944089 0.643309 0.574374 0.107398
H3    H     H_    0.057650 0.365006 0.598563 0.107807
H4    H     H_    0.943611 0.356213 0.425803 0.107833
H5    H     H_    0.602314 0.250533 0.631479 0.121445
H6    H     H_    0.397446 0.250069 0.368892 0.127483
H7    H     H_    0.710257 0.553041 0.103543 0.125158
H8    H     H_    0.661772 0.499663 0.236046 0.140040
H9    H     H_    0.702268 0.422122 0.116830 0.122134
H10   H     H_    0.725182 0.472241 0.915616 0.120567
H11   H     H_    0.660100 0.414028 0.800503 0.137600
H12   H     H_    0.397477 0.930788 0.637240 0.094197
H13   H     H_    0.673541 0.543906 0.799338 0.129620
H14   H     H_    0.262041 0.709673 0.457577 0.152865
H15   H     H_    0.277227 0.640551 0.315746 0.149772
H16   H     H_    0.180914 0.711934 0.337901 0.105700
H17   H     H_    0.738700 0.712161 0.508959 0.148420
H18   H     H_    0.725471 0.659560 0.662296 0.147558
H19   H     H_    0.821108 0.727819 0.624915 0.103013
H20   H     H_    0.263598 0.291638 0.552523 0.154678
H21   H     H_    0.278344 0.365566 0.690787 0.149712
H22   H     H_    0.182574 0.292287 0.672081 0.107016
H23   H     H_    0.600376 0.751054 0.364695 0.119066
H24   H     H_    0.737576 0.287867 0.481872 0.150557
H25   H     H_    0.724697 0.346086 0.331556 0.149007
H26   H     H_    0.819939 0.275703 0.365458 0.104027
H27   H     H_    0.588331 0.009293 0.724770 0.143506
H28   H     H_    0.668265 0.010089 0.600782 0.134999
H29   H     H_    0.665102 0.107827 0.711216 0.110896
H30   H     H_    0.411560 0.008475 0.275439 0.143746
H31   H     H_    0.331613 0.009701 0.399410 0.135387
H32   H     H_    0.334812 0.107040 0.288912 0.113997
H33   H     H_    0.399410 0.751347 0.635011 0.121044
H34   H     H_    0.335177 0.497340 0.228491 0.115608
H35   H     H_    0.335430 0.520661 0.771388 0.116153
H36   H     H_    0.197631 0.511548 0.114564 0.114197
H37   H     H_    0.197808 0.523771 0.885867 0.114092
H38   H     H_    0.056935 0.634681 0.404178 0.107578
N1    N     N_R   0.500000 0.258690 0.500000 -0.240891
N2    N     N_R   0.500000 0.741330 0.500000 -0.218296
O1    O     O_R   0.371460 0.581430 0.500010 -0.513332
O2    O     O_R   0.628540 0.581430 0.499990 -0.511184
O3    O     O_R   0.371470 0.418560 0.500010 -0.512832
O4    O     O_R   0.628530 0.418560 0.499990 -0.513060
O5    O     O_R   0.500000 0.581450 0.319650 -0.502256
O6    O     O_R   0.500000 0.581450 0.680350 -0.503543
O7    O     O_R   0.500010 0.418580 0.319650 -0.501845
O8    O     O_R   0.499990 0.418580 0.680350 -0.503159

loop_
_geom_bond_atom_site_label_1
_geom_bond_atom_site_label_2
_ccdc_geom_bond_type
C25   C31   S    
C26   C32   S    
C8    C13   A    
C27   C29   A    
C15   O8    A    
C36   H21   S    
Cu2   O3    S    
Cu1   Cu2   S    
C16   C21   A    
C6    N1    A    
C30   C35   S    
C23   C29   A    
C12   O4    A    
C27   H38   S    
Cu1   O1    S    
C24   C26   A    
C18   C19   A    
C3    C7    A    
C36   H20   S    
C35   H19   S    
C11   N2    A    
C23   C40   A    
C29   C33   S    
C17   C20   A    
C9    H12   S    
C1    O1    A    
Cu1   O6    S    
C9    C13   A    
C17   C19   A    
C15   O6    A    
C27   C44   A    
C28   H2    S    
C20   C24   A    
C3    C38   S    
C2    C44   S    
C33   H16   S    
C22   C25   A    
C35   H18   S    
C14   O7    A    
Cu2   N1    S    
C5    N1    A    
C40   C42   A    
C21   C22   A    
C41   C43   A    
C34   C41   A    
C42   C44   A    
C32   H11   S    
C4    C7    A    
C19   H37   S    
C38   H29   S    
C30   C34   A    
C39   H32   S    
C36   C40   S    
Cu1   O2    S    
C4    C6    A    
C12   O2    A    
C25   C26   A    
C16   H34   S    
Cu2   O8    S    
C4    C39   S    
C2    C43   A    
C16   C18   A    
C39   H30   S    
C31   H7    S    
C9    C11   A    
C11   H33   S    
C33   H15   S    
C15   C24   S    
C1    C23   S    
C33   H14   S    
C37   H25   S    
C12   C34   S    
C39   H31   S    
C38   H28   S    
C10   N2    A    
C1    O3    A    
C3    C5    A    
C2    C28   A    
C36   H22   S    
C43   H4    S    
Cu2   O4    S    
C6    H6    S    
C14   C22   S    
C28   C30   A    
Cu1   N2    S    
C8    H1    S    
Cu2   O7    S    
C18   H36   S    
C17   H35   S    
C31   H8    S    
C37   C41   S    
Cu1   O5    S    
C14   O5    A    
C42   H3    S    
C10   H23   S    
C7    C13   S    
C20   C21   A    
C8    C10   A    
C37   H26   S    
C5    H5    S    
C35   H17   S    
C32   H13   S    
C31   H9    S    
C37   H24   S    
C32   H10   S    
C38   H27   S    
