data_mof_unit_19717.cif
_audit_creation_date              2012-12-11T16:09:28-0500
_audit_creation_method            fapswitch 2.2
_symmetry_space_group_name_H-M    P1
_symmetry_Int_Tables_number       1
_space_group_crystal_system       triclinic
_cell_length_a                    6.949907
_cell_length_b                    21.331479
_cell_length_c                    23.630789
_cell_angle_alpha                 90.078418
_cell_angle_beta                  89.864937
_cell_angle_gamma                 89.952755
_cell_volume                      3503.29267657

loop_
_atom_site_label
_atom_site_type_symbol
_atom_type_description
_atom_site_fract_x
_atom_site_fract_y
_atom_site_fract_z
_atom_type_partial_charge
O1    O     O_R   0.494270 0.443530 0.442350 -0.535905
O2    O     O_R   0.824060 0.436290 0.557250 -0.537999
O3    O     O_R   0.994370 0.556470 0.557650 -0.534805
C1    C     C_R   0.655150 0.421160 0.576649 0.731304
O4    O     O_R   0.823990 0.436120 0.442760 -0.539373
O5    O     O_R   0.994300 0.556300 0.442340 -0.536147
C2    C     C_R   0.655438 0.420853 0.423363 0.719055
O6    O     O_R   0.494350 0.443700 0.557660 -0.533567
O7    O     O_3   0.660800 0.539430 0.500000 -0.365885
V1    V     V_3+5 0.935650 0.492690 0.500000 1.429225
O8    O     O_R   0.324020 0.563710 0.442750 -0.538704
C3    C     C_R   0.155312 0.578903 0.423368 0.722571
O9    O     O_R   0.324090 0.563880 0.557240 -0.531404
C4    C     C_R   0.155126 0.579009 0.576666 0.728788
V2    V     V_3+5 0.435660 0.507310 0.500000 1.440079
O10   O     O_3   0.160640 0.460570 0.500000 -0.368430
C5    C     C_3   0.972286 0.731807 0.785527 -0.114667
C6    C     C_3   0.154188 0.692971 0.770266 -0.148043
H1    H     H_    0.189274 0.645850 0.787257 0.139877
H2    H     H_    0.857216 0.717113 0.815335 0.123374
H3    H     H_    0.420203 0.754983 0.799816 0.127656
C7    C     C_1   0.145095 0.624730 0.622099 -0.151833
C8    C     C_1   0.074698 0.874463 0.877137 -0.176892
C9    C     C_3   0.942764 0.747289 0.721986 -0.146821
C10   C     C_3   0.124374 0.708921 0.707232 0.088657
C11   C     C_3   0.068478 0.807032 0.728788 -0.157924
C12   C     C_3   0.098494 0.790781 0.791713 0.149217
C13   C     C_3   0.248781 0.767867 0.714067 0.027706
C14   C     C_3   0.280508 0.752567 0.777205 -0.177731
C15   C     C_1   0.135978 0.662700 0.660382 0.018872
C16   C     C_1   0.084742 0.836596 0.838783 -0.024511
H4    H     H_    0.033667 0.854149 0.711720 0.139006
H5    H     H_    0.803690 0.744682 0.699175 0.150714
C17   C     C_3   0.201650 0.820205 0.258988 0.161715
C18   C     C_3   0.892581 0.767185 0.225082 -0.327551
C19   C     C_3   0.906021 0.727829 0.280516 0.191936
H6    H     H_    0.176601 0.788618 0.348415 0.158346
H7    H     H_    0.823990 0.740128 0.190654 0.204271
H8    H     H_    0.795744 0.807985 0.232332 0.114917
H9    H     H_    0.864717 0.760742 0.315189 0.072626
C20   C     C_1   0.145610 0.624672 0.378010 -0.199475
C21   C     C_3   0.097049 0.790256 0.206650 0.099328
C22   C     C_3   0.228508 0.770073 0.307059 -0.456600
C23   C     C_3   0.120151 0.708268 0.292142 0.202554
C24   C     C_3   0.216526 0.681781 0.237261 -0.394441
C25   C     C_3   0.222295 0.732152 0.189360 -0.176011
C26   C     C_1   0.135304 0.662504 0.339674 -0.046574
C27   C     C_1   0.083416 0.836697 0.159474 -0.010447
C28   C     C_1   0.073682 0.874671 0.121247 -0.159123
H10   H     H_    0.374446 0.748535 0.186297 0.116660
H11   H     H_    0.366486 0.667391 0.247075 0.167719
H12   H     H_    0.347689 0.835056 0.244599 0.115254
H13   H     H_    0.384653 0.760057 0.312467 0.155834
H14   H     H_    0.144316 0.638581 0.222644 0.168365
C29   C     C_3   0.432914 0.252265 0.703103 0.174499
C30   C     C_3   0.796716 0.247189 0.708682 -0.341007
C31   C     C_3   0.780183 0.198470 0.757329 -0.355040
H15   H     H_    0.418925 0.154611 0.734764 0.152628
H16   H     H_    0.932853 0.273793 0.712977 0.187931
H17   H     H_    0.808453 0.222294 0.667523 0.141166
H18   H     H_    0.778445 0.150348 0.739067 0.148301
H19   H     H_    0.909757 0.201644 0.784765 0.173075
C32   C     C_1   0.574153 0.124147 0.877462 -0.164987
C33   C     C_3   0.620718 0.292406 0.708447 0.138411
C34   C     C_3   0.421347 0.203136 0.752136 -0.363797
C35   C     C_3   0.595287 0.209715 0.793040 0.156502
C36   C     C_3   0.606986 0.278249 0.816804 -0.184504
C37   C     C_3   0.608188 0.327118 0.766982 -0.236800
C38   C     C_1   0.583454 0.162496 0.839540 -0.046362
C39   C     C_1   0.634817 0.338112 0.660706 -0.021169
C40   C     C_1   0.645012 0.375684 0.622185 -0.161290
H20   H     H_    0.468927 0.353151 0.767145 0.131329
H21   H     H_    0.308353 0.284924 0.707625 0.130007
H22   H     H_    0.283444 0.208849 0.775369 0.167644
H23   H     H_    0.745813 0.281480 0.840124 0.164161
C41   C     C_3   0.459599 0.310807 0.248914 0.181076
C42   C     C_3   0.809313 0.285671 0.259299 -0.396124
C43   C     C_3   0.789225 0.240700 0.207703 -0.425696
H24   H     H_    0.442055 0.280856 0.160229 0.122107
H25   H     H_    0.514420 0.353223 0.226438 0.116355
H26   H     H_    0.923458 0.268018 0.287914 0.171251
H27   H     H_    0.854321 0.332752 0.244098 0.175227
H28   H     H_    0.806248 0.267857 0.167822 0.173421
H29   H     H_    0.907349 0.205465 0.208646 0.159435
C44   C     C_1   0.571967 0.123934 0.121678 -0.180161
C45   C     C_3   0.617178 0.290507 0.292579 0.165313
C46   C     C_3   0.432887 0.258873 0.202848 -0.328639
C47   C     C_3   0.590266 0.207349 0.208195 0.194417
C48   C     C_3   0.569043 0.174140 0.266779 0.213292
C49   C     C_3   0.571381 0.223829 0.316006 -0.345550
C50   C     C_1   0.579371 0.161599 0.160334 -0.033880
C51   C     C_1   0.635153 0.336821 0.339766 -0.052302
C52   C     C_1   0.646139 0.374864 0.378033 -0.199748
H30   H     H_    0.437362 0.225145 0.341165 0.148467
H31   H     H_    0.684979 0.210250 0.346805 0.117784
H32   H     H_    0.287619 0.237500 0.205370 0.178886
H33   H     H_    0.701665 0.145278 0.272347 0.067747
O11   O     O_R   0.724990 0.055630 0.941600 -0.535896
O12   O     O_R   0.395220 0.063160 0.056480 -0.536612
O13   O     O_R   0.225040 0.942970 0.056870 -0.534546
C53   C     C_R   0.563659 0.078355 0.075972 0.725175
O14   O     O_R   0.395270 0.063000 0.941990 -0.537240
O15   O     O_R   0.225080 0.942800 0.941570 -0.534478
C54   C     C_R   0.564167 0.078173 0.922609 0.727478
O16   O     O_R   0.724940 0.055790 0.056910 -0.536497
O17   O     O_3   0.558580 0.959880 0.999250 -0.365756
V3    V     V_3+5 0.283680 0.006590 0.999220 1.447818
O18   O     O_R   0.895380 0.935350 0.941950 -0.537089
C55   C     C_R   0.064394 0.920192 0.922573 0.728873
O19   O     O_R   0.895330 0.935520 0.056440 -0.537681
C56   C     C_R   0.064032 0.920411 0.075877 0.726497
V4    V     V_3+5 0.783690 0.991900 0.999180 1.446029
O20   O     O_3   0.058660 0.038680 0.999200 -0.367969
N1    N     N_2   0.763664 0.677412 0.283581 -0.531384
H34   H     H_    0.719292 0.667259 0.324257 0.255358
C57   C     C_3   0.780569 0.621990 0.248577 -0.530152
H35   H     H_    0.642823 0.595746 0.249872 0.182630
H36   H     H_    0.894022 0.590468 0.265275 0.187601
H37   H     H_    0.808962 0.634326 0.203968 0.246072
C58   C     C_2   0.175040 0.704705 0.131774 0.778686
O21   O     O_2   0.294561 0.707469 0.093781 -0.553234
O22   O     O_R   0.997742 0.676083 0.121735 -0.680078
H38   H     H_    0.985374 0.659820 0.081580 0.303611
N2    N     N_2   0.421473 0.221668 0.647952 -0.504896
H39   H     H_    0.516480 0.185104 0.641920 0.264988
C59   C     C_3   0.229709 0.207876 0.627823 -0.584854
H40   H     H_    0.238443 0.186298 0.585109 0.203264
H41   H     H_    0.144381 0.251748 0.624397 0.204559
H42   H     H_    0.156614 0.174642 0.656942 0.193846
C60   C     C_2   0.763903 0.376183 0.775206 0.781322
O23   O     O_2   0.720212 0.431726 0.776266 -0.554419
O24   O     O_R   0.955997 0.358386 0.782244 -0.653144
H43   H     H_    0.045057 0.395593 0.787218 0.311823
C61   C     C_2   0.451643 0.293065 0.859970 0.765313
O25   O     O_2   0.282385 0.295124 0.846097 -0.552630
O26   O     O_R   0.503706 0.304727 0.916103 -0.658007
H44   H     H_    0.388559 0.314020 0.941175 0.302845
N3    N     N_2   0.406839 0.130196 0.267387 -0.510481
H45   H     H_    0.444716 0.083460 0.269188 0.249614
C62   C     C_3   0.225260 0.144521 0.294670 -0.573906
H46   H     H_    0.112737 0.112343 0.278372 0.194653
H47   H     H_    0.178911 0.192988 0.285569 0.199388
H48   H     H_    0.237479 0.137475 0.341069 0.189714
C63   C     C_2   0.405471 0.789669 0.675192 0.718781
O27   O     O_2   0.492377 0.837973 0.686053 -0.565003
O28   O     O_R   0.452140 0.754780 0.627006 -0.669127
H49   H     H_    0.561068 0.774183 0.604447 0.289977
N4    N     N_2   0.275875 0.325846 0.275730 -0.521980
H50   H     H_    0.241249 0.300618 0.311411 0.256357
C64   C     C_3   0.225295 0.391603 0.279372 -0.579529
H51   H     H_    0.081903 0.396753 0.299680 0.196391
H52   H     H_    0.218251 0.412321 0.236330 0.203438
H53   H     H_    0.332418 0.417466 0.305150 0.200792
N5    N     N_2   0.098546 0.875317 0.279595 -0.502951
H54   H     H_    0.970104 0.866262 0.299873 0.256462
C65   C     C_3   0.213853 0.922167 0.308036 -0.569885
H55   H     H_    0.122325 0.963099 0.319113 0.198546
H56   H     H_    0.331195 0.938723 0.279776 0.199849
H57   H     H_    0.276338 0.902585 0.347463 0.193533

loop_
_geom_bond_atom_site_label_1
_geom_bond_atom_site_label_2
_ccdc_geom_bond_type
C46   C47   S    
C11   H4    S    
C59   H40   S    
C12   C14   S    
C18   H8    S    
C18   C19   S    
C17   C21   S    
C62   H48   S    
C31   C35   S    
C1    O6    A    
C19   N1    S    
H24   C46   S    
N1    H34   S    
C44   C50   T    
C49   H31   S    
O17   V4    S    
C42   C43   S    
C57   H35   S    
C10   C13   S    
C11   C12   S    
C33   C37   S    
C65   H55   S    
C9    C11   S    
O5    C3    A    
C35   C38   S    
O17   V3    S    
C24   H11   S    
V2    O10   S    
C5    H2    S    
O18   C55   A    
C6    H1    S    
C21   C25   S    
C18   C21   S    
O19   C56   A    
V3    O20   S    
O8    V2    S    
C43   H28   S    
C22   H13   S    
C32   C38   T    
O24   H43   S    
C64   H53   S    
C30   C33   S    
C39   C40   T    
C13   C63   S    
C33   C39   S    
O7    V1    S    
N5    C65   S    
C23   C26   S    
C28   C56   S    
O18   V4    S    
C35   C36   S    
O9    C4    A    
C46   H32   S    
C6    C10   S    
C2    C52   S    
V4    O20   S    
C29   C34   S    
C58   O22   S    
C49   H30   S    
C17   N5    S    
C53   O16   A    
C8    C55   S    
C5    C9    S    
O11   V4    S    
C17   C22   S    
C12   C16   S    
C36   C37   S    
C5    C12   S    
C19   H9    S    
C36   C61   S    
C62   H46   S    
C63   O28   S    
C45   C49   S    
C48   C49   S    
O4    C2    A    
C32   C54   S    
C61   O26   S    
C59   H42   S    
C31   H19   S    
C24   C25   S    
H3    C14   S    
C34   H22   S    
C30   H17   S    
C48   H33   S    
C8    C16   T    
H6    C22   S    
O2    C1    A    
C22   C23   S    
O5    V1    S    
C3    C20   S    
H15   C34   S    
C47   C50   S    
C42   H26   S    
C37   H20   S    
C29   C33   S    
C18   H7    S    
C5    C6    S    
C20   C26   T    
C25   C58   S    
O14   V3    S    
C6    C14   S    
C21   C27   S    
C9    C10   S    
O14   C54   A    
C41   C46   S    
N5    H54   S    
O3    C4    A    
N3    C62   S    
O1    V2    S    
C27   C28   T    
O12   C53   A    
O16   V4    S    
C42   C45   S    
C48   N3    S    
O6    V2    S    
O9    V2    S    
C64   H52   S    
C19   C23   S    
C36   H23   S    
C30   C31   S    
O2    V1    S    
C41   C45   S    
C44   C53   S    
C58   O21   D    
N2    C59   S    
O28   H49   S    
C43   C47   S    
C10   C15   S    
C29   N2    S    
C13   C14   S    
O13   V3    S    
C59   H41   S    
C7    C15   T    
O1    C2    A    
C11   C13   S    
C65   H57   S    
C23   C24   S    
C41   H25   S    
N4    C64   S    
C63   O27   D    
C24   H14   S    
N1    C57   S    
O8    C3    A    
C57   H37   S    
C31   H18   S    
C61   O25   D    
C62   H47   S    
O12   V3    S    
C25   H10   S    
C17   H12   S    
C9    H5    S    
C30   H16   S    
O15   C55   A    
C60   O24   S    
C4    C7    S    
C65   H56   S    
C60   O23   D    
O7    V2    S    
O4    V1    S    
O3    V1    S    
C45   C51   S    
V1    O10   S    
C42   H27   S    
O11   C54   A    
C51   C52   T    
C57   H36   S    
N4    H50   S    
O19   V4    S    
N3    H45   S    
C29   H21   S    
C43   H29   S    
C47   C48   S    
C41   N4    S    
O13   C56   A    
C34   C35   S    
C64   H51   S    
C37   C60   S    
O15   V3    S    
O22   H38   S    
C1    C40   S    
O26   H44   S    
N2    H39   S    
