data_mof_unit_61205.cif
_audit_creation_date              2012-12-10T17:32:05-0500
_audit_creation_method            fapswitch 2.2
_symmetry_space_group_name_H-M    P1
_symmetry_Int_Tables_number       1
_space_group_crystal_system       triclinic
_cell_length_a                    30.104976
_cell_length_b                    30.104976
_cell_length_c                    30.104976
_cell_angle_alpha                 89.999979
_cell_angle_beta                  89.999979
_cell_angle_gamma                 90.000014
_cell_volume                      27284.4281533

loop_
_atom_site_label
_atom_site_type_symbol
_atom_type_description
_atom_site_fract_x
_atom_site_fract_y
_atom_site_fract_z
_atom_type_partial_charge
C1    C     C_R   1.000000 0.413267 0.500000 0.867041
C2    C     C_R   1.000000 0.500000 0.413267 0.867041
C3    C     C_R   1.000000 0.586733 0.500000 0.867040
C4    C     C_R   0.000000 0.500000 0.586733 0.867040
C5    C     C_R   0.413267 0.500000 0.000000 0.867041
C6    C     C_R   0.500000 0.586733 0.000000 0.867040
C7    C     C_R   0.586733 0.500000 0.000000 0.867040
C8    C     C_R   0.500000 0.413267 0.000000 0.867041
C9    C     C_R   0.500000 0.000000 0.586733 0.867040
C10   C     C_R   0.586733 0.000000 0.500000 0.867040
C11   C     C_R   0.500000 1.000000 0.413267 0.867041
C12   C     C_R   0.413267 0.000000 0.500000 0.867041
C13   C     C_R   0.500000 0.913267 0.000000 0.867041
C14   C     C_R   0.500000 0.000000 0.913267 0.867041
C15   C     C_R   0.500000 0.086733 0.000000 0.867040
C16   C     C_R   0.500000 0.000000 0.086733 0.867040
C17   C     C_R   0.913267 0.000000 0.500000 0.867041
C18   C     C_R   0.000000 0.086733 0.500000 0.867040
C19   C     C_R   0.086733 0.000000 0.500000 0.867040
C20   C     C_R   1.000000 0.913267 0.500000 0.867041
C21   C     C_R   1.000000 0.500000 0.086733 0.867040
C22   C     C_R   0.086733 0.500000 0.000000 0.867040
C23   C     C_R   0.000000 0.500000 0.913267 0.867041
C24   C     C_R   0.913267 0.500000 0.000000 0.867041
C25   C     C_R   0.027327 0.470504 0.157156 -0.144712
C26   C     C_R   0.027327 0.842844 0.470504 -0.144712
C27   C     C_R   0.027327 0.529496 0.842844 -0.144713
C28   C     C_R   0.027327 0.157156 0.529496 -0.144713
C29   C     C_R   0.972673 0.529496 0.157156 -0.144713
C30   C     C_R   0.972673 0.157156 0.470504 -0.144712
C31   C     C_R   0.972673 0.470504 0.842844 -0.144712
C32   C     C_R   0.972673 0.842844 0.529496 -0.144712
C33   C     C_R   0.470504 0.842844 0.972673 -0.144712
C34   C     C_R   0.842844 0.529496 0.972673 -0.144713
C35   C     C_R   0.529496 0.157156 0.972673 -0.144712
C36   C     C_R   0.157156 0.470504 0.972673 -0.144712
C37   C     C_R   0.529496 0.842844 0.027327 -0.144713
C38   C     C_R   0.157156 0.529496 0.027327 -0.144713
C39   C     C_R   0.470504 0.157156 0.027327 -0.144713
C40   C     C_R   0.842844 0.470504 0.027327 -0.144712
C41   C     C_R   0.842844 0.027327 0.529496 -0.144713
C42   C     C_R   0.529496 0.027327 0.157156 -0.144713
C43   C     C_R   0.157156 0.027327 0.470504 -0.144712
C44   C     C_R   0.470504 0.027327 0.842844 -0.144713
C45   C     C_R   0.842844 0.972673 0.470504 -0.144712
C46   C     C_R   0.529496 0.972673 0.842844 -0.144712
C47   C     C_R   0.157156 0.972673 0.529496 -0.144712
C48   C     C_R   0.470504 0.972673 0.157156 -0.144712
C49   C     C_R   0.527327 0.970504 0.657156 -0.144712
C50   C     C_R   0.527327 0.342844 0.970504 -0.144712
C51   C     C_R   0.527327 0.029496 0.342844 -0.144713
C52   C     C_R   0.527327 0.657156 0.029496 -0.144713
C53   C     C_R   0.472673 0.029496 0.657156 -0.144713
C54   C     C_R   0.472673 0.657156 0.970504 -0.144712
C55   C     C_R   0.472673 0.970504 0.342844 -0.144712
C56   C     C_R   0.472673 0.342844 0.029496 -0.144712
C57   C     C_R   0.970504 0.342844 0.472673 -0.144712
C58   C     C_R   0.342844 0.029496 0.472673 -0.144712
C59   C     C_R   0.029496 0.657156 0.472673 -0.144712
C60   C     C_R   0.657156 0.970504 0.472673 -0.144712
C61   C     C_R   0.029496 0.342844 0.527327 -0.144713
C62   C     C_R   0.657156 0.029496 0.527327 -0.144713
C63   C     C_R   0.970504 0.657156 0.527327 -0.144713
C64   C     C_R   0.342844 0.970504 0.527327 -0.144712
C65   C     C_R   0.342844 0.527327 0.029496 -0.144713
C66   C     C_R   0.029496 0.527327 0.657156 -0.144713
C67   C     C_R   0.657156 0.527327 0.970504 -0.144712
C68   C     C_R   0.970504 0.527327 0.342844 -0.144713
C69   C     C_R   0.342844 0.472673 0.970504 -0.144712
C70   C     C_R   0.029496 0.472673 0.342844 -0.144712
C71   C     C_R   0.657156 0.472673 0.029496 -0.144712
C72   C     C_R   0.970504 0.472673 0.657156 -0.144712
C73   C     C_R   0.000000 0.500000 0.134543 -0.089958
C74   C     C_R   1.000000 0.865457 0.500000 -0.089958
C75   C     C_R   1.000000 0.500000 0.865457 -0.089958
C76   C     C_R   0.000000 0.134543 0.500000 -0.089958
C77   C     C_R   0.500000 0.865457 0.000000 -0.089958
C78   C     C_R   0.865457 0.500000 1.000000 -0.089958
C79   C     C_R   0.500000 0.134543 0.000000 -0.089958
C80   C     C_R   0.134543 0.500000 0.000000 -0.089958
C81   C     C_R   0.865457 0.000000 0.500000 -0.089958
C82   C     C_R   0.500000 0.000000 0.134543 -0.089958
C83   C     C_R   0.134543 1.000000 0.500000 -0.089958
C84   C     C_R   0.500000 1.000000 0.865457 -0.089958
C85   C     C_R   0.500000 1.000000 0.634543 -0.089958
C86   C     C_R   0.500000 0.365457 0.000000 -0.089958
C87   C     C_R   0.500000 0.000000 0.365457 -0.089958
C88   C     C_R   0.500000 0.634543 1.000000 -0.089958
C89   C     C_R   1.000000 0.365457 0.500000 -0.089958
C90   C     C_R   0.365457 1.000000 0.500000 -0.089958
C91   C     C_R   0.000000 0.634543 0.500000 -0.089958
C92   C     C_R   0.634543 0.000000 0.500000 -0.089958
C93   C     C_R   0.365457 0.500000 0.000000 -0.089958
C94   C     C_R   1.000000 0.500000 0.634543 -0.089958
C95   C     C_R   0.634543 0.500000 1.000000 -0.089958
C96   C     C_R   1.000000 0.500000 0.365457 -0.089958
C97   C     C_R   0.971534 0.529492 0.203468 0.014170
C98   C     C_R   0.971534 0.796532 0.529492 0.014170
C99   C     C_R   0.971534 0.470508 0.796532 0.014170
C100  C     C_R   0.971534 0.203468 0.470508 0.014170
C101  C     C_R   0.028466 0.470508 0.203468 0.014170
C102  C     C_R   0.028466 0.203468 0.529492 0.014170
C103  C     C_R   0.028466 0.529492 0.796532 0.014170
C104  C     C_R   0.028466 0.796532 0.470508 0.014169
C105  C     C_R   0.529492 0.796532 0.028466 0.014170
C106  C     C_R   0.796532 0.470508 0.028466 0.014170
C107  C     C_R   0.470508 0.203468 0.028466 0.014169
C108  C     C_R   0.203468 0.529492 0.028466 0.014170
C109  C     C_R   0.470508 0.796532 0.971534 0.014169
C110  C     C_R   0.203468 0.470508 0.971534 0.014170
C111  C     C_R   0.529492 0.203468 0.971534 0.014170
C112  C     C_R   0.796532 0.529492 0.971534 0.014169
C113  C     C_R   0.796532 0.971534 0.470508 0.014170
C114  C     C_R   0.470508 0.971534 0.203468 0.014170
C115  C     C_R   0.203468 0.971533 0.529492 0.014169
C116  C     C_R   0.529492 0.971534 0.796532 0.014169
C117  C     C_R   0.796532 0.028466 0.529492 0.014170
C118  C     C_R   0.470508 0.028466 0.796532 0.014170
C119  C     C_R   0.203468 0.028466 0.470508 0.014170
C120  C     C_R   0.529492 0.028466 0.203468 0.014170
C121  C     C_R   0.471534 0.029492 0.703468 0.014170
C122  C     C_R   0.471534 0.296532 0.029492 0.014170
C123  C     C_R   0.471534 0.970508 0.296532 0.014170
C124  C     C_R   0.471534 0.703468 0.970508 0.014170
C125  C     C_R   0.528466 0.970508 0.703468 0.014170
C126  C     C_R   0.528466 0.703468 0.029492 0.014170
C127  C     C_R   0.528466 0.029492 0.296532 0.014170
C128  C     C_R   0.528466 0.296532 0.970508 0.014169
C129  C     C_R   0.029492 0.296532 0.528466 0.014170
C130  C     C_R   0.296532 0.970508 0.528466 0.014170
C131  C     C_R   0.970508 0.703468 0.528466 0.014169
C132  C     C_R   0.703468 0.029492 0.528466 0.014170
C133  C     C_R   0.970508 0.296532 0.471534 0.014169
C134  C     C_R   0.703468 0.970508 0.471534 0.014170
C135  C     C_R   0.029492 0.703468 0.471534 0.014170
C136  C     C_R   0.296532 0.029492 0.471534 0.014169
C137  C     C_R   0.296532 0.471534 0.970508 0.014170
C138  C     C_R   0.970508 0.471534 0.703468 0.014170
C139  C     C_R   0.703468 0.471533 0.029492 0.014169
C140  C     C_R   0.029492 0.471534 0.296532 0.014169
C141  C     C_R   0.296532 0.528466 0.029492 0.014170
C142  C     C_R   0.970508 0.528466 0.296532 0.014170
C143  C     C_R   0.703468 0.528466 0.970508 0.014170
C144  C     C_R   0.029492 0.528466 0.703468 0.014170
C145  C     C_R   1.000000 0.500000 0.226777 -0.009113
C146  C     C_R   1.000000 0.773223 0.500000 -0.009113
C147  C     C_R   1.000000 0.500000 0.773223 -0.009113
C148  C     C_R   1.000000 0.226777 0.500000 -0.009113
C149  C     C_R   0.500000 0.773223 0.000000 -0.009113
C150  C     C_R   0.773223 0.500000 1.000000 -0.009113
C151  C     C_R   0.500000 0.226777 0.000000 -0.009113
C152  C     C_R   0.226777 0.500000 1.000000 -0.009113
C153  C     C_R   0.773223 0.000000 0.500000 -0.009113
C154  C     C_R   0.500000 0.000000 0.226777 -0.009113
C155  C     C_R   0.226777 1.000000 0.500000 -0.009113
C156  C     C_R   0.500000 0.000000 0.773223 -0.009113
C157  C     C_R   0.500000 1.000000 0.726777 -0.009113
C158  C     C_R   0.500000 0.273223 0.000000 -0.009113
C159  C     C_R   0.500000 1.000000 0.273223 -0.009113
C160  C     C_R   0.500000 0.726777 0.000000 -0.009113
C161  C     C_R   1.000000 0.273223 0.500000 -0.009113
C162  C     C_R   0.273223 1.000000 0.500000 -0.009113
C163  C     C_R   1.000000 0.726777 0.500000 -0.009113
C164  C     C_R   0.726777 0.000000 0.500000 -0.009113
C165  C     C_R   0.273223 0.500000 1.000000 -0.009113
C166  C     C_R   1.000000 0.500000 0.726777 -0.009113
C167  C     C_R   0.726777 0.500000 1.000000 -0.009113
C168  C     C_R   1.000000 0.500000 0.273223 -0.009113
C169  C     C_R   0.942609 0.558139 0.226721 0.228210
C170  C     C_R   0.942609 0.773279 0.558140 0.228210
C171  C     C_R   0.942609 0.441860 0.773279 0.228210
C172  C     C_R   0.942609 0.226721 0.441860 0.228210
C173  C     C_R   0.057391 0.441860 0.226721 0.228210
C174  C     C_R   0.057391 0.226721 0.558139 0.228210
C175  C     C_R   0.057391 0.558140 0.773279 0.228210
C176  C     C_R   0.057391 0.773279 0.441861 0.228210
C177  C     C_R   0.558139 0.773279 0.057391 0.228210
C178  C     C_R   0.773279 0.441860 0.057391 0.228210
C179  C     C_R   0.441860 0.226721 0.057391 0.228210
C180  C     C_R   0.226721 0.558139 0.057391 0.228210
C181  C     C_R   0.441860 0.773279 0.942609 0.228210
C182  C     C_R   0.226721 0.441860 0.942609 0.228210
C183  C     C_R   0.558140 0.226721 0.942609 0.228210
C184  C     C_R   0.773279 0.558139 0.942609 0.228210
C185  C     C_R   0.773279 0.942609 0.441860 0.228210
C186  C     C_R   0.441860 0.942609 0.226721 0.228210
C187  C     C_R   0.226721 0.942609 0.558139 0.228210
C188  C     C_R   0.558139 0.942609 0.773279 0.228210
C189  C     C_R   0.773279 0.057391 0.558139 0.228210
C190  C     C_R   0.441860 0.057391 0.773279 0.228210
C191  C     C_R   0.226721 0.057391 0.441860 0.228210
C192  C     C_R   0.558139 0.057391 0.226721 0.228210
C193  C     C_R   0.442609 0.058139 0.726721 0.228210
C194  C     C_R   0.442609 0.273279 0.058139 0.228210
C195  C     C_R   0.442609 0.941861 0.273279 0.228210
C196  C     C_R   0.442609 0.726721 0.941860 0.228210
C197  C     C_R   0.557391 0.941860 0.726721 0.228210
C198  C     C_R   0.557391 0.726721 0.058139 0.228210
C199  C     C_R   0.557391 0.058139 0.273279 0.228210
C200  C     C_R   0.557391 0.273279 0.941861 0.228210
C201  C     C_R   0.058139 0.273279 0.557391 0.228210
C202  C     C_R   0.273279 0.941860 0.557391 0.228210
C203  C     C_R   0.941860 0.726721 0.557391 0.228210
C204  C     C_R   0.726721 0.058139 0.557391 0.228210
C205  C     C_R   0.941860 0.273279 0.442609 0.228210
C206  C     C_R   0.726721 0.941861 0.442609 0.228210
C207  C     C_R   0.058140 0.726721 0.442609 0.228210
C208  C     C_R   0.273279 0.058139 0.442609 0.228210
C209  C     C_R   0.273279 0.442609 0.941860 0.228210
C210  C     C_R   0.941860 0.442609 0.726721 0.228210
C211  C     C_R   0.726721 0.442609 0.058139 0.228210
C212  C     C_R   0.058139 0.442609 0.273279 0.228210
C213  C     C_R   0.273279 0.557391 0.058139 0.228210
C214  C     C_R   0.941861 0.557391 0.273279 0.228210
C215  C     C_R   0.726721 0.557391 0.941860 0.228210
C216  C     C_R   0.058139 0.557391 0.726721 0.228210
H1    H     H_    0.048154 0.448459 0.137911 0.192992
H2    H     H_    0.048154 0.862089 0.448459 0.192992
H3    H     H_    0.048154 0.551541 0.862089 0.192992
H4    H     H_    0.048154 0.137911 0.551541 0.192992
H5    H     H_    0.951846 0.551541 0.137911 0.192992
H6    H     H_    0.951846 0.137911 0.448459 0.192992
H7    H     H_    0.951846 0.448459 0.862089 0.192992
H8    H     H_    0.951846 0.862089 0.551541 0.192992
H9    H     H_    0.448459 0.862089 0.951846 0.192992
H10   H     H_    0.862089 0.551541 0.951846 0.192992
H11   H     H_    0.551541 0.137911 0.951846 0.192992
H12   H     H_    0.137911 0.448459 0.951846 0.192992
H13   H     H_    0.551541 0.862089 0.048154 0.192992
H14   H     H_    0.137911 0.551541 0.048154 0.192992
H15   H     H_    0.448459 0.137911 0.048154 0.192992
H16   H     H_    0.862089 0.448459 0.048154 0.192992
H17   H     H_    0.862089 0.048154 0.551541 0.192992
H18   H     H_    0.551541 0.048154 0.137911 0.192992
H19   H     H_    0.137911 0.048154 0.448459 0.192992
H20   H     H_    0.448459 0.048154 0.862089 0.192992
H21   H     H_    0.862089 0.951846 0.448459 0.192993
H22   H     H_    0.551541 0.951846 0.862089 0.192992
H23   H     H_    0.137911 0.951846 0.551541 0.192992
H24   H     H_    0.448459 0.951846 0.137911 0.192992
H25   H     H_    0.548154 0.948459 0.637911 0.192992
H26   H     H_    0.548154 0.362089 0.948459 0.192992
H27   H     H_    0.548154 0.051541 0.362089 0.192992
H28   H     H_    0.548154 0.637911 0.051541 0.192992
H29   H     H_    0.451846 0.051541 0.637911 0.192992
H30   H     H_    0.451846 0.637911 0.948459 0.192992
H31   H     H_    0.451846 0.948459 0.362089 0.192992
H32   H     H_    0.451846 0.362089 0.051541 0.192992
H33   H     H_    0.948459 0.362089 0.451846 0.192992
H34   H     H_    0.362089 0.051541 0.451846 0.192992
H35   H     H_    0.051541 0.637911 0.451846 0.192992
H36   H     H_    0.637911 0.948459 0.451846 0.192992
H37   H     H_    0.051541 0.362089 0.548154 0.192992
H38   H     H_    0.637911 0.051541 0.548154 0.192992
H39   H     H_    0.948459 0.637911 0.548154 0.192992
H40   H     H_    0.362089 0.948459 0.548154 0.192992
H41   H     H_    0.362089 0.548154 0.051541 0.192992
H42   H     H_    0.051541 0.548154 0.637911 0.192992
H43   H     H_    0.637911 0.548154 0.948459 0.192992
H44   H     H_    0.948459 0.548154 0.362089 0.192992
H45   H     H_    0.362089 0.451846 0.948459 0.192993
H46   H     H_    0.051541 0.451846 0.362089 0.192992
H47   H     H_    0.637911 0.451846 0.051541 0.192992
H48   H     H_    0.948459 0.451846 0.637911 0.192992
O1    O     O_R   0.962670 0.433890 0.500010 -0.607918
O2    O     O_R   0.962670 0.499990 0.433890 -0.607918
O3    O     O_R   0.962670 0.566110 0.499990 -0.607918
O4    O     O_R   0.962670 0.500010 0.566110 -0.607918
O5    O     O_R   0.037330 0.566110 0.500010 -0.607919
O6    O     O_R   0.037330 0.500010 0.433890 -0.607918
O7    O     O_R   0.037330 0.433890 0.499990 -0.607918
O8    O     O_R   0.037330 0.499990 0.566110 -0.607918
O9    O     O_R   0.433890 0.499990 0.037330 -0.607918
O10   O     O_R   0.499990 0.566110 0.037330 -0.607918
O11   O     O_R   0.566110 0.500010 0.037330 -0.607919
O12   O     O_R   0.500010 0.433890 0.037330 -0.607918
O13   O     O_R   0.566110 0.499990 0.962670 -0.607918
O14   O     O_R   0.500010 0.566110 0.962670 -0.607918
O15   O     O_R   0.433890 0.500010 0.962670 -0.607918
O16   O     O_R   0.499990 0.433890 0.962670 -0.607918
O17   O     O_R   0.499990 0.962670 0.566110 -0.607918
O18   O     O_R   0.566110 0.962670 0.500010 -0.607918
O19   O     O_R   0.500010 0.962670 0.433890 -0.607918
O20   O     O_R   0.433890 0.962670 0.499990 -0.607918
O21   O     O_R   0.499990 0.037330 0.433890 -0.607918
O22   O     O_R   0.566110 0.037330 0.499990 -0.607918
O23   O     O_R   0.500010 0.037330 0.566110 -0.607919
O24   O     O_R   0.433890 0.037330 0.500010 -0.607918
O25   O     O_R   0.462670 0.933890 0.000010 -0.607918
O26   O     O_R   0.462670 0.999990 0.933890 -0.607918
O27   O     O_R   0.462670 0.066110 0.999990 -0.607918
O28   O     O_R   0.462670 0.000010 0.066110 -0.607918
O29   O     O_R   0.537330 0.066110 0.000010 -0.607919
O30   O     O_R   0.537330 0.000010 0.933890 -0.607918
O31   O     O_R   0.537330 0.933890 0.999990 -0.607918
O32   O     O_R   0.537330 0.999990 0.066110 -0.607918
O33   O     O_R   0.933890 0.999990 0.537330 -0.607918
O34   O     O_R   0.999990 0.066110 0.537330 -0.607918
O35   O     O_R   0.066110 0.000010 0.537330 -0.607918
O36   O     O_R   0.000010 0.933890 0.537330 -0.607918
O37   O     O_R   0.066110 0.999990 0.462670 -0.607918
O38   O     O_R   0.000010 0.066110 0.462670 -0.607918
O39   O     O_R   0.933890 0.000010 0.462670 -0.607918
O40   O     O_R   0.999990 0.933890 0.462670 -0.607918
O41   O     O_R   0.999990 0.462670 0.066110 -0.607918
O42   O     O_R   0.066110 0.462670 0.000010 -0.607918
O43   O     O_R   0.000010 0.462670 0.933890 -0.607918
O44   O     O_R   0.933890 0.462670 0.999990 -0.607918
O45   O     O_R   0.999990 0.537330 0.933890 -0.607918
O46   O     O_R   0.066110 0.537330 0.999990 -0.607918
O47   O     O_R   0.000010 0.537330 0.066110 -0.607919
O48   O     O_R   0.933890 0.537330 0.000010 -0.607918
Zn1   Zn    Zn3+2 0.950160 0.500000 0.500000 1.069949
Zn2   Zn    Zn3+2 0.049840 0.500000 0.500000 1.069948
Zn3   Zn    Zn3+2 0.500000 0.500000 0.049840 1.069948
Zn4   Zn    Zn3+2 0.500000 0.500000 0.950160 1.069949
Zn5   Zn    Zn3+2 0.500000 0.950160 0.500000 1.069949
Zn6   Zn    Zn3+2 0.500000 0.049840 0.500000 1.069948
Zn7   Zn    Zn3+2 0.450160 0.000000 0.000000 1.069949
Zn8   Zn    Zn3+2 0.549840 0.000000 0.000000 1.069948
Zn9   Zn    Zn3+2 0.000000 0.000000 0.549840 1.069948
Zn10  Zn    Zn3+2 1.000000 0.000000 0.450160 1.069949
Zn11  Zn    Zn3+2 1.000000 0.450160 0.000000 1.069949
Zn12  Zn    Zn3+2 1.000000 0.549840 0.000000 1.069948
Br1   Br    Br    0.903359 0.598394 0.195461 -0.334213
Br2   Br    Br    0.903359 0.804539 0.598394 -0.334213
Br3   Br    Br    0.903359 0.401606 0.804539 -0.334213
Br4   Br    Br    0.903359 0.195461 0.401606 -0.334213
Br5   Br    Br    0.096641 0.401606 0.195461 -0.334213
Br6   Br    Br    0.096640 0.195461 0.598394 -0.334213
Br7   Br    Br    0.096640 0.598394 0.804539 -0.334213
Br8   Br    Br    0.096641 0.804539 0.401606 -0.334213
Br9   Br    Br    0.598394 0.804539 0.096641 -0.334213
Br10  Br    Br    0.804539 0.401606 0.096640 -0.334213
Br11  Br    Br    0.401606 0.195461 0.096641 -0.334213
Br12  Br    Br    0.195461 0.598394 0.096641 -0.334213
Br13  Br    Br    0.401606 0.804539 0.903359 -0.334213
Br14  Br    Br    0.195461 0.401606 0.903359 -0.334213
Br15  Br    Br    0.598394 0.195461 0.903359 -0.334213
Br16  Br    Br    0.804539 0.598394 0.903359 -0.334213
Br17  Br    Br    0.804539 0.903359 0.401606 -0.334213
Br18  Br    Br    0.401606 0.903359 0.195461 -0.334213
Br19  Br    Br    0.195461 0.903359 0.598394 -0.334214
Br20  Br    Br    0.598394 0.903359 0.804539 -0.334213
Br21  Br    Br    0.804539 0.096641 0.598394 -0.334213
Br22  Br    Br    0.401606 0.096640 0.804539 -0.334213
Br23  Br    Br    0.195461 0.096640 0.401606 -0.334213
Br24  Br    Br    0.598394 0.096641 0.195461 -0.334213
Br25  Br    Br    0.403359 0.098394 0.695461 -0.334213
Br26  Br    Br    0.403359 0.304539 0.098394 -0.334213
Br27  Br    Br    0.403359 0.901606 0.304539 -0.334213
Br28  Br    Br    0.403359 0.695461 0.901606 -0.334214
Br29  Br    Br    0.596641 0.901606 0.695461 -0.334213
Br30  Br    Br    0.596640 0.695461 0.098394 -0.334213
Br31  Br    Br    0.596641 0.098394 0.304539 -0.334213
Br32  Br    Br    0.596641 0.304539 0.901606 -0.334213
Br33  Br    Br    0.098394 0.304539 0.596641 -0.334213
Br34  Br    Br    0.304539 0.901606 0.596640 -0.334213
Br35  Br    Br    0.901606 0.695461 0.596641 -0.334213
Br36  Br    Br    0.695461 0.098394 0.596641 -0.334213
Br37  Br    Br    0.901606 0.304539 0.403359 -0.334213
Br38  Br    Br    0.695461 0.901606 0.403359 -0.334213
Br39  Br    Br    0.098394 0.695461 0.403359 -0.334213
Br40  Br    Br    0.304539 0.098394 0.403359 -0.334213
Br41  Br    Br    0.304539 0.403359 0.901606 -0.334213
Br42  Br    Br    0.901606 0.403359 0.695461 -0.334213
Br43  Br    Br    0.695461 0.403359 0.098394 -0.334214
Br44  Br    Br    0.098394 0.403359 0.304539 -0.334213
Br45  Br    Br    0.304539 0.596641 0.098394 -0.334213
Br46  Br    Br    0.901606 0.596641 0.304539 -0.334213
Br47  Br    Br    0.695461 0.596641 0.901606 -0.334213
Br48  Br    Br    0.098394 0.596641 0.695461 -0.334213

loop_
_geom_bond_atom_site_label_1
_geom_bond_atom_site_label_2
_ccdc_geom_bond_type
C120  C154  A    
C4    O8    A    
C70   C140  A    
C26   H2    S    
C5    O15   A    
C206  Br38  S    
C67   C143  A    
C152  C165  A    
C112  C184  A    
C136  C162  A    
C194  Br26  S    
C56   H32   S    
C35   H11   S    
C143  C215  A    
C180  C213  A    
O18   Zn5   S    
C172  Br4   S    
C110  C152  A    
C44   H20   S    
C71   C95   A    
C191  Br23  S    
C26   C104  A    
C25   H1    S    
C14   O26   A    
O34   Zn9   S    
C14   C84   S    
C40   H16   S    
C7    O13   A    
C130  C202  A    
C72   C94   A    
C188  Br20  S    
C28   H4    S    
C57   C133  A    
C212  Br44  S    
C135  C163  A    
C122  C194  A    
C27   C75   A    
C137  C165  A    
C32   H8    S    
C155  C162  A    
O15   Zn4   S    
C55   C123  A    
C151  C158  A    
C62   C132  A    
C30   H6    S    
C36   C80   A    
C68   H44   S    
C184  C215  A    
C69   H45   S    
O5    Zn2   S    
C174  C201  A    
C65   H41   S    
C30   C76   A    
C56   C86   A    
C170  Br2   S    
C109  C149  A    
O35   Zn9   S    
C201  Br33  S    
C122  C158  A    
O17   Zn5   S    
C203  Br35  S    
C8    O12   A    
C12   O20   A    
C46   C84   A    
C117  C153  A    
C173  C212  A    
C5    O9    A    
C57   H33   S    
C6    O14   A    
C60   C134  A    
C48   C114  A    
C69   C93   A    
C99   C147  A    
O21   Zn6   S    
C61   H37   S    
O41   Zn11  S    
C107  C179  A    
C97   C145  A    
C45   C81   A    
C105  C177  A    
C49   H25   S    
C33   H9    S    
O32   Zn8   S    
C22   O42   A    
O11   Zn3   S    
C175  C216  A    
C10   O18   A    
C2    C96   S    
C54   C88   A    
C41   H17   S    
C124  C160  A    
C32   C98   A    
C8    C86   S    
C45   H21   S    
C116  C156  A    
C142  C168  A    
O46   Zn12  S    
C169  Br1   S    
C63   C91   A    
C171  Br3   S    
O3    Zn1   S    
C114  C154  A    
C145  C168  A    
C106  C150  A    
C100  C172  A    
C34   C112  A    
C208  Br40  S    
C101  C173  A    
C213  Br45  S    
C21   O41   A    
C103  C147  A    
C104  C176  A    
C37   H13   S    
C187  C202  A    
C101  C145  A    
C20   O40   A    
C123  C159  A    
C12   C90   S    
C172  C205  A    
C185  Br17  S    
C32   C74   A    
C187  Br19  S    
C2    O2    A    
C21   C73   S    
C6    C88   S    
C27   C103  A    
C181  C196  A    
O19   Zn5   S    
C9    C85   S    
C15   C79   S    
C11   C87   S    
C197  Br29  S    
C68   C142  A    
O28   Zn7   S    
C176  Br8   S    
C61   C129  A    
C129  C201  A    
C130  C162  A    
C72   C138  A    
C108  C152  A    
C67   C95   A    
O23   Zn6   S    
C19   C83   S    
C111  C183  A    
O30   Zn8   S    
C60   C92   A    
C17   O33   A    
C9    O23   A    
C104  C146  A    
C52   C88   A    
O2    Zn1   S    
C11   O21   A    
C181  Br13  S    
C144  C216  A    
C52   C126  A    
C138  C210  A    
C56   C122  A    
C70   C96   A    
C37   C105  A    
C115  C187  A    
C48   C82   A    
C44   C118  A    
O16   Zn4   S    
C113  C185  A    
C124  C196  A    
C193  Br25  S    
C129  C161  A    
C17   O39   A    
O12   Zn3   S    
C195  Br27  S    
C143  C167  A    
C117  C189  A    
O9    Zn3   S    
C47   H23   S    
C186  Br18  S    
C64   C130  A    
C111  C151  A    
C63   C131  A    
C51   C87   A    
C59   H35   S    
C112  C150  A    
C40   C106  A    
C109  C181  A    
C70   H46   S    
C125  C157  A    
C185  C206  A    
C51   H27   S    
C66   H42   S    
C127  C199  A    
C53   C85   A    
C1    O7    A    
C141  C165  A    
C183  C200  A    
C3    O5    A    
C138  C166  A    
O24   Zn6   S    
C154  C159  A    
C43   H19   S    
C12   O24   A    
C36   C110  A    
C42   C120  A    
C15   O27   A    
O26   Zn7   S    
C209  Br41  S    
O1    Zn1   S    
C55   C87   A    
C6    O10   A    
C149  C160  A    
C47   C83   A    
C98   C170  A    
C182  Br14  S    
O37   Zn10  S    
C41   C117  A    
C106  C178  A    
C67   H43   S    
C43   C119  A    
C27   H3    S    
C10   O22   A    
C23   O43   A    
C64   C90   A    
C205  Br37  S    
C175  Br7   S    
C47   C115  A    
C68   C96   A    
C57   C89   A    
C16   O32   A    
C135  C207  A    
C34   H10   S    
C177  Br9   S    
C179  Br11  S    
C134  C206  A    
C66   C144  A    
C43   C83   A    
C3    C91   S    
O45   Zn12  S    
C190  C193  A    
C180  Br12  S    
C204  Br36  S    
C1    C89   S    
C31   C99   A    
C24   O48   A    
C131  C203  A    
O20   Zn5   S    
C10   C92   S    
C123  C195  A    
C196  Br28  S    
C121  C193  A    
C48   H24   S    
C107  C151  A    
C189  C204  A    
C71   H47   S    
C2    O6    A    
C72   H48   S    
C132  C204  A    
C3    O3    A    
C142  C214  A    
C173  Br5   S    
C65   C141  A    
C136  C208  A    
C171  C210  A    
O48   Zn12  S    
C37   C77   A    
C144  C166  A    
C39   C79   A    
C128  C200  A    
C169  C214  A    
C31   C75   A    
C131  C163  A    
C202  Br34  S    
C41   C81   A    
C103  C175  A    
C20   C74   S    
O8    Zn2   S    
C58   C90   A    
C170  C203  A    
O4    Zn1   S    
C178  Br10  S    
C24   C78   S    
C189  Br21  S    
C184  Br16  S    
C18   O34   A    
O7    Zn2   S    
C40   C78   A    
C50   C128  A    
C28   C76   A    
C105  C149  A    
C140  C212  A    
C54   C124  A    
C18   C76   S    
C23   C75   S    
C44   C84   A    
C216  Br48  S    
O33   Zn9   S    
C126  C160  A    
C4    O4    A    
C49   C125  A    
C114  C186  A    
C46   C116  A    
C51   C127  A    
C120  C192  A    
C53   C121  A    
O14   Zn4   S    
C118  C190  A    
C25   C101  A    
C13   O31   A    
C188  C197  A    
C150  C167  A    
C59   C135  A    
C134  C164  A    
C178  C211  A    
C17   C81   S    
C54   H30   S    
C38   C108  A    
C211  Br43  S    
C192  Br24  S    
C207  Br39  S    
C45   C113  A    
C11   O19   A    
C174  Br6   S    
C29   C73   A    
C110  C182  A    
C200  Br32  S    
C137  C209  A    
C21   O47   A    
O27   Zn7   S    
O40   Zn10  S    
C179  C194  A    
C140  C168  A    
C13   O25   A    
C30   C100  A    
C14   O30   A    
C31   H7    S    
C42   C82   A    
C214  Br46  S    
C33   C77   A    
C132  C164  A    
O47   Zn12  S    
C128  C158  A    
C38   H14   S    
C20   O36   A    
C39   C107  A    
O31   Zn8   S    
C116  C188  A    
C29   H5    S    
C148  C161  A    
C190  Br22  S    
C176  C207  A    
C156  C157  A    
C119  C191  A    
O38   Zn10  S    
C7    O11   A    
C52   H28   S    
C99   C171  A    
C133  C205  A    
C97   C169  A    
C108  C180  A    
C192  C199  A    
C35   C79   A    
C102  C148  A    
C63   H39   S    
C198  Br30  S    
C62   C92   A    
C19   O37   A    
O42   Zn11  S    
O39   Zn10  S    
C25   C73   A    
C66   C94   A    
C125  C197  A    
C36   H12   S    
C55   H31   S    
C16   O28   A    
O36   Zn9   S    
C210  Br42  S    
C8    O16   A    
C61   C89   A    
C69   C137  A    
O6    Zn2   S    
C13   C77   S    
C153  C164  A    
C49   C85   A    
C186  C195  A    
O13   Zn4   S    
C141  C213  A    
C71   C139  A    
C98   C146  A    
C139  C211  A    
C182  C209  A    
C24   O44   A    
C139  C167  A    
C39   H15   S    
C147  C166  A    
C215  Br47  S    
O25   Zn7   S    
C16   C82   S    
C9    O17   A    
C22   O46   A    
O43   Zn11  S    
C118  C156  A    
O44   Zn11  S    
C4    C94   S    
C177  C198  A    
O22   Zn6   S    
C58   H34   S    
C33   C109  A    
C127  C159  A    
O29   Zn8   S    
C35   C111  A    
C59   C91   A    
C62   H38   S    
C15   O29   A    
C119  C155  A    
C115  C155  A    
C199  Br31  S    
C113  C153  A    
C50   H26   S    
C133  C161  A    
C5    C93   S    
C102  C174  A    
C7    C95   S    
C146  C163  A    
C29   C97   A    
C22   C80   S    
C34   C78   A    
C42   H18   S    
C126  C198  A    
C38   C80   A    
C100  C148  A    
C18   O38   A    
C65   C93   A    
C26   C74   A    
C19   O35   A    
C23   O45   A    
C191  C208  A    
C46   H22   S    
C53   H29   S    
C50   C86   A    
C183  Br15  S    
C28   C102  A    
O10   Zn3   S    
C1    O1    A    
C60   H36   S    
C121  C157  A    
C64   H40   S    
C58   C136  A    
