data_mof_unit_47843.cif
_audit_creation_date              2013-03-05T16:11:50-0500
_audit_creation_method            fapswitch 2.2
_symmetry_space_group_name_H-M    P1
_symmetry_Int_Tables_number       1
_space_group_crystal_system       triclinic
_cell_length_a                    10.728578
_cell_length_b                    9.647254
_cell_length_c                    23.49443
_cell_angle_alpha                 90.457684
_cell_angle_beta                  91.479316
_cell_angle_gamma                 89.735406
_cell_volume                      2430.79275362

loop_
_atom_site_label
_atom_site_type_symbol
_atom_site_description
_atom_site_fract_x
_atom_site_fract_y
_atom_site_fract_z
_atom_type_partial_charge
O1    O     O_R   0.317570 0.620260 0.500030 -0.536923
O2    O     O_R   0.317570 0.379740 0.500030 -0.510282
C1    C     C_R   0.260197 0.500261 0.500169 0.762398
O3    O     O_R   0.499840 0.620290 0.417900 -0.540369
O4    O     O_R   0.499840 0.379710 0.417900 -0.535029
C2    C     C_R   0.505425 0.499064 0.391485 0.793500
Cu1   Cu    Cu3+1 0.499860 0.642410 0.500030 1.028185
Cu2   Cu    Cu3+1 0.499860 0.357590 0.500030 1.055793
O5    O     O_R   0.682190 0.620260 0.500010 -0.564963
O6    O     O_R   0.682190 0.379740 0.500010 -0.597127
O7    O     O_R   0.499920 0.620230 0.582140 -0.576496
O8    O     O_R   0.499920 0.379770 0.582140 -0.495764
C3    C     C_R   0.739234 0.499949 0.500275 0.746711
C4    C     C_R   0.499184 0.500117 0.608507 0.803999
C5    C     C_R   0.608767 0.454531 0.880094 0.559783
N1    N     N_R   0.497973 0.476156 0.851185 -0.473650
C6    C     C_R   0.388313 0.491016 0.879433 0.582017
C7    C     C_R   0.385857 0.477017 0.939221 -0.132480
C8    C     C_R   0.501097 0.464309 0.969414 -0.052054
C9    C     C_R   0.613207 0.453195 0.939672 -0.013185
C10   C     C_R   0.273629 0.480279 0.970122 0.349048
C11   C     C_R   0.279225 0.479697 0.029719 -0.197985
C12   C     C_R   0.393702 0.472775 0.059686 -0.082777
C13   C     C_R   0.504880 0.464094 0.029559 -0.013420
C14   C     C_R   0.620176 0.456540 0.059551 -0.015433
C15   C     C_R   0.730886 0.444765 0.029298 -0.128919
C16   C     C_R   0.727326 0.441737 0.970007 -0.106500
C17   C     C_R   0.399522 0.473018 0.119432 0.586870
N2    N     N_R   0.512547 0.470523 0.148077 -0.456578
C18   C     C_R   0.621945 0.462653 0.119261 0.554276
O9    O     O_2   0.714572 0.434420 0.851216 -0.490292
O10   O     O_2   0.283337 0.524405 0.849760 -0.455536
H1    H     H_    0.192740 0.482477 0.052537 0.219167
O11   O     O_2   0.292891 0.475041 0.148694 -0.506331
O12   O     O_2   0.732251 0.463103 0.148201 -0.517021
H2    H     H_    0.820666 0.437890 0.051288 0.208507
H3    H     H_    0.814550 0.432693 0.948039 0.234185
C19   C     C_R   0.577036 0.376998 0.241798 -0.060100
H4    H     H_    0.622771 0.291156 0.220747 0.185003
C20   C     C_R   0.582759 0.386299 0.301192 0.424908
C21   C     C_R   0.517535 0.495057 0.329038 -0.165328
C22   C     C_R   0.458314 0.597542 0.295996 -0.194958
H5    H     H_    0.408348 0.681252 0.315603 0.256367
C23   C     C_R   0.459155 0.591021 0.236866 -0.092255
H6    H     H_    0.413220 0.671937 0.212356 0.185398
C24   C     C_R   0.516095 0.479260 0.209307 0.227151
C25   C     C_R   0.419813 0.396211 0.757010 -0.067240
H7    H     H_    0.360997 0.321293 0.777278 0.173715
C26   C     C_R   0.418678 0.404031 0.697813 -0.175745
H8    H     H_    0.357124 0.336726 0.673166 0.178219
C27   C     C_R   0.496187 0.498238 0.670730 -0.033142
C28   C     C_R   0.574494 0.584764 0.703487 -0.136535
H9    H     H_    0.639596 0.652411 0.683341 0.219447
C29   C     C_R   0.573250 0.579793 0.762756 -0.069389
H10   H     H_    0.633331 0.648546 0.787520 0.177709
C30   C     C_R   0.496721 0.484481 0.789984 0.303337
C31   C     C_3   0.069371 0.650253 0.496342 -0.344097
C32   C     C_3   0.074966 0.435302 0.556226 -0.388304
H11   H     H_    0.097773 0.696912 0.455574 0.225036
H12   H     H_    0.112484 0.328222 0.561192 0.220973
H13   H     H_    0.106616 0.714461 0.532421 0.219873
H14   H     H_    0.109198 0.497033 0.593633 0.170932
C33   C     C_3   0.927177 0.650882 0.498174 -0.371571
C34   C     C_3   0.930810 0.431045 0.555288 -0.325447
H15   H     H_    0.897852 0.710488 0.536324 0.229263
H16   H     H_    0.895482 0.485555 0.593609 0.185699
H17   H     H_    0.888487 0.704986 0.459868 0.178044
H18   H     H_    0.899483 0.321407 0.557215 0.223585
H19   H     H_    0.104522 0.454878 0.408609 0.187980
H20   H     H_    0.097597 0.305735 0.453926 0.251658
H21   H     H_    0.890656 0.472022 0.408050 0.171191
H22   H     H_    0.887445 0.312677 0.446842 0.189780
C35   C     C_3   0.068182 0.415297 0.449313 -0.297393
C36   C     C_3   0.121446 0.500458 0.500529 0.085657
C37   C     C_3   0.877293 0.500309 0.500436 0.116283
C38   C     C_3   0.924475 0.420312 0.447759 -0.410838
C39   C     C_3   0.604881 0.080148 0.468334 -0.414886
C40   C     C_3   0.613105 0.916933 0.474602 -0.369971
H23   H     H_    0.695025 0.128559 0.479988 0.229892
H24   H     H_    0.699187 0.892528 0.499006 0.241607
H25   H     H_    0.601286 0.105986 0.423074 0.263595
H26   H     H_    0.633923 0.864838 0.433911 0.236132
C41   C     C_3   0.516159 0.086776 0.561375 0.643582
C42   C     C_3   0.498524 0.919651 0.561856 0.552783
C43   C     C_3   0.379829 0.084800 0.474353 0.582170
C44   C     C_3   0.386264 0.916275 0.468770 0.591832
N3    N     N_3   0.500250 0.143650 0.501250 -0.271097
N4    N     N_3   0.500250 0.856350 0.501250 -0.270660
N5    N     N_R   0.153004 0.476487 0.942323 0.164085
O13   O     O_R   0.064872 0.558589 0.959565 -0.342552
O14   O     O_R   0.123873 0.372614 0.908970 -0.287781
N6    N     N_R   0.639931 0.128521 0.587412 0.142862
O15   O     O_R   0.744235 0.072422 0.571709 -0.388006
O16   O     O_R   0.644738 0.202745 0.633972 -0.309147
N7    N     N_R   0.594004 0.861738 0.601780 0.154535
O17   O     O_R   0.689456 0.789665 0.585611 -0.369182
O18   O     O_R   0.587190 0.893237 0.655627 -0.334300
O19   O     O_3   0.278416 0.127677 0.508303 -0.701038
H27   H     H_    0.261540 0.065300 0.540120 0.385539
O20   O     O_3   0.276682 0.864834 0.492257 -0.737935
H28   H     H_    0.203595 0.905743 0.471485 0.345418
N8    N     N_R   0.347413 0.143823 0.417360 0.174854
O21   O     O_R   0.230023 0.149842 0.402061 -0.343992
O22   O     O_R   0.426169 0.154662 0.376623 -0.295853
N9    N     N_R   0.383252 0.868894 0.408162 0.159015
O23   O     O_R   0.286804 0.801312 0.387865 -0.363896
O24   O     O_R   0.470673 0.898121 0.372926 -0.362426
O25   O     O_3   0.423348 0.145627 0.595827 -0.689628
H29   H     H_    0.434804 0.110023 0.635184 0.368650
O26   O     O_3   0.382352 0.893684 0.586919 -0.735777
H30   H     H_    0.362047 0.794470 0.584409 0.386162
O27   O     O_3   0.654676 0.289187 0.329861 -0.683597
H31   H     H_    0.685805 0.330754 0.366137 0.308814

loop_
_geom_bond_atom_site_label_1
_geom_bond_atom_site_label_2
_geom_bond_distance
_ccdc_geom_bond_type
C32   H14   1.113076 S    
C41   N3    1.524689 S    
C33   H15   1.112515 S    
C7    C10   1.422048 A    
C35   C36   1.549978 S    
C8    C9    1.409774 A    
H22   C38   1.113353 S    
Cu1   Cu2   2.747730 S    
C20   O27   1.379603 S    
C10   N5    1.434960 S    
C39   C40   1.584458 S    
O25   H29   0.993454 S    
Cu1   O7    1.942637 S    
C41   N6    1.502924 S    
N9    O24   1.300297 A    
C15   C16   1.392611 A    
C18   O12   1.349554 S    
C34   H18   1.112914 S    
C17   N2    1.371771 A    
H21   C38   1.113182 S    
O7    C4    1.318468 A    
C40   H24   1.099962 S    
C31   H11   1.111812 S    
C32   H12   1.112850 S    
C5    N1    1.369683 A    
C41   O25   1.413516 S    
C7    C8    1.414757 A    
C21   C22   1.401722 A    
C1    C36   1.488836 S    
O5    C3    1.309617 A    
O26   H30   0.983573 S    
N6    O15   1.301458 A    
C43   O19   1.423540 S    
C40   N4    1.500353 S    
C41   C42   1.624391 S    
C23   C24   1.399326 A    
N1    C6    1.372002 A    
C26   C27   1.402116 A    
C2    C21   1.476422 S    
C12   C13   1.404439 A    
H19   C35   1.113021 S    
N5    O14   1.301388 A    
C44   O20   1.405779 S    
C39   H23   1.103121 S    
C17   O11   1.349807 S    
C10   C11   1.399971 A    
C22   C23   1.390403 A    
O3    Cu1   1.939663 S    
O27   H31   0.989859 S    
C28   C29   1.394115 A    
C31   C33   1.527242 S    
C33   H17   1.113973 S    
C43   N3    1.532861 S    
C32   C34   1.546917 S    
C5    C9    1.399499 A    
C29   C30   1.404377 A    
C27   C28   1.399190 A    
C25   H7    1.082830 S    
C3    C37   1.481097 S    
C19   H4    1.083242 S    
C13   C14   1.409568 A    
C25   C26   1.393168 A    
C14   C15   1.403540 A    
C43   C44   1.631333 S    
C5    O9    1.349851 S    
C42   O26   1.416355 S    
O1    C1    1.313701 A    
C42   N7    1.481470 S    
C34   H16   1.113099 S    
C31   C36   1.549878 S    
C37   C38   1.548240 S    
N1    C30   1.440478 S    
N2    C18   1.371510 A    
C40   H26   1.103968 S    
C4    C27   1.463329 S    
C39   H25   1.093792 S    
Cu2   O8    1.939240 S    
H20   C35   1.107036 S    
N6    O16   1.302657 A    
C6    C7    1.413158 A    
C12   C17   1.403466 A    
N8    O22   1.298114 A    
O3    C2    1.321418 A    
C20   C21   1.422817 A    
O8    C4    1.311662 A    
C26   H8    1.082237 S    
C35   C38   1.541807 S    
C44   N9    1.491636 S    
C22   H5    1.074494 S    
C23   H6    1.082969 S    
C32   C36   1.551080 S    
C15   H2    1.083222 S    
C14   C18   1.403254 A    
Cu1   O5    1.966810 S    
C11   H1    1.083644 S    
C29   H10   1.082758 S    
O1    Cu1   1.968331 S    
O2    Cu2   1.966369 S    
C42   N4    1.545370 S    
O6    C3    1.313663 A    
Cu1   N4    2.063926 S    
O4    Cu2   1.943052 S    
N7    O18   1.302526 A    
C31   H13   1.112783 S    
C9    C16   1.405035 A    
N9    O23   1.303442 A    
N2    C24   1.439886 S    
Cu2   N3    2.064345 S    
O2    C1    1.313087 A    
C19   C20   1.397372 A    
O4    C2    1.314736 A    
C33   C37   1.552169 S    
C16   H3    1.083133 S    
O20   H28   0.994594 S    
C34   C37   1.552080 S    
C8    C13   1.412642 A    
C44   N4    1.537650 S    
N8    O21   1.301925 A    
C19   C24   1.401352 A    
C39   N3    1.504783 S    
Cu2   O6    1.968773 S    
O19   H27   0.984318 S    
N7    O17   1.298373 A    
C6    O10   1.348303 S    
C11   C12   1.401396 A    
N5    O13   1.301230 A    
C43   N8    1.491459 S    
C28   H9    1.078879 S    
C25   C30   1.403258 A    
