data_mof_unit_10701.cif
_audit_creation_date              2012-10-26T20:13:56-0400
_audit_creation_method            fapswitch 2.2
_symmetry_space_group_name_H-M    P1
_symmetry_Int_Tables_number       1
_space_group_crystal_system       triclinic
_cell_length_a                    8.735051
_cell_length_b                    10.864824
_cell_length_c                    9.553334
_cell_angle_alpha                 89.992119
_cell_angle_beta                  97.638284
_cell_angle_gamma                 90.300157
_cell_volume                      898.599883536

loop_
_atom_site_label
_atom_site_type_symbol
_atom_type_description
_atom_site_fract_x
_atom_site_fract_y
_atom_site_fract_z
_atom_type_partial_charge
C1    C     C_R   0.499705 0.262739 0.499816 0.548430
C2    C     C_R   0.570913 0.592835 0.934589 0.107979
C3    C     C_3   0.737510 0.627623 0.947097 -0.246497
C4    C     C_R   0.204079 0.498744 0.464137 0.550314
C5    C     C_3   0.737138 0.628401 0.106213 0.096506
C6    C     C_R   0.499930 0.737286 0.499849 0.564341
C7    C     C_R   0.796079 0.499943 0.536092 0.557355
C8    C     C_2   0.038653 0.495147 0.444864 -0.133713
C9    C     C_2   0.961860 0.501175 0.556298 -0.148741
C10   C     C_R   0.494296 0.062038 0.620130 0.021904
C11   C     C_R   0.500100 0.130132 0.498164 0.010439
C12   C     C_R   0.506139 0.935516 0.371467 -0.140204
C13   C     C_R   0.506304 0.064626 0.371402 -0.159907
C14   C     C_R   0.500402 0.869952 0.498324 0.016333
C15   C     C_R   0.494768 0.938086 0.620319 0.019986
C16   C     C_3   0.483517 0.929471 0.774332 -0.266391
C17   C     C_3   0.482803 0.071184 0.773956 -0.270331
C18   C     C_R   0.569764 0.593551 0.081996 0.167322
C19   C     C_R   0.417884 0.415000 0.064438 -0.021465
C20   C     C_R   0.417539 0.415203 0.915583 -0.014934
Cu1   Cu    Cu3+1 0.499990 0.499980 0.640670 0.939600
Cu2   Cu    Cu3+1 0.500010 0.500020 0.359330 0.967270
H1    H     H_    0.352851 0.345293 0.852027 0.112350
H2    H     H_    0.980071 0.486360 0.338138 0.118117
H3    H     H_    0.756069 0.719321 0.900667 0.130272
H4    H     H_    0.811324 0.556428 0.161279 0.156199
H5    H     H_    0.691410 0.804878 0.115243 0.311345
H6    H     H_    0.371105 0.111105 0.794764 0.128550
H7    H     H_    0.810299 0.553095 0.911929 0.129221
H8    H     H_    0.020994 0.508101 0.663621 0.122752
H9    H     H_    0.510868 0.112336 0.272476 0.131567
H10   H     H_    0.509901 0.887849 0.272531 0.145741
H11   H     H_    0.372468 0.887771 0.795701 0.144724
H12   H     H_    0.589002 0.889911 0.835048 0.128559
H13   H     H_    0.587799 0.113092 0.834305 0.141878
H14   H     H_    0.353769 0.344707 0.112350 0.115590
N1    N     N_R   0.500980 0.500930 0.148050 -0.247822
N2    N     N_R   0.500990 0.500890 0.852140 -0.234446
O1    O     O_R   0.500000 0.319640 0.618810 -0.506849
O2    O     O_R   0.500020 0.319680 0.381230 -0.519642
O3    O     O_R   0.274830 0.499980 0.591380 -0.504145
O4    O     O_R   0.274850 0.500020 0.353800 -0.499499
O5    O     O_R   0.499980 0.680320 0.618770 -0.501671
O6    O     O_R   0.500000 0.680360 0.381190 -0.481488
O7    O     O_R   0.725150 0.499980 0.646200 -0.507258
O8    O     O_R   0.725170 0.500020 0.408620 -0.490490
O9    O     O_3   0.763612 0.745526 0.167976 -0.689154

loop_
_geom_bond_atom_site_label_1
_geom_bond_atom_site_label_2
_ccdc_geom_bond_type
C16   H12   S    
C16   H11   S    
C2    C18   A    
C11   C13   A    
C19   N1    A    
C2    N2    A    
C19   C20   A    
Cu1   O1    S    
C20   H1    S    
C19   H14   S    
C4    C8    S    
Cu2   O2    S    
C17   H6    S    
C2    C3    S    
C6    O6    A    
Cu1   Cu2   S    
C12   H10   S    
C5    O9    S    
Cu2   O4    S    
C4    O4    A    
C9    H8    S    
Cu1   O3    S    
C7    O7    A    
C8    H2    S    
C18   N1    A    
C12   C14   A    
Cu1   O7    S    
C6    O5    A    
C6    C14   S    
C4    O3    A    
C1    O1    A    
C10   C17   S    
C15   C16   S    
C7    O8    A    
C3    H3    S    
C20   N2    A    
C12   C13   A    
C7    C9    S    
C10   C11   A    
H5    O9    S    
C3    H7    S    
C14   C15   A    
C8    C9    D    
C5    C18   S    
C17   H13   S    
C1    O2    A    
Cu2   O8    S    
C10   C15   A    
Cu1   O5    S    
Cu2   N1    S    
C13   H9    S    
Cu2   O6    S    
Cu1   N2    S    
C5    H4    S    
C16   C17   S    
C3    C5    S    
C1    C11   S    
