data_mof_unit_67516.cif
_audit_creation_date              2013-03-05T15:41:20-0500
_audit_creation_method            fapswitch 2.2
_symmetry_space_group_name_H-M    P1
_symmetry_Int_Tables_number       1
_space_group_crystal_system       triclinic
_cell_length_a                    10.720094
_cell_length_b                    8.781809
_cell_length_c                    7.538355
_cell_angle_alpha                 102.701167
_cell_angle_beta                  96.125887
_cell_angle_gamma                 92.705873
_cell_volume                      686.526019624

loop_
_atom_site_label
_atom_site_type_symbol
_atom_site_description
_atom_site_fract_x
_atom_site_fract_y
_atom_site_fract_z
_atom_type_partial_charge
O1    O     O_R   0.509190 0.286130 0.619780 -0.549041
O2    O     O_R   0.490810 0.713870 0.380220 -0.549051
O3    O     O_R   0.485310 0.256770 0.308360 -0.660155
O4    O     O_R   0.514690 0.743230 0.691640 -0.660154
C1    C     C_R   0.495606 0.200797 0.454510 0.840468
C2    C     C_R   0.504393 0.799203 0.545490 0.840467
O5    O     O_R   0.328790 0.514640 0.655680 -0.573015
O6    O     O_R   0.671210 0.485360 0.344320 -0.573025
O7    O     O_R   0.304910 0.485280 0.344260 -0.560801
O8    O     O_R   0.695090 0.514720 0.655740 -0.560797
C3    C     C_R   0.260596 0.508607 0.501015 0.836609
C4    C     C_R   0.739404 0.491393 0.498985 0.836604
Cu1   Cu    Cu3+1 0.514140 0.517380 0.684380 1.019257
Cu2   Cu    Cu3+1 0.485860 0.482620 0.315620 1.019251
N1    N     N_2   0.464560 0.456420 0.038510 -0.206969
N2    N     N_2   0.535440 0.543580 0.961490 -0.206965
C5    C     C_3   0.055114 0.503042 0.668163 -0.065929
C6    C     C_3   0.944886 0.496958 0.331838 -0.065932
C7    C     C_3   0.965616 0.367846 0.549823 -0.094288
C8    C     C_3   0.034384 0.632155 0.450178 -0.094289
C9    C     C_3   0.875638 0.487837 0.498639 -0.111525
C10   C     C_3   0.124362 0.512163 0.501362 -0.111526
C11   C     C_3   0.965352 0.622709 0.617066 -0.103928
C12   C     C_3   0.034648 0.377291 0.382936 -0.103923
C13   C     C_2   0.474742 0.034990 0.433488 -0.197852
C14   C     C_2   0.525255 0.965010 0.566514 -0.197852
C15   C     C_1   0.942110 0.218738 0.600924 0.362686
N3    N     N_1   0.927348 0.099929 0.640614 -0.210255
C16   C     C_1   0.057888 0.781264 0.399081 0.362688
N4    N     N_1   0.072648 0.900075 0.359395 -0.210259
C17   C     C_1   0.112763 0.515150 0.856871 0.346512
N5    N     N_1   0.158094 0.526320 0.005800 -0.218371
C18   C     C_1   0.887237 0.484849 0.143130 0.346515
N6    N     N_1   0.841907 0.473677 0.994201 -0.218367
C19   C     C_1   0.927069 0.754614 0.752369 0.300602
N7    N     N_1   0.896658 0.857081 0.860114 -0.219618
C20   C     C_1   0.072931 0.245386 0.247633 0.300601
N8    N     N_1   0.103341 0.142918 0.139888 -0.219631
C21   C     C_2   0.420667 0.305052 0.936563 0.764603
H1    H     H_    0.471633 0.205533 0.956283 -0.035646
O9    O     O_2   0.320422 0.283496 0.838532 -0.584208
C22   C     C_2   0.579331 0.694947 0.063436 0.764620
H2    H     H_    0.528352 0.794455 0.043738 -0.035638
O10   O     O_2   0.679582 0.716513 0.161445 -0.584216
C23   C     C_2   0.382432 0.957570 0.271317 0.359999
H3    H     H_    0.376729 0.001998 0.147418 0.083224
O11   O     O_2   0.307748 0.850005 0.275806 -0.522355
C24   C     C_2   0.617562 0.042432 0.728688 0.360005
H4    H     H_    0.623259 0.998006 0.852590 0.083221
O12   O     O_2   0.692250 0.149993 0.724198 -0.522352

loop_
_geom_bond_atom_site_label_1
_geom_bond_atom_site_label_2
_geom_bond_distance
_ccdc_geom_bond_type
O7    Cu2   1.975204 S    
C20   N8    1.156948 T    
C6    C12   1.540476 S    
N2    C22   1.411921 S    
C16   N4    1.155392 T    
C7    C15   1.462151 S    
C3    C10   1.462511 S    
C11   C19   1.471476 S    
C5    C10   1.541577 S    
C8    C11   1.541437 S    
C14   C24   1.499606 S    
O6    C4    1.297645 A    
C24   O12   1.217738 D    
C12   C20   1.471475 S    
C21   O9    1.219242 D    
C2    C14   1.433712 S    
Cu1   Cu2   2.711250 S    
O5    C3    1.297644 A    
O7    C3    1.298669 A    
N1    C21   1.411937 S    
C5    C11   1.540475 S    
O3    Cu2   1.971773 S    
C22   O10   1.219226 D    
O2    C2    1.294365 A    
O1    C1    1.294364 A    
O8    C4    1.298669 A    
C10   C12   1.539165 S    
C15   N3    1.155394 T    
C24   H4    1.085647 S    
C7    C9    1.544335 S    
C5    C17   1.468508 S    
C8    C10   1.544336 S    
C7    C12   1.541436 S    
C6    C8    1.539478 S    
C8    C16   1.462150 S    
C9    C11   1.539164 S    
O2    Cu2   1.978263 S    
C6    C18   1.468507 S    
C1    C13   1.433713 S    
Cu1   N2    2.037324 S    
O1    Cu1   1.978261 S    
C22   H2    1.081280 S    
N1    N2    1.317192 D    
C6    C9    1.541575 S    
C13   C23   1.499603 S    
O5    Cu1   1.974051 S    
C18   N6    1.156206 T    
O4    C2    1.298042 A    
C23   O11   1.217733 D    
C21   H1    1.081341 S    
Cu2   N1    2.037325 S    
O6    Cu2   1.974053 S    
C5    C7    1.539477 S    
C13   C14   1.364927 D    
C23   H3    1.085638 S    
C4    C9    1.462510 S    
O8    Cu1   1.975204 S    
C17   N5    1.156206 T    
O4    Cu1   1.971774 S    
O3    C1    1.298043 A    
C19   N7    1.156949 T    
