data_mof_unit_8324.cif
_audit_creation_date              2012-12-11T15:55:36-0500
_audit_creation_method            fapswitch 2.2
_symmetry_space_group_name_H-M    P1
_symmetry_Int_Tables_number       1
_space_group_crystal_system       triclinic
_cell_length_a                    6.933303
_cell_length_b                    14.509434
_cell_length_c                    16.116425
_cell_angle_alpha                 90.027594
_cell_angle_beta                  90.135433
_cell_angle_gamma                 90.002187
_cell_volume                      1621.28027524

loop_
_atom_site_label
_atom_site_type_symbol
_atom_type_description
_atom_site_fract_x
_atom_site_fract_y
_atom_site_fract_z
_atom_type_partial_charge
O1    O     O_R   0.505680 0.583900 0.413320 -0.543270
O2    O     O_R   0.176010 0.594950 0.586080 -0.544779
O3    O     O_R   0.005680 0.416100 0.586680 -0.529787
C1    C     C_R   0.345153 0.617347 0.614879 0.708914
O4    O     O_R   0.175960 0.594930 0.413930 -0.512846
O5    O     O_R   0.005640 0.416080 0.413300 -0.543224
C2    C     C_R   0.344830 0.618456 0.385962 0.708319
O6    O     O_R   0.505720 0.583920 0.586700 -0.541956
O7    O     O_3   0.339190 0.441320 0.500000 -0.372640
V1    V     V_3+5 0.064350 0.510890 0.500000 1.447978
O8    O     O_R   0.675920 0.405050 0.413920 -0.547148
C3    C     C_R   0.844875 0.382699 0.385050 0.678188
O9    O     O_R   0.675960 0.405070 0.586070 -0.541856
C4    C     C_R   0.844954 0.382551 0.614405 0.729738
V2    V     V_3+5 0.564340 0.489110 0.500000 1.411911
O10   O     O_3   0.839370 0.558680 0.500000 -0.366040
C5    C     C_R   0.996990 0.320483 0.744435 0.115013
C6    C     C_R   0.853220 0.315498 0.683527 -0.199756
C7    C     C_R   0.710540 0.247218 0.692857 -0.262861
H1    H     H_    0.594019 0.242361 0.648228 0.138200
C8    C     C_R   0.723759 0.180224 0.756228 0.412751
C9    C     C_R   0.875794 0.183869 0.815500 -0.196052
C10   C     C_R   0.007236 0.256844 0.809094 -0.021086
C11   C     C_3   0.222215 0.254031 0.806522 -0.416226
C12   C     C_3   0.211261 0.323030 0.735284 0.049911
H2    H     H_    0.274489 0.185254 0.787003 0.210717
H3    H     H_    0.288621 0.281210 0.864428 0.175143
H4    H     H_    0.262180 0.296010 0.674575 0.135725
C13   C     C_R   0.047010 0.224508 0.217911 -0.160639
H5    H     H_    0.187783 0.206105 0.194142 0.116047
C14   C     C_R   0.035739 0.288064 0.283140 -0.152921
H6    H     H_    0.168457 0.316827 0.307440 0.117527
C15   C     C_R   0.856055 0.314222 0.316323 -0.044936
C16   C     C_R   0.687979 0.274938 0.282483 -0.160793
H7    H     H_    0.547210 0.293319 0.306269 0.115223
C17   C     C_R   0.699250 0.211381 0.217254 -0.153545
H8    H     H_    0.566536 0.182597 0.192970 0.117880
C18   C     C_R   0.878916 0.185346 0.183974 -0.045213
C19   C     C_R   0.189805 0.730925 0.712255 -0.165048
H9    H     H_    0.050657 0.717595 0.684032 0.116199
C20   C     C_R   0.200685 0.794388 0.777590 -0.154580
H10   H     H_    0.069445 0.828172 0.797538 0.115153
C21   C     C_R   0.378345 0.814282 0.816214 -0.053426
C22   C     C_R   0.544950 0.769315 0.787366 -0.174113
H11   H     H_    0.684309 0.783144 0.815179 0.118683
C23   C     C_R   0.534089 0.705895 0.722015 -0.149630
H12   H     H_    0.665522 0.672565 0.701708 0.120918
C24   C     C_R   0.356318 0.685695 0.683650 -0.040842
C25   C     C_R   0.196765 0.746273 0.298763 0.434219
C26   C     C_R   0.207812 0.805876 0.229967 -0.245796
H13   H     H_    0.081846 0.846138 0.213452 0.127674
C27   C     C_R   0.379581 0.815884 0.184766 -0.102776
C28   C     C_R   0.540181 0.762784 0.207903 -0.158581
H14   H     H_    0.675171 0.768983 0.174682 0.139879
C29   C     C_R   0.527469 0.699347 0.273083 -0.207251
H15   H     H_    0.653013 0.657859 0.287460 0.172849
C30   C     C_R   0.355358 0.688742 0.318475 -0.142095
O11   O     O_R   0.229200 0.915950 0.913350 -0.540104
O12   O     O_R   0.559090 0.905000 0.086080 -0.545448
O13   O     O_R   0.729280 0.083880 0.086680 -0.542445
C31   C     C_R   0.390331 0.882915 0.115093 0.706231
O14   O     O_R   0.558920 0.904980 0.913920 -0.547779
O15   O     O_R   0.729110 0.083860 0.913300 -0.517159
C32   C     C_R   0.389669 0.882485 0.885178 0.690207
O16   O     O_R   0.229360 0.915970 0.086730 -0.541308
O17   O     O_3   0.395680 0.058580 0.000030 -0.363102
V3    V     V_3+5 0.670570 0.989070 0.999990 1.414753
O18   O     O_R   0.058820 0.094950 0.913870 -0.539480
C33   C     C_R   0.889666 0.115920 0.884211 0.729133
O19   O     O_R   0.058990 0.094970 0.086020 -0.545603
C34   C     C_R   0.890062 0.117133 0.115035 0.678533
V4    V     V_3+5 0.170560 0.010930 0.999930 1.412577
O20   O     O_3   0.895590 0.941310 0.999960 -0.375066
O21   O     O_3   0.027670 0.741455 0.344360 -0.571258
C35   C     C_3   0.999438 0.824423 0.389333 0.064508
H16   H     H_    0.841540 0.835137 0.396056 0.136421
H17   H     H_    0.054983 0.886976 0.357029 0.104762
C36   C     C_3   0.088173 0.817214 0.476368 -0.280383
H18   H     H_    0.002940 0.767564 0.513887 0.195480
H19   H     H_    0.238737 0.791412 0.472423 0.173842
C37   C     C_3   0.090730 0.910834 0.519690 -0.879091
H20   H     H_    0.199656 0.956429 0.490347 0.237884
H21   H     H_    0.128378 0.901814 0.586184 0.239541
H22   H     H_    0.947652 0.944671 0.515205 0.240308
O22   O     O_3   0.585484 0.111764 0.759547 -0.583084
C38   C     C_3   0.654798 0.030256 0.721677 0.093590
H23   H     H_    0.598378 0.971599 0.758184 0.150478
H24   H     H_    0.815266 0.023181 0.722482 0.073243
C39   C     C_3   0.579233 0.022580 0.632533 -0.333464
H25   H     H_    0.428100 0.048012 0.629245 0.206129
H26   H     H_    0.669452 0.066146 0.591287 0.178096
C40   C     C_3   0.583878 0.922920 0.601948 -0.843013
H27   H     H_    0.725744 0.890628 0.615261 0.236340
H28   H     H_    0.556863 0.920826 0.534046 0.230002
H29   H     H_    0.469973 0.882335 0.633431 0.251365
N1    N     N_3   0.291167 0.413709 0.755596 -0.647238
H30   H     H_    0.241505 0.435592 0.813645 0.233078
H31   H     H_    0.440943 0.406814 0.760059 0.235478

loop_
_geom_bond_atom_site_label_1
_geom_bond_atom_site_label_2
_ccdc_geom_bond_type
C29   H15   S    
C20   H10   S    
C4    C6    S    
C7    H1    S    
C11   H3    S    
C1    O6    A    
C37   H20   S    
C19   C20   A    
C28   H14   S    
C22   H11   S    
C12   H4    S    
C5    C10   A    
O14   V3    S    
C17   H8    S    
C7    C8    A    
C11   H2    S    
C16   H7    S    
C27   C31   S    
O5    C3    A    
C36   H19   S    
V2    O10   S    
C25   C30   A    
C6    C7    A    
O14   C32   A    
O12   V3    S    
C23   H12   S    
O8    V2    S    
O17   V4    S    
O15   C33   A    
O13   V3    S    
O18   C33   A    
N1    H31   S    
C13   C18   A    
C26   C27   A    
C10   C11   S    
C14   C15   A    
O19   C34   A    
V3    O20   S    
C39   H26   S    
O7    V1    S    
C9    C33   S    
C16   C17   A    
O17   V3    S    
C25   O21   S    
O1    C2    A    
C8    C9    A    
C20   C21   A    
C37   H21   S    
C22   C23   A    
C21   C32   S    
C5    C6    A    
C8    O22   S    
C28   C29   A    
O11   C32   A    
O15   V3    S    
O12   C31   A    
O21   C35   S    
C11   C12   S    
C19   H9    S    
O4    C2    A    
C36   H18   S    
O13   C34   A    
C26   H13   S    
O22   C38   S    
C40   H29   S    
O2    C1    A    
C35   H16   S    
C13   H5    S    
C14   H6    S    
O18   V4    S    
N1    H30   S    
C40   H28   S    
C15   C16   A    
C39   C40   S    
C35   H17   S    
O3    C4    A    
O1    V2    S    
O6    V2    S    
C29   C30   A    
C21   C22   A    
O2    V1    S    
C37   H22   S    
C27   C28   A    
C1    C24   S    
C18   C34   S    
C38   H23   S    
V4    O20   S    
C38   C39   S    
O5    V1    S    
O8    C3    A    
O16   V4    S    
C5    C12   S    
O9    V2    S    
O7    V2    S    
O4    V1    S    
C13   C14   A    
O3    V1    S    
V1    O10   S    
C36   C37   S    
O11   V4    S    
C3    C15   S    
C17   C18   A    
C40   H27   S    
C38   H24   S    
C35   C36   S    
C23   C24   A    
C31   O16   A    
C12   N1    S    
C25   C26   A    
C9    C10   A    
O19   V4    S    
C39   H25   S    
O9    C4    A    
C2    C30   S    
C19   C24   A    
