data_mof_unit_18506.cif
_audit_creation_date              2012-12-10T17:40:28-0500
_audit_creation_method            fapswitch 2.2
_symmetry_space_group_name_H-M    P1
_symmetry_Int_Tables_number       1
_space_group_crystal_system       triclinic
_cell_length_a                    13.715121
_cell_length_b                    15.06761
_cell_length_c                    15.724908
_cell_angle_alpha                 88.342091
_cell_angle_beta                  70.139057
_cell_angle_gamma                 89.778432
_cell_volume                      3054.98835111

loop_
_atom_site_label
_atom_site_type_symbol
_atom_type_description
_atom_site_fract_x
_atom_site_fract_y
_atom_site_fract_z
_atom_type_partial_charge
C1    C     C_R   0.501829 0.671063 0.494603 0.930770
C2    C     C_R   0.497741 0.328652 0.506498 0.904949
C3    C     C_R   0.460586 0.363658 0.051095 -0.291403
C4    C     C_R   0.630943 0.527276 0.899044 -0.205965
C5    C     C_R   0.399538 0.337131 0.001360 -0.018324
C6    C     C_R   0.696659 0.549985 0.946409 -0.015277
C7    C     C_R   0.484789 0.179847 0.589261 0.333446
C8    C     C_R   0.524679 0.817971 0.409589 0.298869
C9    C     C_R   0.496843 0.231600 0.509187 -0.161063
C10   C     C_R   0.501788 0.767568 0.491645 -0.169928
C11   C     C_R   0.504142 0.190554 0.428699 -0.242352
C12   C     C_R   0.473259 0.808620 0.574509 -0.234585
C13   C     C_R   0.503239 0.098411 0.424623 0.113472
C14   C     C_R   0.470166 0.900341 0.578458 0.106534
C15   C     C_R   0.488841 0.045970 0.503449 0.038001
C16   C     C_R   0.490158 0.952523 0.498561 0.039939
C17   C     C_R   0.473222 0.086554 0.587158 -0.010508
C18   C     C_R   0.511454 0.911524 0.414091 -0.000183
C19   C     C_R   0.513990 0.057942 0.343096 -0.163170
C20   C     C_R   0.444964 0.940380 0.661918 -0.159864
C21   C     C_R   0.516932 0.965761 0.338027 -0.075963
C22   C     C_R   0.445591 0.032133 0.666438 -0.061982
C23   C     C_R   0.437275 0.500935 0.672600 0.942446
C24   C     C_R   0.562722 0.496209 0.327228 0.926518
C25   C     C_R   0.225850 0.563143 0.450722 0.144499
C26   C     C_R   0.775537 0.434943 0.546214 0.140551
C27   C     C_R   0.188524 0.435828 0.547931 0.145869
C28   C     C_R   0.811415 0.564202 0.452249 0.138930
C29   C     C_R   0.084091 0.433789 0.550308 -0.112858
C30   C     C_R   0.914711 0.567935 0.452516 -0.119228
C31   C     C_R   0.052229 0.498959 0.498650 -0.011797
C32   C     C_R   0.948918 0.499097 0.498529 -0.007711
C33   C     C_R   0.124048 0.563733 0.446725 -0.125045
C34   C     C_R   0.879490 0.430226 0.544179 -0.121586
C35   C     C_R   0.012263 0.367254 0.600325 0.297605
C36   C     C_R   0.984686 0.636904 0.406319 0.297839
C37   C     C_R   0.914688 0.359395 0.587468 0.285850
C38   C     C_R   0.092168 0.628021 0.393762 0.298166
C39   C     C_R   0.401662 0.485842 0.771034 -0.109894
C40   C     C_R   0.601965 0.492583 0.227153 -0.109461
C41   C     C_R   0.309548 0.384895 0.894441 0.372418
C42   C     C_R   0.742331 0.529966 0.087046 0.351902
C43   C     C_R   0.321426 0.425477 0.810750 -0.230379
C44   C     C_R   0.704155 0.519480 0.180889 -0.152635
C45   C     C_R   0.459882 0.517292 0.822220 -0.087518
C46   C     C_R   0.540068 0.463429 0.177213 -0.078635
C47   C     C_R   0.464037 0.464539 0.897504 -0.063351
C48   C     C_R   0.578659 0.472460 0.080882 -0.013085
C49   C     C_R   0.389818 0.394353 0.931674 0.037035
C50   C     C_R   0.673997 0.518721 0.037346 -0.041011
C51   C     C_R   0.538589 0.479301 0.940653 0.065038
C52   C     C_R   0.522402 0.440615 0.026779 0.102520
Cu1   Cu    Cu3+1 0.402580 0.500010 0.499990 1.034984
Cu2   Cu    Cu3+1 0.597420 0.499990 0.500010 1.040838
H1    H     H_    0.281585 0.613919 0.416193 0.206158
H2    H     H_    0.718407 0.387718 0.585769 0.213493
H3    H     H_    0.218179 0.385050 0.582051 0.186937
H4    H     H_    0.784281 0.611112 0.412477 0.179966
H5    H     H_    0.755178 0.533638 0.218446 0.191605
H6    H     H_    0.268935 0.408735 0.775615 0.207727
H7    H     H_    0.467292 0.319164 0.104144 0.166874
H8    H     H_    0.653366 0.547539 0.828520 0.187073
H9    H     H_    0.512835 0.230989 0.368260 0.182452
H10   H     H_    0.454506 0.768545 0.636391 0.201102
H11   H     H_    0.520321 0.097711 0.282873 0.168113
H12   H     H_    0.425442 0.900582 0.724057 0.177125
H13   H     H_    0.519914 0.938423 0.274663 0.221104
H14   H     H_    0.422261 0.058937 0.733203 0.236213
N1    N     N_R   0.256170 0.500070 0.500040 -0.229952
N2    N     N_R   0.743830 0.499930 0.499960 -0.227947
O1    O     O_R   0.417730 0.629750 0.499970 -0.588747
O2    O     O_R   0.582270 0.370250 0.500030 -0.550382
O3    O     O_R   0.582270 0.629730 0.499980 -0.554839
O4    O     O_R   0.417730 0.370270 0.500020 -0.582956
O5    O     O_R   0.371590 0.500020 0.629830 -0.600499
O6    O     O_R   0.628410 0.499980 0.370170 -0.590732
O7    O     O_R   0.536130 0.499990 0.629840 -0.540257
O8    O     O_R   0.463870 0.500010 0.370160 -0.545440
C53   C     C_2   0.360805 0.244458 0.016654 0.552988
H15   H     H_    0.337873 0.214026 0.084036 0.071867
O9    O     O_2   0.361067 0.199402 0.953333 -0.429471
C54   C     C_2   0.774998 0.620233 0.904326 0.518351
H16   H     H_    0.793899 0.668380 0.946140 0.126613
O10   O     O_2   0.817045 0.626570 0.822327 -0.488819
S1    S     S_3+6 0.040977 0.300020 0.684221 0.096618
O11   O     O_2   0.944097 0.264286 0.754875 -0.138335
O12   O     O_2   0.108321 0.224133 0.638894 -0.249620
O13   O     O_3   0.104228 0.360307 0.737398 -0.528676
H17   H     H_    0.131280 0.315745 0.771089 0.412120
S2    S     S_3+6 0.935361 0.737856 0.374655 0.066093
O14   O     O_2   0.006933 0.814668 0.369432 -0.152521
O15   O     O_2   0.923071 0.727184 0.284074 -0.263819
O16   O     O_3   0.819383 0.761267 0.451791 -0.542592
H18   H     H_    0.790855 0.809743 0.423516 0.376486
S3    S     S_3+6 0.842366 0.257609 0.614129 0.087502
O17   O     O_2   0.911383 0.179846 0.613904 -0.158576
O18   O     O_2   0.760459 0.263787 0.705934 -0.228769
O19   O     O_3   0.785087 0.239521 0.536898 -0.532845
H19   H     H_    0.734295 0.191112 0.563646 0.394801
S4    S     S_3+6 0.187962 0.688537 0.304904 0.068698
O20   O     O_2   0.146188 0.719445 0.232342 -0.176971
O21   O     O_2   0.223109 0.767364 0.343618 -0.226514
O22   O     O_3   0.290437 0.623075 0.256728 -0.577900
H20   H     H_    0.338609 0.660185 0.207361 0.394943
C55   C     C_2   0.432189 0.431657 0.225197 0.402043
H21   H     H_    0.368823 0.458792 0.206265 0.132445
O23   O     O_2   0.414525 0.371303 0.282044 -0.542939
C56   C     C_2   0.496487 0.611514 0.807814 0.376576
H22   H     H_    0.510128 0.646340 0.862182 0.099270
O24   O     O_2   0.508787 0.652383 0.736780 -0.554428
S5    S     S_3+6 0.186584 0.336531 0.954103 0.084576
O25   O     O_2   0.181667 0.243871 0.922952 -0.156712
O26   O     O_2   0.164694 0.334516 0.054521 -0.270251
O27   O     O_3   0.094677 0.396995 0.931655 -0.408619
H23   H     H_    0.109977 0.459091 0.942222 0.379459
S6    S     S_3+6 0.879191 0.539247 0.037098 0.040103
O28   O     O_2   0.915680 0.502323 0.943817 -0.197668
O29   O     O_2   0.911952 0.634947 0.031887 -0.278688
O30   O     O_3   0.935384 0.481313 0.101017 -0.464161
H24   H     H_    0.948395 0.524825 0.142040 0.368212
S7    S     S_3+6 0.485821 0.228235 0.691252 -0.002494
O31   O     O_2   0.375836 0.234172 0.754218 -0.262825
O32   O     O_2   0.546175 0.170239 0.734822 -0.243426
O33   O     O_3   0.540489 0.328956 0.674874 -0.565924
H25   H     H_    0.555300 0.340325 0.731038 0.384201
S8    S     S_3+6 0.576660 0.763475 0.304274 0.004026
O34   O     O_2   0.489042 0.724804 0.280126 -0.256791
O35   O     O_2   0.639438 0.824736 0.228484 -0.260875
O36   O     O_3   0.655244 0.681168 0.313768 -0.558400
H26   H     H_    0.715526 0.711545 0.321236 0.373221

loop_
_geom_bond_atom_site_label_1
_geom_bond_atom_site_label_2
_ccdc_geom_bond_type
O16   H18   S    
C6    C54   S    
C27   C29   A    
C34   C37   A    
C11   C13   A    
Cu1   O4    S    
Cu1   N1    S    
O27   H23   S    
S3    O19   S    
C47   C49   A    
Cu1   Cu2   S    
S6    O28   D    
C40   C46   A    
C55   O23   D    
C1    O1    A    
C20   H12   S    
C35   C37   A    
C11   H9    S    
C12   H10   S    
C44   H5    S    
C15   C16   A    
C18   C21   A    
C46   C55   S    
C4    H8    S    
C56   H22   S    
C37   S3    S    
C7    C9    A    
C45   C47   A    
S7    O33   S    
C26   C34   A    
S3    O17   D    
C56   O24   D    
C7    C17   A    
C31   C33   A    
C5    C53   S    
C27   N1    A    
C45   C56   S    
C39   C45   A    
Cu2   O7    S    
C48   C50   A    
C21   H13   S    
C41   C43   A    
C5    C49   A    
Cu1   O5    S    
C42   C44   A    
C7    S7    S    
C2    O2    A    
C41   C49   A    
C3    H7    S    
C46   C48   A    
C13   C19   A    
S1    O12   D    
C51   C52   A    
C14   C20   A    
C4    C6    A    
C27   H3    S    
C23   O5    A    
C53   O9    D    
C24   O6    A    
C39   C43   A    
C4    C51   A    
S8    O36   S    
S1    O11   D    
S4    O22   S    
C6    C50   A    
C32   C34   A    
Cu2   O3    S    
S2    O15   D    
C31   C32   A    
Cu2   N2    S    
C40   C44   A    
O30   H24   S    
S4    O21   D    
S5    O26   D    
C16   C18   A    
C23   O7    A    
C9    C11   A    
C22   H14   S    
S7    O31   D    
C10   C12   A    
C43   H6    S    
C42   C50   A    
Cu2   O6    S    
C24   O8    A    
C12   C14   A    
O19   H19   S    
C54   O10   D    
C13   C15   A    
C26   N2    A    
C14   C16   A    
C25   N1    A    
Cu1   O1    S    
S2    O16   S    
O36   H26   S    
S1    O13   S    
C36   S2    S    
C15   C17   A    
S8    O35   D    
S5    O25   D    
C19   C21   A    
C28   N2    A    
C1    C10   S    
C25   H1    S    
C20   C22   A    
C3    C5    A    
C26   H2    S    
C47   C51   A    
C3    C52   A    
S3    O18   D    
C28   H4    S    
C55   H21   S    
C29   C35   A    
C17   C22   A    
S6    O30   S    
C30   C36   A    
C1    O3    A    
C28   C30   A    
Cu1   O8    S    
C29   C31   A    
C30   C32   A    
C35   S1    S    
C38   S4    S    
S2    O14   D    
S8    O34   D    
C23   C39   S    
C42   S6    S    
C36   C38   A    
S4    O20   D    
C24   C40   S    
S6    O29   D    
C19   H11   S    
S5    O27   S    
C8    C18   A    
S7    O32   D    
C53   H15   S    
C48   C52   A    
Cu2   O2    S    
O13   H17   S    
C8    C10   A    
C54   H16   S    
C41   S5    S    
O22   H20   S    
C33   C38   A    
C2    O4    A    
C2    C9    S    
C8    S8    S    
C25   C33   A    
O33   H25   S    
