data_mof_unit_62274.cif
_audit_creation_date              2012-12-10T20:14:18-0500
_audit_creation_method            fapswitch 2.2
_symmetry_space_group_name_H-M    P1
_symmetry_Int_Tables_number       1
_space_group_crystal_system       triclinic
_cell_length_a                    19.287096
_cell_length_b                    18.399224
_cell_length_c                    10.527707
_cell_angle_alpha                 89.473924
_cell_angle_beta                  90.438141
_cell_angle_gamma                 89.990427
_cell_volume                      3735.67530217

loop_
_atom_site_label
_atom_site_type_symbol
_atom_type_description
_atom_site_fract_x
_atom_site_fract_y
_atom_site_fract_z
_atom_type_partial_charge
C1    C     C_R   0.365264 0.500022 0.499825 0.881067
C2    C     C_R   0.634785 0.500094 0.498722 0.876646
C3    C     C_R   0.960999 0.525639 0.552499 0.146954
C4    C     C_R   0.037634 0.469474 0.347989 0.131224
C5    C     C_R   0.033209 0.523598 0.560270 0.119119
C6    C     C_R   0.965045 0.472445 0.339502 0.117453
C7    C     C_R   0.070871 0.494626 0.458617 -0.068100
C8    C     C_R   0.927614 0.499920 0.442544 -0.059025
C9    C     C_R   0.523703 0.724957 0.604333 -0.031504
C10   C     C_R   0.459724 0.274471 0.415077 -0.015067
C11   C     C_R   0.475796 0.726892 0.396987 -0.015704
C12   C     C_R   0.539153 0.274051 0.587152 -0.037995
C13   C     C_R   0.523617 0.801415 0.609369 0.004983
C14   C     C_R   0.457685 0.197920 0.414022 -0.002036
C15   C     C_R   0.473638 0.803414 0.395814 0.000798
C16   C     C_R   0.540327 0.197573 0.590931 0.001604
C17   C     C_R   0.498112 0.841769 0.503506 0.026771
C18   C     C_R   0.499048 0.158239 0.502887 0.034622
C19   C     C_R   0.442796 0.961662 0.555888 -0.214731
C20   C     C_R   0.554795 0.038042 0.453095 -0.223406
C21   C     C_R   0.554666 0.961773 0.453432 -0.166459
C22   C     C_R   0.443138 0.037961 0.556319 -0.202136
C23   C     C_R   0.498938 0.076915 0.504181 0.147358
C24   C     C_R   0.498478 0.922947 0.504076 0.126437
C25   C     C_R   0.503135 0.500297 0.257778 0.898632
C26   C     C_R   0.497818 0.499580 0.742422 0.905743
C27   C     C_3   0.531531 0.561662 0.037090 0.179971
C28   C     C_3   0.470523 0.437468 0.963599 0.183399
C29   C     C_3   0.565904 0.503256 0.955745 0.132425
C30   C     C_3   0.436175 0.496071 0.044667 0.154257
C31   C     C_3   0.464187 0.557113 0.959071 0.189648
C32   C     C_3   0.537932 0.442155 0.041457 0.174916
C33   C     C_3   0.498451 0.498591 0.876282 -0.299203
C34   C     C_3   0.503443 0.500677 0.124062 -0.297527
C35   C     C_R   0.748750 0.435078 0.503314 0.171658
C36   C     C_R   0.252536 0.562267 0.451296 0.159310
C37   C     C_R   0.252268 0.435475 0.526490 0.166931
C38   C     C_R   0.745263 0.564665 0.445258 0.166286
C39   C     C_R   0.819316 0.434457 0.477452 -0.231685
C40   C     C_R   0.180965 0.558812 0.436902 -0.231599
C41   C     C_R   0.180641 0.433921 0.510925 -0.260361
C42   C     C_R   0.816213 0.562597 0.423964 -0.240385
C43   C     C_R   0.852651 0.498107 0.440868 0.177797
C44   C     C_R   0.145773 0.495010 0.465518 0.158329
C45   C     C_R   0.710476 0.500365 0.485280 -0.131012
C46   C     C_R   0.289312 0.499659 0.493943 -0.128663
H1    H     H_    0.849247 0.385363 0.494343 0.132037
H2    H     H_    0.152453 0.606379 0.404501 0.142604
H3    H     H_    0.151809 0.385617 0.537429 0.135070
H4    H     H_    0.843494 0.611981 0.397821 0.133325
H5    H     H_    0.542928 0.693598 0.684566 0.146831
H6    H     H_    0.428813 0.305729 0.347916 0.133922
H7    H     H_    0.457699 0.697025 0.315235 0.144340
H8    H     H_    0.569148 0.304912 0.655031 0.144397
H9    H     H_    0.399164 0.932688 0.596052 0.137204
H10   H     H_    0.598402 0.066937 0.412649 0.130798
H11   H     H_    0.598357 0.932950 0.414056 0.122598
H12   H     H_    0.399790 0.066758 0.597011 0.126248
N1    N     N_R   0.500000 0.689440 0.500000 -0.104289
N2    N     N_R   0.500000 0.310560 0.500000 -0.106960
O1    O     O_R   0.398180 0.560840 0.499970 -0.591419
O2    O     O_R   0.601820 0.439160 0.500030 -0.592698
O3    O     O_R   0.601820 0.560840 0.500030 -0.594080
O4    O     O_R   0.398180 0.439160 0.499970 -0.596606
O5    O     O_R   0.499980 0.560800 0.313940 -0.620777
O6    O     O_R   0.500020 0.439200 0.686060 -0.631224
O7    O     O_R   0.500020 0.560800 0.686060 -0.632129
O8    O     O_R   0.499980 0.439200 0.313940 -0.625812
Zn1   Zn    Zn3+2 0.500000 0.581210 0.500000 0.946462
Zn2   Zn    Zn3+2 0.500000 0.418790 0.500000 0.944125
N3    N     N_2   0.425724 0.618273 0.906833 -0.284815
H13   H     H_    0.393033 0.604897 0.832772 0.227037
C47   C     C_3   0.394094 0.665825 0.998229 -0.802443
H14   H     H_    0.380189 0.718032 0.950930 0.230858
H15   H     H_    0.430245 0.677582 0.077969 0.264446
H16   H     H_    0.346141 0.640677 0.035721 0.256271
N4    N     N_2   0.576776 0.381048 0.093066 -0.278796
H17   H     H_    0.608839 0.394394 0.168049 0.229042
C48   C     C_3   0.609726 0.334648 0.001178 -0.799438
H18   H     H_    0.626773 0.283577 0.048854 0.233067
H19   H     H_    0.655838 0.361907 0.960378 0.260747
H20   H     H_    0.573363 0.320345 0.923315 0.244317
N5    N     N_2   0.564348 0.626853 0.084928 -0.285656
H21   H     H_    0.603332 0.616150 0.149958 0.232371
C49   C     C_3   0.583230 0.680482 0.990071 -0.816901
H22   H     H_    0.536432 0.701391 0.940366 0.272466
H23   H     H_    0.619101 0.657176 0.919469 0.239070
H24   H     H_    0.609508 0.726820 0.036873 0.226624
N6    N     N_2   0.437137 0.371500 0.919951 -0.298782
H25   H     H_    0.461311 0.347710 0.844055 0.242145
C50   C     C_3   0.419312 0.319208 0.017798 -0.809314
H26   H     H_    0.386137 0.276157 0.976120 0.228084
H27   H     H_    0.390241 0.345229 0.095538 0.250262
H28   H     H_    0.466760 0.293458 0.057625 0.263102
N7    N     N_2   0.634116 0.506248 0.899021 -0.302949
H29   H     H_    0.636948 0.540025 0.820577 0.220078
C51   C     C_3   0.692255 0.513990 0.985490 -0.824248
H30   H     H_    0.740790 0.499863 0.935367 0.240809
H31   H     H_    0.687153 0.477262 0.068936 0.249658
H32   H     H_    0.696482 0.570844 0.018586 0.240723
N8    N     N_2   0.367857 0.493704 0.100981 -0.304871
H33   H     H_    0.364916 0.461454 0.181320 0.220959
C52   C     C_3   0.310282 0.483757 0.014204 -0.803832
H34   H     H_    0.261145 0.495974 0.063926 0.243061
H35   H     H_    0.308345 0.426735 0.981264 0.259969
H36   H     H_    0.314422 0.520788 0.930931 0.242530
N9    N     N_2   0.717817 0.370591 0.552757 -0.280582
H37   H     H_    0.739312 0.323372 0.518464 0.217648
C53   C     C_3   0.712734 0.369335 0.689773 -0.788179
H38   H     H_    0.765042 0.373948 0.734039 0.228822
H39   H     H_    0.689089 0.317381 0.721538 0.219161
H40   H     H_    0.679523 0.414584 0.722271 0.265570
N10   N     N_2   0.286343 0.629369 0.424517 -0.278845
H41   H     H_    0.259111 0.674024 0.455553 0.215045
C54   C     C_3   0.307413 0.637830 0.293841 -0.766147
H42   H     H_    0.261906 0.633211 0.228957 0.228975
H43   H     H_    0.346499 0.596078 0.269907 0.271472
H44   H     H_    0.331190 0.692196 0.279889 0.216209
N11   N     N_2   0.286170 0.372669 0.577052 -0.283529
H45   H     H_    0.262544 0.324326 0.553081 0.213282
C55   C     C_3   0.301491 0.376458 0.711521 -0.751628
H46   H     H_    0.252620 0.379179 0.766547 0.219396
H47   H     H_    0.333827 0.424871 0.732775 0.247178
H48   H     H_    0.330707 0.327163 0.741635 0.241657
N12   N     N_2   0.709659 0.631610 0.425180 -0.278037
H49   H     H_    0.724723 0.658708 0.343697 0.209513
C56   C     C_3   0.710060 0.678806 0.534397 -0.754512
H50   H     H_    0.763745 0.697133 0.555992 0.221247
H51   H     H_    0.688613 0.650211 0.618851 0.243169
H52   H     H_    0.677374 0.727243 0.513808 0.226079
N13   N     N_2   0.921118 0.552349 0.655698 -0.283102
H53   H     H_    0.938415 0.601151 0.691208 0.244074
C57   C     C_3   0.907638 0.499479 0.755026 -0.778052
H54   H     H_    0.871181 0.523003 0.824643 0.230257
H55   H     H_    0.956561 0.484599 0.805256 0.243162
H56   H     H_    0.883621 0.449795 0.715082 0.242063
N14   N     N_2   0.077835 0.444360 0.244093 -0.292682
H57   H     H_    0.061270 0.460940 0.155125 0.228025
C58   C     C_3   0.099709 0.369072 0.250713 -0.809486
H58   H     H_    0.156462 0.366163 0.234928 0.251994
H59   H     H_    0.072924 0.337275 0.175754 0.221106
H60   H     H_    0.088021 0.343667 0.344390 0.236646
N15   N     N_2   0.067382 0.547987 0.672733 -0.294395
H61   H     H_    0.108055 0.516215 0.704820 0.232892
C59   C     C_3   0.080872 0.625319 0.679129 -0.827050
H62   H     H_    0.136272 0.636405 0.658414 0.237974
H63   H     H_    0.069516 0.644480 0.776403 0.243630
H64   H     H_    0.048130 0.656682 0.610596 0.234803
N16   N     N_2   0.929145 0.444696 0.231339 -0.295293
H65   H     H_    0.952022 0.400023 0.190697 0.235713
C60   C     C_3   0.908368 0.499037 0.138379 -0.817205
H66   H     H_    0.877298 0.472918 0.062215 0.238830
H67   H     H_    0.954676 0.524891 0.095102 0.230296
H68   H     H_    0.875882 0.541501 0.182571 0.251915
C61   C     C_3   0.550636 0.837391 0.728695 -0.435912
C62   C     C_3   0.629676 0.830313 0.739015 -0.337256
C63   C     C_3   0.657810 0.870263 0.854809 -0.897701
H69   H     H_    0.645863 0.929171 0.847076 0.259342
H70   H     H_    0.634641 0.847989 0.943156 0.260663
H71   H     H_    0.714944 0.863403 0.860495 0.248521
H72   H     H_    0.644420 0.772056 0.747219 0.217225
H73   H     H_    0.653973 0.853530 0.652203 0.223496
H74   H     H_    0.536399 0.895761 0.731744 0.224042
H75   H     H_    0.526005 0.811264 0.812484 0.201562
C64   C     C_3   0.410459 0.161051 0.318700 -0.423660
C65   C     C_3   0.450972 0.132088 0.205083 -0.318854
C66   C     C_3   0.401867 0.101805 0.104209 -0.921006
H76   H     H_    0.370775 0.056444 0.144552 0.264073
H77   H     H_    0.366389 0.145048 0.068447 0.261302
H78   H     H_    0.432068 0.080954 0.023000 0.251408
H79   H     H_    0.482228 0.176554 0.162203 0.222236
H80   H     H_    0.486851 0.088201 0.236285 0.232031
H81   H     H_    0.381235 0.116328 0.365215 0.206103
H82   H     H_    0.370872 0.200405 0.283060 0.193478
C67   C     C_3   0.444735 0.841940 0.279300 -0.427662
C68   C     C_3   0.500098 0.849102 0.176383 -0.332415
C69   C     C_3   0.472521 0.891205 0.061170 -0.906585
H83   H     H_    0.429009 0.861192 0.016027 0.259769
H84   H     H_    0.454368 0.945857 0.089862 0.272866
H85   H     H_    0.514497 0.898352 0.990748 0.255164
H86   H     H_    0.546131 0.878021 0.214865 0.222890
H87   H     H_    0.516582 0.794184 0.145846 0.230976
H88   H     H_    0.399762 0.810880 0.241431 0.188647
H89   H     H_    0.424638 0.896598 0.303599 0.220246
C70   C     C_3   0.584468 0.160437 0.691716 -0.430073
C71   C     C_3   0.542269 0.144587 0.811594 -0.324250
C72   C     C_3   0.587816 0.110449 0.915244 -0.902023
H90   H     H_    0.630584 0.147991 0.941457 0.258719
H91   H     H_    0.556513 0.099273 0.001115 0.252330
H92   H     H_    0.610052 0.058406 0.881900 0.261536
H93   H     H_    0.519720 0.195927 0.847962 0.219231
H94   H     H_    0.499114 0.106740 0.788955 0.227669
H95   H     H_    0.607219 0.109404 0.655287 0.214364
H96   H     H_    0.629101 0.195906 0.716848 0.191076

loop_
_geom_bond_atom_site_label_1
_geom_bond_atom_site_label_2
_ccdc_geom_bond_type
C65   H80   S    
C64   C65   S    
C27   C29   S    
N9    C53   S    
C47   H14   S    
C14   C18   A    
C35   C39   A    
N7    H29   S    
C9    H5    S    
C8    C43   S    
C70   H96   S    
C20   H10   S    
C10   H6    S    
C38   N12   S    
C59   H62   S    
C22   H12   S    
C66   H77   S    
N13   C57   S    
N4    H17   S    
C68   H87   S    
N14   C58   S    
N8    H33   S    
C3    N13   S    
C26   O7    A    
C67   H88   S    
C62   C63   S    
C38   C42   A    
C29   C32   S    
C16   C70   S    
C53   H39   S    
C30   C31   S    
C58   H60   S    
C1    C46   S    
C5    N15   S    
O1    Zn1   S    
N15   H61   S    
C29   C33   S    
O2    Zn2   S    
N15   C59   S    
C60   H68   S    
C71   H93   S    
C9    C13   A    
C13   C61   S    
C38   C45   A    
C51   H31   S    
C32   N4    S    
C6    N16   S    
C11   C15   A    
C63   H69   S    
C12   C16   A    
C54   H43   S    
C57   H56   S    
N9    H37   S    
C31   C33   S    
C36   C46   A    
C28   N6    S    
O4    Zn2   S    
C54   H42   S    
N6    C50   S    
C27   N5    S    
C11   H7    S    
C25   C34   S    
C69   H85   S    
N4    C48   S    
C4    N14   S    
C62   H73   S    
C65   H79   S    
C63   H70   S    
C37   C41   A    
C47   H15   S    
C65   C66   S    
C25   O8    A    
C4    C7    A    
C11   N1    A    
C36   N10   S    
C41   H3    S    
C59   H63   S    
C51   H30   S    
C66   H78   S    
N11   C55   S    
C27   C34   S    
C68   H86   S    
C58   H58   S    
C17   C24   S    
C72   H91   S    
C30   C34   S    
C49   H23   S    
C27   C31   S    
C18   C23   S    
C72   H92   S    
O3    Zn1   S    
C28   C32   S    
C19   C22   A    
C25   O5    A    
C4    C6    A    
C3    C8    A    
C10   C14   A    
C53   H40   S    
N6    H25   S    
C66   H76   S    
C5    C7    A    
C6    C8    A    
C61   H74   S    
C64   H82   S    
C49   H22   S    
C9    N1    A    
C26   O6    A    
C10   N2    A    
C56   H51   S    
C21   H11   S    
C50   H27   S    
C26   C33   S    
N5    H21   S    
C37   N11   S    
C20   C23   A    
N2    Zn2   S    
C42   H4    S    
C60   H66   S    
C54   H44   S    
C52   H35   S    
C7    C44   S    
C14   C64   S    
N12   C56   S    
C55   H46   S    
C55   H48   S    
C16   C18   A    
C68   C69   S    
N5    C49   S    
N1    Zn1   S    
C62   H72   S    
C63   H71   S    
N12   H49   S    
C47   H16   S    
C36   C40   A    
C42   C43   A    
C56   H50   S    
C35   C45   A    
C1    O4    A    
C61   C62   S    
C51   H32   S    
C2    O3    A    
C39   H1    S    
N10   H41   S    
N8    C52   S    
C49   H24   S    
C19   H9    S    
C40   H2    S    
C70   H95   S    
C3    C5    A    
C1    O1    A    
C28   C33   S    
C48   H20   S    
C39   C43   A    
N11   H45   S    
N7    C51   S    
C15   C17   A    
C15   C67   S    
C61   H75   S    
N14   H57   S    
O6    Zn2   S    
C48   H19   S    
C13   C17   A    
N16   C60   S    
C19   C24   A    
C37   C46   A    
C56   H52   S    
C72   H90   S    
C67   C68   S    
N16   H65   S    
C50   H28   S    
C58   H59   S    
C70   C71   S    
C57   H54   S    
O5    Zn1   S    
C30   N8    S    
C28   C30   S    
C41   C44   A    
C69   H84   S    
C52   H36   S    
C60   H67   S    
C71   H94   S    
C55   H47   S    
C35   N9    S    
C2    C45   S    
C29   N7    S    
C48   H18   S    
C12   N2    A    
C2    O2    A    
C40   C44   A    
N3    H13   S    
C20   C21   A    
C59   H64   S    
O8    Zn2   S    
C69   H83   S    
C21   C24   A    
N3    C47   S    
C52   H34   S    
C57   H55   S    
C22   C23   A    
C67   H89   S    
O7    Zn1   S    
C71   C72   S    
C53   H38   S    
C64   H81   S    
C12   H8    S    
C50   H26   S    
N13   H53   S    
C32   C34   S    
C31   N3    S    
N10   C54   S    
