data_mof_unit_36057.cif
_audit_creation_date              2012-12-10T18:46:19-0500
_audit_creation_method            fapswitch 2.2
_symmetry_space_group_name_H-M    P1
_symmetry_Int_Tables_number       1
_space_group_crystal_system       triclinic
_cell_length_a                    10.013579
_cell_length_b                    10.704588
_cell_length_c                    13.094299
_cell_angle_alpha                 92.989163
_cell_angle_beta                  69.362559
_cell_angle_gamma                 88.597947
_cell_volume                      1310.3581247

loop_
_atom_site_label
_atom_site_type_symbol
_atom_type_description
_atom_site_fract_x
_atom_site_fract_y
_atom_site_fract_z
_atom_type_partial_charge
C1    C     C_R   0.502799 0.738769 0.491175 0.889823
C2    C     C_R   0.362364 0.477566 0.823764 -0.183513
C3    C     C_R   0.629191 0.931965 0.478334 -0.209524
C4    C     C_R   0.418948 0.493716 0.704547 0.855879
C5    C     C_R   0.626166 0.060087 0.487122 -0.199834
C6    C     C_R   0.497306 0.127254 0.506971 -0.142574
C7    C     C_R   0.371397 0.065056 0.516801 0.166813
C8    C     C_R   0.384052 0.939974 0.483468 0.186379
C9    C     C_R   0.506497 0.871199 0.479880 -0.147345
C10   C     C_R   0.962704 0.418982 0.430649 0.159840
C11   C     C_R   0.104913 0.416420 0.432368 0.235265
C12   C     C_R   0.432986 0.483642 0.984040 0.010035
C13   C     C_R   0.039342 0.583675 0.566861 0.205087
C14   C     C_R   0.893514 0.573405 0.576719 0.124734
C15   C     C_R   0.498841 0.260453 0.503930 0.890708
C16   C     C_R   0.580434 0.499521 0.295175 0.885412
C17   C     C_R   0.752220 0.326191 0.022471 0.189952
C18   C     C_R   0.631636 0.476011 0.176102 -0.114189
C19   C     C_R   0.223048 0.519365 0.888707 0.173450
C20   C     C_R   0.193017 0.555792 0.997439 -0.195116
C21   C     C_R   0.297357 0.546977 0.044720 0.145251
C22   C     C_3   0.784356 0.622368 0.686983 -0.294606
C23   C     C_R   0.452825 0.432976 0.876827 -0.024309
C24   C     C_3   0.707798 0.747394 0.686294 -0.734863
C25   C     C_3   0.863661 0.219055 0.969760 -0.421569
C26   C     C_3   0.974028 0.194905 0.023646 -0.770389
C27   C     C_3   0.537427 0.235331 0.745268 -0.371444
C28   C     C_3   0.502692 0.106142 0.790363 -0.837894
C29   C     C_R   0.543427 0.457979 0.026330 0.081274
C30   C     C_R   0.652476 0.363300 0.973322 0.070251
C31   C     C_R   0.654437 0.302118 0.875838 -0.246217
C32   C     C_R   0.551952 0.330360 0.830573 0.173017
C33   C     C_R   0.548539 0.522455 0.120197 -0.187684
C34   C     C_R   0.736747 0.382347 0.125472 -0.154398
H1    H     H_    0.799554 0.348164 0.170039 0.192096
H2    H     H_    0.713804 0.549794 0.728759 0.215868
H3    H     H_    0.836338 0.635942 0.748218 0.204989
H4    H     H_    0.027685 0.282272 0.032592 0.279895
H5    H     H_    0.922368 0.155967 0.104419 0.271124
H6    H     H_    0.056855 0.124769 0.971604 0.261823
H7    H     H_    0.807314 0.131135 0.968469 0.214806
H8    H     H_    0.924789 0.238674 0.883800 0.247840
H9    H     H_    0.593653 0.063623 0.808162 0.253578
H10   H     H_    0.406427 0.113762 0.866187 0.276031
H11   H     H_    0.480560 0.042512 0.729070 0.260343
H12   H     H_    0.723386 0.105681 0.481656 0.209041
H13   H     H_    0.448959 0.261942 0.717890 0.197876
H14   H     H_    0.638730 0.227613 0.673696 0.225108
H15   H     H_    0.731442 0.226346 0.835879 0.163689
H16   H     H_    0.486177 0.607562 0.153434 0.182766
H17   H     H_    0.084952 0.588460 0.046500 0.196668
H18   H     H_    0.728055 0.881081 0.468625 0.196610
H19   H     H_    0.771142 0.800714 0.616399 0.260282
H20   H     H_    0.599312 0.733140 0.685190 0.261173
H21   H     H_    0.693644 0.805387 0.762594 0.226320
I1    I     I_    0.159099 0.142529 0.604212 -0.305468
I2    I     I_    0.252116 0.878447 0.395507 -0.224346
I3    I     I_    0.911669 0.285090 0.327366 -0.332821
I4    I     I_    0.261508 0.285336 0.320754 -0.210176
I5    I     I_    0.093447 0.736204 0.656839 -0.272364
I6    I     I_    0.043055 0.493663 0.842767 -0.399433
I7    I     I_    0.204730 0.605422 0.213604 -0.335103
N1    N     N_R   0.142790 0.500030 0.500030 -0.134273
N2    N     N_R   0.857180 0.499940 0.500010 -0.123768
O1    O     O_R   0.385370 0.683250 0.500010 -0.564269
O2    O     O_R   0.614700 0.683220 0.500010 -0.616063
O3    O     O_R   0.328400 0.499990 0.653620 -0.553740
O4    O     O_R   0.557730 0.499960 0.653620 -0.626443
O5    O     O_R   0.385300 0.316780 0.499990 -0.568868
O6    O     O_R   0.614630 0.316750 0.499990 -0.617681
O7    O     O_R   0.442270 0.500040 0.346380 -0.566164
O8    O     O_R   0.671600 0.500010 0.346380 -0.589085
Zn1   Zn    Zn3+2 0.346870 0.500020 0.500000 1.056827
Zn2   Zn    Zn3+2 0.653130 0.499980 0.500000 0.977606

loop_
_geom_bond_atom_site_label_1
_geom_bond_atom_site_label_2
_ccdc_geom_bond_type
C25   H8    S    
C27   H14   S    
C4    O3    A    
C2    C4    S    
C3    H18   S    
N1    Zn1   S    
O5    Zn1   S    
C6    C7    A    
O3    Zn1   S    
C8    I2    S    
C22   H2    S    
C5    H12   S    
C28   H9    S    
C1    O1    A    
C31   C32   A    
C16   O8    A    
C30   C31   A    
C14   N2    A    
C23   C32   A    
C14   C22   S    
C1    O2    A    
C6    C15   S    
O1    Zn1   S    
C7    C8    A    
C13   I5    S    
C13   C14   A    
C24   H21   S    
C17   C30   A    
C18   C34   A    
C12   C23   A    
C26   H6    S    
C21   I7    S    
C29   C30   A    
C16   O7    A    
C7    I1    S    
C31   H15   S    
C3    C9    A    
C22   C24   S    
C27   H13   S    
C25   C26   S    
C19   I6    S    
C20   H17   S    
C11   N1    A    
C5    C6    A    
C15   O5    A    
C18   C33   A    
C11   I4    S    
C28   H11   S    
C10   C11   A    
C27   C32   S    
O4    Zn2   S    
O2    Zn2   S    
C29   C33   A    
C27   C28   S    
C24   H20   S    
C1    C9    S    
C20   C21   A    
C8    C9    A    
O8    Zn2   S    
C34   H1    S    
C17   C34   A    
C25   H7    S    
C2    C23   A    
O7    Zn1   S    
C15   O6    A    
C17   C25   S    
O6    Zn2   S    
C26   H4    S    
N2    Zn2   S    
C33   H16   S    
C10   I3    S    
C24   H19   S    
C2    C19   A    
C22   H3    S    
C4    O4    A    
C12   C21   A    
C28   H10   S    
C16   C18   S    
C10   N2    A    
C19   C20   A    
C26   H5    S    
C3    C5    A    
C12   C29   A    
C13   N1    A    
