data_mof_unit_35755.cif
_audit_creation_date              2012-12-10T18:09:28-0500
_audit_creation_method            fapswitch 2.2
_symmetry_space_group_name_H-M    P1
_symmetry_Int_Tables_number       1
_space_group_crystal_system       triclinic
_cell_length_a                    15.210625
_cell_length_b                    15.340075
_cell_length_c                    9.575198
_cell_angle_alpha                 89.580326
_cell_angle_beta                  90.0
_cell_angle_gamma                 89.999984
_cell_volume                      2234.14139476

loop_
_atom_site_label
_atom_site_type_symbol
_atom_type_description
_atom_site_fract_x
_atom_site_fract_y
_atom_site_fract_z
_atom_type_partial_charge
C1    C     C_R   0.117797 0.377582 0.500162 0.897513
C2    C     C_R   0.117797 0.622418 0.499838 0.897515
C3    C     C_R   0.617798 0.877583 0.500162 0.897512
C4    C     C_R   0.617797 0.122418 0.499838 0.897514
C5    C     C_3   0.091964 0.485439 0.079283 0.684969
C6    C     C_3   0.091962 0.514571 0.920715 0.684970
C7    C     C_3   0.591962 0.985432 0.079284 0.684968
C8    C     C_3   0.591963 0.014564 0.920717 0.684968
C9    C     C_R   0.877904 0.382921 0.500306 0.799070
C10   C     C_R   0.877903 0.617078 0.499694 0.799065
C11   C     C_R   0.377903 0.882921 0.500306 0.799068
C12   C     C_R   0.377903 0.117079 0.499694 0.799069
C13   C     C_3   0.729415 0.344093 0.595644 -0.422939
C14   C     C_3   0.843944 0.229568 0.559651 -0.396309
C15   C     C_3   0.843950 0.770435 0.440374 -0.396315
C16   C     C_3   0.729421 0.655913 0.404336 -0.422939
C17   C     C_3   0.229420 0.844089 0.595660 -0.422942
C18   C     C_3   0.343950 0.729565 0.559630 -0.396318
C19   C     C_3   0.343945 0.270433 0.440352 -0.396308
C20   C     C_3   0.229415 0.155907 0.404354 -0.422935
C21   C     C_3   0.165703 0.765840 0.612682 0.193859
C22   C     C_3   0.277592 0.655083 0.536197 0.220364
C23   C     C_3   0.277588 0.344916 0.463786 0.220358
C24   C     C_3   0.165696 0.234154 0.387331 0.193840
C25   C     C_3   0.665696 0.265846 0.612668 0.193842
C26   C     C_3   0.777588 0.155084 0.536215 0.220358
C27   C     C_3   0.777592 0.844917 0.463806 0.220362
C28   C     C_3   0.665704 0.734161 0.387316 0.193858
C29   C     C_3   0.769950 0.302818 0.351459 -0.350978
C30   C     C_3   0.769939 0.697170 0.648538 -0.350975
C31   C     C_3   0.269941 0.802827 0.351461 -0.350976
C32   C     C_3   0.269949 0.197181 0.648540 -0.350979
C33   C     C_3   0.806955 0.316497 0.501309 0.009052
C34   C     C_3   0.806955 0.683502 0.498691 0.009049
C35   C     C_3   0.306955 0.816498 0.501309 0.009055
C36   C     C_3   0.306955 0.183503 0.498691 0.009050
C37   C     C_3   0.185337 0.694186 0.499969 -0.088654
C38   C     C_3   0.185336 0.305814 0.500031 -0.088643
C39   C     C_3   0.685336 0.194186 0.499969 -0.088644
C40   C     C_3   0.685337 0.805814 0.500031 -0.088654
C41   C     C_3   0.190207 0.741412 0.355599 -0.312554
C42   C     C_3   0.190216 0.258597 0.644406 -0.312549
C43   C     C_3   0.690216 0.241403 0.355594 -0.312551
C44   C     C_3   0.690206 0.758587 0.644399 -0.312553
C45   C     C_3   0.960441 0.580404 0.081175 -0.299776
C46   C     C_3   0.946015 0.571892 0.916166 -0.243355
C47   C     C_3   0.946024 0.428100 0.083835 -0.243360
C48   C     C_3   0.960452 0.419591 0.918825 -0.299782
C49   C     C_3   0.460449 0.080408 0.081175 -0.299779
C50   C     C_3   0.446022 0.071898 0.916165 -0.243359
C51   C     C_3   0.446017 0.928106 0.083834 -0.243354
C52   C     C_3   0.460444 0.919595 0.918825 -0.299774
Cu1   Cu    Cu3+1 0.000100 0.500000 0.642410 1.003044
Cu2   Cu    Cu3+1 0.000100 0.500000 0.357590 1.003041
Cu3   Cu    Cu3+1 0.500100 0.000000 0.642410 1.003041
Cu4   Cu    Cu3+1 0.500100 0.000000 0.357590 1.003044
H1    H     H_    0.695501 0.401318 0.547914 0.218397
H2    H     H_    0.907420 0.214382 0.510849 0.267413
H3    H     H_    0.907420 0.785616 0.489203 0.267416
H4    H     H_    0.695503 0.598684 0.452045 0.218396
H5    H     H_    0.195502 0.901316 0.547943 0.218396
H6    H     H_    0.407422 0.714383 0.510808 0.267412
H7    H     H_    0.407419 0.285618 0.489157 0.267414
H8    H     H_    0.195502 0.098681 0.452080 0.218396
H9    H     H_    0.753053 0.364434 0.700496 0.170763
H10   H     H_    0.857319 0.235907 0.673499 0.161263
H11   H     H_    0.857340 0.764104 0.326528 0.161269
H12   H     H_    0.753068 0.635582 0.299483 0.170764
H13   H     H_    0.253064 0.864424 0.700512 0.170765
H14   H     H_    0.357336 0.735897 0.673477 0.161266
H15   H     H_    0.357322 0.264094 0.326505 0.161264
H16   H     H_    0.253055 0.135568 0.299501 0.170761
H17   H     H_    0.178156 0.737779 0.717153 0.200336
H18   H     H_    0.273229 0.615252 0.633567 0.193026
H19   H     H_    0.273220 0.384743 0.366412 0.193034
H20   H     H_    0.178138 0.262210 0.282854 0.200331
H21   H     H_    0.678139 0.237791 0.717146 0.200331
H22   H     H_    0.773219 0.115257 0.633589 0.193034
H23   H     H_    0.773230 0.884748 0.366436 0.193026
H24   H     H_    0.678156 0.762223 0.282847 0.200337
H25   H     H_    0.749628 0.366189 0.304093 0.167957
H26   H     H_    0.821892 0.274495 0.283513 0.236239
H27   H     H_    0.821877 0.725488 0.716500 0.236229
H28   H     H_    0.749612 0.633795 0.695889 0.167957
H29   H     H_    0.249616 0.866202 0.304106 0.167955
H30   H     H_    0.321880 0.774508 0.283501 0.236233
H31   H     H_    0.321890 0.225501 0.716489 0.236235
H32   H     H_    0.249625 0.133809 0.695903 0.167958
H33   H     H_    0.128832 0.779263 0.337278 0.204622
H34   H     H_    0.196171 0.695465 0.267861 0.268704
H35   H     H_    0.196186 0.304549 0.732136 0.268705
H36   H     H_    0.128841 0.220747 0.662744 0.204625
H37   H     H_    0.628842 0.279254 0.337257 0.204626
H38   H     H_    0.696185 0.195451 0.267864 0.268706
H39   H     H_    0.696170 0.804534 0.732138 0.268701
H40   H     H_    0.628830 0.720737 0.662720 0.204622
H41   H     H_    0.001204 0.638270 0.106285 0.211953
H42   H     H_    0.959258 0.635185 0.863334 0.235192
H43   H     H_    0.959276 0.364810 0.136667 0.235188
H44   H     H_    0.001222 0.361730 0.893716 0.211952
H45   H     H_    0.501217 0.138270 0.106284 0.211952
H46   H     H_    0.459271 0.135189 0.863333 0.235187
H47   H     H_    0.459263 0.864814 0.136667 0.235192
H48   H     H_    0.501208 0.861730 0.893715 0.211952
H49   H     H_    0.895185 0.592682 0.129026 0.181657
H50   H     H_    0.875025 0.559788 0.894751 0.154334
H51   H     H_    0.875032 0.440196 0.105249 0.154337
H52   H     H_    0.895197 0.407304 0.870974 0.181661
H53   H     H_    0.395194 0.092692 0.129026 0.181659
H54   H     H_    0.375030 0.059800 0.894751 0.154336
H55   H     H_    0.375026 0.940207 0.105249 0.154333
H56   H     H_    0.395188 0.907314 0.870974 0.181657
N1    N     N_3   0.001260 0.500000 0.143650 -0.209483
N2    N     N_3   0.001260 0.500000 0.856350 -0.209483
N3    N     N_3   0.501260 1.000000 0.143650 -0.209482
N4    N     N_3   0.501260 1.000000 0.856350 -0.209483
O1    O     O_R   0.091250 0.408820 0.620260 -0.537505
O2    O     O_R   0.091250 0.408820 0.379740 -0.519597
O3    O     O_R   0.091250 0.591180 0.620260 -0.519585
O4    O     O_R   0.091250 0.591180 0.379740 -0.537499
O5    O     O_R   0.591250 0.908820 0.620260 -0.537500
O6    O     O_R   0.591250 0.908820 0.379740 -0.519586
O7    O     O_R   0.591250 0.091180 0.620260 -0.519596
O8    O     O_R   0.591250 0.091180 0.379740 -0.537504
O9    O     O_R   0.908940 0.408800 0.620260 -0.610069
O10   O     O_R   0.908940 0.408800 0.379740 -0.592902
O11   O     O_R   0.908940 0.591200 0.620260 -0.592898
O12   O     O_R   0.908940 0.591200 0.379740 -0.610069
O13   O     O_R   0.408940 0.908800 0.620260 -0.610070
O14   O     O_R   0.408940 0.908800 0.379740 -0.592899
O15   O     O_R   0.408940 0.091200 0.620260 -0.592901
O16   O     O_R   0.408940 0.091200 0.379740 -0.610069
Cl1   Cl    Cl    0.055177 0.803646 0.615118 -0.595057
Cl2   Cl    Cl    0.319367 0.585383 0.402323 -0.438998
Cl3   Cl    Cl    0.319370 0.414622 0.597647 -0.439017
Cl4   Cl    Cl    0.055171 0.196346 0.384924 -0.595082
Cl5   Cl    Cl    0.555170 0.303654 0.615077 -0.595078
Cl6   Cl    Cl    0.819370 0.085378 0.402354 -0.439018
Cl7   Cl    Cl    0.819366 0.914616 0.597682 -0.438998
Cl8   Cl    Cl    0.555177 0.696355 0.384881 -0.595059
Cl9   Cl    Cl    0.181863 0.535675 0.164896 -0.450615
Cl10  Cl    Cl    0.126545 0.627817 0.905883 -0.610897
Cl11  Cl    Cl    0.126562 0.372197 0.094117 -0.610915
Cl12  Cl    Cl    0.181865 0.464343 0.835096 -0.450629
Cl13  Cl    Cl    0.681865 0.035660 0.164903 -0.450630
Cl14  Cl    Cl    0.626558 0.127807 0.905883 -0.610915
Cl15  Cl    Cl    0.626549 0.872186 0.094116 -0.610897
Cl16  Cl    Cl    0.681863 0.964330 0.835102 -0.450610

loop_
_geom_bond_atom_site_label_1
_geom_bond_atom_site_label_2
_ccdc_geom_bond_type
C16   C28   S    
C41   H33   S    
Cu3   Cu4   S    
Cu3   O5    S    
C17   H13   S    
C31   H29   S    
C12   O15   A    
Cu2   O4    S    
C19   H15   S    
C28   Cl8   S    
C52   H56   S    
C13   C25   S    
C14   C33   S    
C18   H14   S    
C7    C8    S    
C13   H9    S    
Cu1   Cu2   S    
C29   H25   S    
Cu2   O10   S    
C26   H22   S    
C22   Cl2   S    
C37   C41   S    
C25   H21   S    
C32   C36   S    
C49   H53   S    
C38   C42   S    
C27   H23   S    
C19   C36   S    
C49   H45   S    
C5    C6    S    
Cu1   O1    S    
C26   C39   S    
C5    Cl11  S    
C13   H1    S    
Cu3   N4    S    
C28   C40   S    
C51   H47   S    
C32   H32   S    
Cu2   N1    S    
C21   H17   S    
C50   H54   S    
C43   H38   S    
C47   H43   S    
C4    O8    A    
C42   H35   S    
C16   H4    S    
C7    N3    S    
C30   H27   S    
C6    N2    S    
Cu1   O11   S    
C16   C34   S    
C15   C27   S    
C20   C24   S    
C14   H2    S    
C19   H7    S    
Cu3   O13   S    
C24   C38   S    
C16   H12   S    
C12   C36   S    
C12   O16   A    
C18   C35   S    
C15   C34   S    
C42   H36   S    
C3    O6    A    
C17   H5    S    
C24   Cl4   S    
C41   H34   S    
C46   H42   S    
C29   C33   S    
C31   H30   S    
C29   C43   S    
C9    C33   S    
C30   C44   S    
C8    Cl16  S    
C10   O12   A    
C11   O13   A    
C21   Cl1   S    
C45   H49   S    
C7    Cl15  S    
C52   N4    S    
C48   H44   S    
Cu3   O7    S    
C30   C34   S    
C51   C52   S    
C46   N2    S    
C24   H20   S    
C39   C43   S    
C45   C46   S    
C32   H31   S    
Cu2   O12   S    
C51   N3    S    
C25   Cl5   S    
C4    O7    A    
Cu4   O6    S    
C20   H8    S    
C19   C23   S    
C13   C33   S    
C44   H40   S    
C5    Cl9   S    
C47   C48   S    
C4    C39   S    
C27   C40   S    
C15   H11   S    
C14   H10   S    
C10   C34   S    
C1    O1    A    
C14   C26   S    
Cu4   O16   S    
Cu1   O9    S    
C1    C38   S    
C49   N3    S    
C3    C40   S    
C50   H46   S    
C47   H51   S    
Cu2   O2    S    
C31   C35   S    
C6    Cl10  S    
C22   H18   S    
C6    Cl12  S    
C10   O11   A    
C11   O14   A    
Cu4   O8    S    
Cu1   N2    S    
C48   N2    S    
C47   N1    S    
C52   H48   S    
C51   H55   S    
C31   C41   S    
C5    N1    S    
C18   C22   S    
C15   H3    S    
C8    Cl14  S    
C23   H19   S    
C26   Cl6   S    
C2    O3    A    
Cu1   O3    S    
C23   C38   S    
Cu3   O15   S    
C9    O10   A    
C23   Cl3   S    
C11   C35   S    
C29   H26   S    
C44   H39   S    
C45   H41   S    
C25   C39   S    
C22   C37   S    
C2    C37   S    
C48   H52   S    
C46   H50   S    
C43   H37   S    
Cu4   N3    S    
C50   N4    S    
C1    O2    A    
C30   H28   S    
C28   H24   S    
C27   Cl7   S    
C8    N4    S    
C20   C36   S    
C9    O9    A    
C45   N1    S    
C40   C44   S    
C21   C37   S    
C49   C50   S    
C32   C42   S    
C20   H16   S    
C18   H6    S    
C17   C35   S    
C2    O4    A    
Cu4   O14   S    
C3    O5    A    
C7    Cl13  S    
C17   C21   S    
