data_mof_unit_41457.cif
_audit_creation_date              2012-10-26T19:15:26-0400
_audit_creation_method            fapswitch 2.2
_symmetry_space_group_name_H-M    P1
_symmetry_Int_Tables_number       1
_space_group_crystal_system       triclinic
_cell_length_a                    15.966277
_cell_length_b                    10.882192
_cell_length_c                    9.555309
_cell_angle_alpha                 90.632612
_cell_angle_beta                  89.376465
_cell_angle_gamma                 90.881452
_cell_volume                      1659.82377637

loop_
_atom_site_label
_atom_site_type_symbol
_atom_type_description
_atom_site_fract_x
_atom_site_fract_y
_atom_site_fract_z
_atom_type_partial_charge
C1    C     C_R   0.496392 0.262531 0.498880 0.559837
C2    C     C_R   0.479019 0.933365 0.369822 0.235744
C3    C     C_R   0.492218 0.871272 0.497782 -0.013246
C4    C     C_R   0.341294 0.499923 0.500576 0.543217
C5    C     C_R   0.488198 0.940010 0.622131 -0.016722
C6    C     C_3   0.539948 0.945722 0.752929 0.158544
C7    C     C_3   0.525659 0.084215 0.753693 -0.208569
C8    C     C_R   0.572297 0.519600 0.072129 0.169674
C9    C     C_R   0.431546 0.462067 0.076426 -0.008497
C10   C     C_R   0.430346 0.463071 0.926975 0.361252
C11   C     C_R   0.572824 0.515409 0.925568 0.124951
C12   C     C_R   0.042119 0.466436 0.621431 -0.109746
C13   C     C_3   0.635491 0.616870 0.913964 0.159654
C14   C     C_3   0.629442 0.629626 0.073937 0.166616
C15   C     C_R   0.499738 0.737915 0.500143 0.559405
C16   C     C_R   0.658699 0.499660 0.499371 0.548334
C17   C     C_R   0.954725 0.465669 0.620222 -0.115418
C18   C     C_R   0.912628 0.497156 0.498269 0.028862
C19   C     C_R   0.957849 0.528892 0.377334 -0.110511
C20   C     C_R   0.045240 0.529544 0.378501 -0.109531
C21   C     C_R   0.087326 0.498474 0.500593 0.039385
C22   C     C_3   0.287738 0.472908 0.898338 -0.123725
C23   C     C_1   0.823057 0.497613 0.497616 -0.059712
C24   C     C_3   0.766309 0.662373 0.820805 -0.094448
C25   C     C_3   0.734680 0.709186 0.213417 -0.108438
C26   C     C_3   0.555930 0.121856 0.174631 -0.079596
C27   C     C_3   0.386893 0.854098 0.212792 -0.096229
C28   C     C_3   0.672754 0.943145 0.845823 -0.149486
C29   C     C_1   0.176903 0.499144 0.501597 -0.074970
C30   C     C_1   0.252065 0.499600 0.501672 -0.038918
C31   C     C_1   0.747908 0.498434 0.497951 0.003207
C32   C     C_R   0.479648 0.065390 0.620622 -0.069858
C33   C     C_R   0.485677 0.129600 0.495458 -0.025829
C34   C     C_R   0.481267 0.062641 0.367678 0.252339
Cu1   Cu    Cu3+1 0.500000 0.499980 0.640670 1.009172
Cu2   Cu    Cu3+1 0.500000 0.500020 0.359330 0.986211
H1    H     H_    0.377601 0.428882 0.134397 0.142416
H2    H     H_    0.826817 0.621781 0.788381 0.132154
H3    H     H_    0.610692 0.694331 0.852656 0.111454
H4    H     H_    0.691838 0.732519 0.302080 0.136374
H5    H     H_    0.742036 0.789058 0.142393 0.078074
H6    H     H_    0.797024 0.689938 0.257412 0.130442
H7    H     H_    0.595604 0.713572 0.110210 0.090648
H8    H     H_    0.920072 0.440689 0.714060 0.120114
H9    H     H_    0.079927 0.554216 0.284574 0.101250
H10   H     H_    0.605923 0.158598 0.244707 0.115743
H11   H     H_    0.554076 0.182509 0.082177 0.130435
H12   H     H_    0.925659 0.553045 0.282515 0.117450
H13   H     H_    0.572144 0.028313 0.136421 0.134447
H14   H     H_    0.356643 0.943959 0.195122 0.145723
H15   H     H_    0.352910 0.802582 0.296575 0.110656
H16   H     H_    0.381618 0.799198 0.114652 0.119388
H17   H     H_    0.510274 0.895055 0.841723 0.110754
H18   H     H_    0.651925 0.886724 0.936254 0.084572
H19   H     H_    0.671348 0.041844 0.876224 0.112060
H20   H     H_    0.739132 0.922711 0.821820 0.127066
H21   H     H_    0.483558 0.114967 0.840191 0.125842
H22   H     H_    0.074365 0.442146 0.716180 0.099831
H23   H     H_    0.582923 0.142136 0.738499 0.161180
H24   H     H_    0.239722 0.454946 0.817325 0.145107
H25   H     H_    0.296314 0.574563 0.907171 0.093939
H26   H     H_    0.262598 0.434596 0.997743 0.094850
H27   H     H_    0.779724 0.729177 0.906561 0.111712
H28   H     H_    0.740297 0.708653 0.728000 0.137864
N1    N     N_R   0.500520 0.500930 0.147930 -0.291168
N2    N     N_R   0.500520 0.500890 0.852020 -0.264204
O1    O     O_R   0.500000 0.319640 0.618810 -0.488849
O2    O     O_3   0.712386 0.567415 0.866769 -0.511910
O3    O     O_3   0.705551 0.603517 0.141175 -0.510817
O4    O     O_3   0.476384 0.122382 0.240770 -0.539214
O5    O     O_3   0.472496 0.869785 0.244114 -0.563007
O6    O     O_3   0.624616 0.916774 0.725433 -0.565829
O7    O     O_R   0.500010 0.319680 0.381230 -0.459489
O8    O     O_R   0.380300 0.499950 0.618760 -0.442453
O9    O     O_R   0.380310 0.499990 0.381180 -0.525711
O10   O     O_R   0.499990 0.680320 0.618770 -0.515398
O11   O     O_R   0.500000 0.680360 0.381190 -0.465127
O12   O     O_R   0.619690 0.500010 0.618820 -0.474653
O13   O     O_R   0.619700 0.500050 0.381240 -0.472013
O14   O     O_3   0.362193 0.413298 0.856927 -0.524661

loop_
_geom_bond_atom_site_label_1
_geom_bond_atom_site_label_2
_ccdc_geom_bond_type
Cu1   O8    S    
C19   C20   A    
C28   H20   S    
C1    C33   S    
C16   C31   S    
C6    O6    S    
Cu2   O11   S    
C25   H4    S    
C22   H24   S    
C5    C6    S    
C18   C19   A    
C4    O9    A    
Cu1   Cu2   S    
C12   C17   A    
C24   H2    S    
C9    C10   A    
C34   O4    S    
C4    O8    A    
C20   H9    S    
C27   H14   S    
C5    C32   A    
C12   H22   S    
C2    C34   A    
C15   O10   A    
C8    N1    A    
C24   H28   S    
C13   C14   S    
C28   O6    S    
C7    H23   S    
C28   H19   S    
C27   H15   S    
C17   C18   A    
C10   N2    A    
Cu1   O10   S    
C18   C23   S    
C26   H13   S    
C25   H5    S    
C28   H18   S    
C19   H12   S    
Cu1   N2    S    
C21   C29   S    
C12   C21   A    
C27   O5    S    
C23   C31   T    
C29   C30   T    
Cu2   O9    S    
C22   H26   S    
Cu1   O1    S    
C9    H1    S    
C33   C34   A    
C26   H11   S    
C24   H27   S    
C26   O4    S    
C14   O3    S    
C8    C14   S    
C25   O3    S    
C6    H17   S    
C2    O5    S    
C3    C15   S    
C27   H16   S    
C10   O14   S    
C7    C32   S    
Cu2   N1    S    
C3    C5    A    
Cu2   O13   S    
C25   H6    S    
C11   N2    A    
C6    C7    S    
Cu1   O12   S    
C16   O13   A    
C1    O7    A    
C32   C33   A    
C2    C3    A    
C17   H8    S    
C22   O14   S    
C22   H25   S    
C11   C13   S    
C15   O11   A    
C8    C11   A    
C1    O1    A    
C16   O12   A    
C9    N1    A    
C13   H3    S    
Cu2   O7    S    
C24   O2    S    
C20   C21   A    
C26   H10   S    
C7    H21   S    
C4    C30   S    
C14   H7    S    
C13   O2    S    
