data_mof_unit_19615.cif
_audit_creation_date              2012-12-11T20:03:42-0500
_audit_creation_method            fapswitch 2.2
_symmetry_space_group_name_H-M    P1
_symmetry_Int_Tables_number       1
_space_group_crystal_system       triclinic
_cell_length_a                    8.340722
_cell_length_b                    16.133177
_cell_length_c                    19.077742
_cell_angle_alpha                 112.284094
_cell_angle_beta                  91.749177
_cell_angle_gamma                 83.217726
_cell_volume                      2358.51150919

loop_
_atom_site_label
_atom_site_type_symbol
_atom_type_description
_atom_site_fract_x
_atom_site_fract_y
_atom_site_fract_z
_atom_type_partial_charge
Ba1   Ba    Ba6+2 0.334020 0.539200 0.472300 1.664790
Ba2   Ba    Ba6+2 0.855780 0.460880 0.527720 1.652715
C1    C     C_3   0.070710 0.885481 0.402502 -0.282543
C2    C     C_R   0.505041 0.532739 0.732565 0.055394
C3    C     C_R   0.390698 0.421711 0.796545 -0.165077
C4    C     C_3   0.539012 0.761162 0.323160 0.822853
C5    C     C_R   0.320284 0.429049 0.731313 0.003557
C6    C     C_R   0.796911 0.576876 0.202648 -0.145155
C7    C     C_R   0.862944 0.575134 0.270351 0.042534
C8    C     C_R   0.662418 0.447937 0.190358 -0.164066
C9    C     C_R   0.687326 0.466890 0.268543 0.042785
C10   C     C_R   0.489554 0.486734 0.842826 0.001316
C11   C     C_R   0.390219 0.476332 0.695529 -0.241717
C12   C     C_3   0.037845 0.790263 0.391587 0.329470
C13   C     C_R   0.704299 0.508257 0.156534 -0.015426
C14   C     C_R   0.796266 0.526951 0.306481 -0.226711
C15   C     C_R   0.287629 0.442123 0.950603 -0.088269
C16   C     C_3   0.448510 0.689544 0.264995 -0.263184
C17   C     C_R   0.200386 0.407399 0.991723 -0.087496
C18   C     C_R   0.244372 0.419714 0.064804 -0.030683
C19   C     C_R   0.380943 0.461354 0.094278 -0.056784
C20   C     C_R   0.493943 0.476440 0.047703 0.016842
C21   C     C_R   0.443141 0.469004 0.972602 0.040392
C22   C     C_R   0.649311 0.502247 0.076112 -0.003782
C23   C     C_3   0.012684 0.277790 0.274943 0.266161
C24   C     C_R   0.749898 0.523177 0.026613 0.047569
C25   C     C_R   0.699606 0.514310 0.951395 0.020672
C26   C     C_R   0.543953 0.490015 0.923059 -0.007934
C27   C     C_R   0.905108 0.551107 0.048563 -0.062886
C28   C     C_3   0.626231 0.741826 0.668240 0.313182
C29   C     C_R   0.991794 0.584895 0.006392 -0.040857
C30   C     C_R   0.948676 0.569592 0.932604 -0.058216
C31   C     C_R   0.813361 0.526243 0.904019 -0.083478
C32   C     C_2   0.388560 0.241060 0.493339 -0.294762
C33   C     C_R   0.799049 0.754229 0.522490 -0.317211
C34   C     C_3   0.949464 0.206782 0.204317 -0.258344
C35   C     C_2   0.228890 0.117981 0.422558 -0.120996
C36   C     C_2   0.251658 0.205030 0.444572 0.024119
C37   C     C_2   0.512329 0.184865 0.502408 -0.038925
C38   C     C_3   0.509978 0.084362 0.461236 0.039827
C39   C     C_3   0.337686 0.056822 0.450358 0.037623
C40   C     C_3   0.603042 0.844162 0.706438 -0.372772
C41   C     C_2   0.625303 0.029484 0.493018 -0.009465
C42   C     C_2   0.579351 0.971269 0.520947 -0.075759
C43   C     C_R   0.839683 0.937126 0.575427 -0.021865
C44   C     C_R   0.699893 0.906748 0.536129 -0.021499
C45   C     C_3   0.674064 0.269449 0.687654 0.354926
C46   C     C_R   0.956392 0.876815 0.589852 -0.148130
C47   C     C_R   0.934824 0.785518 0.563654 0.050730
C48   C     C_R   0.679214 0.814524 0.510128 0.015844
C49   C     C_3   0.509578 0.244938 0.287718 0.741534
C50   C     C_3   0.581012 0.182957 0.327044 -0.308554
C51   C     C_3   0.143733 0.663317 0.707006 0.309607
C52   C     C_3   0.151778 0.690033 0.792439 -0.376999
C53   C     C_1   0.076724 0.344734 0.252634 0.255433
C54   C     C_3   0.712711 0.241203 0.754473 -0.366843
C55   C     C_3   0.154963 0.224531 0.643796 0.364297
C56   C     C_3   0.149558 0.135828 0.654049 -0.364264
C57   C     C_R   0.535620 0.547576 0.809897 -0.147209
H1    H     H_    0.121710 0.767067 0.428379 0.083443
H2    H     H_    0.068208 0.606951 0.684020 0.085392
H3    H     H_    0.096583 0.924320 0.463058 0.058172
H4    H     H_    0.234365 0.742800 0.816908 0.134946
H5    H     H_    0.196950 0.630559 0.806124 0.060305
H6    H     H_    0.029453 0.716393 0.818294 0.134011
H7    H     H_    0.911040 0.792615 0.408344 -0.010666
H8    H     H_    0.964858 0.921745 0.385782 0.155776
H9    H     H_    0.910920 0.312671 0.314989 0.031914
H10   H     H_    0.898218 0.155845 0.220198 0.158508
H11   H     H_    0.854554 0.238267 0.177013 0.077303
H12   H     H_    0.676693 0.866261 0.758415 0.132903
H13   H     H_    0.048586 0.171721 0.162278 0.180675
H14   H     H_    0.175528 0.883340 0.367143 0.198466
H15   H     H_    0.507865 0.663961 0.208560 0.086077
H16   H     H_    0.706988 0.339016 0.702550 0.069300
H17   H     H_    0.542383 0.268365 0.677189 -0.059503
H18   H     H_    0.646408 0.289768 0.806023 0.072096
H19   H     H_    0.676221 0.172911 0.741809 0.112172
H20   H     H_    0.844172 0.239760 0.765927 0.153832
H21   H     H_    0.284141 0.233966 0.640968 -0.079567
H22   H     H_    0.096383 0.219729 0.589476 0.079856
H23   H     H_    0.640934 0.875201 0.667917 0.060438
H24   H     H_    0.214579 0.079752 0.606151 0.060682
H25   H     H_    0.022783 0.121830 0.655404 0.153533
H26   H     H_    0.657220 0.730057 0.335425 -0.203857
H27   H     H_    0.208642 0.138902 0.707859 0.110994
H28   H     H_    0.601457 0.603486 0.842139 0.080861
H29   H     H_    0.362450 0.366488 0.811035 0.070935
H30   H     H_    0.822054 0.631385 0.186490 0.128661
H31   H     H_    0.602313 0.389555 0.158132 0.092981
H32   H     H_    0.347168 0.473843 0.640763 0.059350
H33   H     H_    0.835263 0.532935 0.362645 0.065308
H34   H     H_    0.473740 0.868040 0.721971 0.129408
H35   H     H_    0.223249 0.452369 0.904684 0.078981
H36   H     H_    0.086939 0.381653 0.970547 0.081088
H37   H     H_    0.165447 0.403359 0.100365 0.114358
H38   H     H_    0.393485 0.482499 0.154259 0.127527
H39   H     H_    0.969253 0.542772 0.095366 0.072992
H40   H     H_    0.104500 0.611761 0.027343 0.094097
H41   H     H_    0.027114 0.584701 0.895951 0.092390
H42   H     H_    0.799500 0.500837 0.844217 0.129088
H43   H     H_    0.130808 0.091087 0.385227 0.112146
H44   H     H_    0.061402 0.901458 0.622332 0.094223
H45   H     H_    0.403682 0.288177 0.320837 -0.039843
H46   H     H_    0.394057 0.313344 0.516404 0.073149
H47   H     H_    0.782857 0.683470 0.503252 0.069511
H48   H     H_    0.753213 0.031834 0.485929 0.103180
H49   H     H_    0.443867 0.632527 0.283876 0.088128
H50   H     H_    0.452710 0.964679 0.525577 0.095990
H51   H     H_    0.324975 0.719010 0.257853 0.172799
H52   H     H_    0.755535 0.719172 0.653455 0.009779
H53   H     H_    0.552119 0.721397 0.616311 0.060059
H54   H     H_    0.620717 0.145692 0.100386 0.350138
H55   H     H_    0.437954 0.954935 0.267762 0.380961
H56   H     H_    0.680665 0.133477 0.291785 0.153759
H57   H     H_    0.486398 0.144602 0.335878 0.068673
H58   H     H_    0.631778 0.223952 0.382743 0.063744
H59   H     H_    0.267048 0.640878 0.682450 0.004343
N1    N     N_1   0.126481 0.396955 0.233738 -0.250005
O1    O     O_2   0.405910 0.437000 0.315050 -0.458846
O2    O     O_2   0.840744 0.188731 0.487745 -0.482030
O3    O     O_3   0.763595 0.208902 0.624017 -0.600505
O4    O     O_3   0.650250 0.445090 0.405140 -0.485404
O5    O     O_3   0.024090 0.610190 0.555810 -0.498577
O6    O     O_2   0.949630 0.279650 0.426400 -0.452578
O7    O     O_3   0.137531 0.234525 0.304703 -0.607210
O8    O     O_2   0.990508 0.470944 0.751924 -0.506729
O9    O     O_3   0.072533 0.295420 0.704538 -0.592201
O10   O     O_3   0.110870 0.602570 0.387980 -0.482139
O11   O     O_2   0.187335 0.566428 0.247415 -0.497419
O12   O     O_3   0.076861 0.738177 0.691357 -0.628735
O13   O     O_3   0.631371 0.293850 0.280902 -0.684107
O14   O     O_3   0.061708 0.733197 0.315319 -0.585807
O15   O     O_2   0.240060 0.720390 0.573650 -0.453732
O16   O     O_3   0.508300 0.651290 0.432440 -0.494233
O17   O     O_2   0.355409 0.812084 0.518419 -0.500413
O18   O     O_2   0.347500 0.108138 0.196513 -0.264167
O19   O     O_2   0.361077 0.236093 0.157975 -0.342302
O20   O     O_3   0.618476 0.121989 0.141335 -0.506773
O21   O     O_2   0.691515 0.904133 0.335024 -0.340568
O22   O     O_2   0.656586 0.794795 0.206858 -0.288388
O23   O     O_3   0.439181 0.805610 0.387799 -0.626561
O24   O     O_3   0.404603 0.902657 0.276796 -0.511017
O25   O     O_2   0.783780 0.563030 0.685000 -0.468149
O26   O     O_3   0.539430 0.554980 0.594880 -0.496497
O27   O     O_3   0.078810 0.397510 0.612040 -0.472358
O28   O     O_3   0.577347 0.706305 0.719381 -0.630057
O29   O     O_3   0.165590 0.389880 0.444220 -0.480802
O30   O     O_3   0.681380 0.348790 0.567580 -0.477875
P1    P     P_3+3 0.586140 0.411610 0.321630 0.978577
P2    P     P_3+3 0.070040 0.709050 0.593050 0.976320
P3    P     P_3+3 0.497537 0.769232 0.461541 0.925418
P4    P     P_3+3 0.603540 0.588460 0.678390 0.979473
P5    P     P_3+3 0.698940 0.232592 0.544883 0.952776
P6    P     P_3+3 0.052921 0.621436 0.306065 0.954875
P7    P     P_3+3 0.129970 0.276382 0.403935 0.961827
P8    P     P_3+3 0.117783 0.397022 0.701348 0.932802
S1    S     S_3+6 0.452376 0.176891 0.193960 -0.057647
S2    S     S_3+6 0.578890 0.841935 0.284005 -0.060510

loop_
_geom_bond_atom_site_label_1
_geom_bond_atom_site_label_2
_ccdc_geom_bond_type
C38   C39   S    
C40   H34   S    
O13   P1    S    
O12   P2    S    
C17   C18   A    
C40   H23   S    
C36   P7    S    
C23   O7    S    
C55   O9    S    
C4    S2    S    
C54   H19   S    
C28   O28   S    
O27   P8    S    
C53   N1    T    
C51   C52   S    
C25   C31   A    
Ba2   O26   S    
C24   C25   A    
C15   C21   A    
C54   H20   S    
O18   S1    D    
C10   C26   S    
C31   H42   S    
C7    C14   A    
C22   C24   A    
C45   H17   S    
Ba1   O10   S    
C8    C13   A    
O21   S2    D    
C35   H43   S    
C43   C46   A    
C52   H4    S    
Ba2   O29   S    
O16   P3    S    
C2    C11   A    
Ba2   O25   S    
Ba1   Ba2   S    
O23   P3    S    
O25   P4    D    
C3    H29   S    
C51   H2    S    
C32   C37   D    
O22   S2    D    
C38   C41   S    
O20   S1    S    
C42   C44   S    
C6    C7    A    
C33   C47   A    
O10   P6    S    
H54   O20   S    
O11   P6    D    
C51   O12   S    
C29   H40   S    
C4    O23   S    
O8    P8    D    
O6    P7    D    
O26   P4    S    
C42   H50   S    
Ba2   O30   S    
C2    P4    S    
C18   H37   S    
O4    P1    S    
C16   H15   S    
C32   C36   S    
C19   C20   A    
C11   H32   S    
O3    P5    S    
C55   H21   S    
C23   H9    S    
O28   P4    S    
C56   H27   S    
O17   P3    D    
C34   H11   S    
O9    P8    S    
C57   H28   S    
C50   H57   S    
C4    C16   S    
C50   H56   S    
O2    P5    D    
C47   P2    S    
C37   P5    S    
C49   C50   S    
C16   H51   S    
C3    C10   A    
C37   C38   S    
C52   H6    S    
C51   H59   S    
C45   O3    S    
C15   H35   S    
C49   H45   S    
Ba2   O4    S    
C46   H44   S    
C54   H18   S    
C30   H41   S    
C28   H53   S    
Ba1   O1    S    
O30   P5    S    
Ba1   O4    S    
C35   C36   D    
C56   H25   S    
C19   H38   S    
C9    C14   A    
O19   S1    D    
C9    P1    S    
C29   C30   A    
C33   C48   A    
C12   H7    S    
Ba1   P1    S    
C41   H48   S    
C21   C26   A    
C4    H26   S    
C7    P6    S    
C1    C12   S    
C27   H39   S    
C13   C22   S    
O5    P2    S    
C14   H33   S    
C6    C13   A    
C41   C42   D    
C20   C22   A    
C43   C44   A    
Ba2   O27   S    
Ba1   O26   S    
Ba1   O15   S    
C17   H36   S    
C34   H10   S    
C3    C5    A    
C1    H3    S    
C46   C47   A    
O14   P6    S    
C32   H46   S    
C1    H8    S    
C23   C53   S    
C49   O13   S    
O24   S2    S    
C5    P8    S    
C12   O14   S    
Ba2   O5    S    
Ba2   P4    S    
C12   H1    S    
C44   C48   A    
C49   S1    S    
O1    P1    D    
C28   H52   S    
H55   O24   S    
Ba1   O5    S    
C45   H16   S    
C27   C29   A    
C33   H47   S    
C56   H24   S    
C30   C31   A    
C55   C56   S    
C52   H5    S    
O15   P2    D    
C2    C57   A    
C40   H12   S    
C15   C17   A    
Ba1   P2    S    
C55   H22   S    
C10   C57   A    
C35   C39   S    
C1    H14   S    
C16   H49   S    
C8    C9    A    
C23   C34   S    
Ba2   O6    S    
C48   P3    S    
C5    C11   A    
C18   C19   A    
C8    H31   S    
C24   C27   A    
C50   H58   S    
C25   C26   A    
C20   C21   A    
C28   C40   S    
Ba1   O29   S    
C6    H30   S    
O29   P7    S    
Ba1   O16   S    
C34   H13   S    
C45   C54   S    
O7    P7    S    
