data_mof_unit_34240.cif
_audit_creation_date              2012-12-11T14:22:58-0500
_audit_creation_method            fapswitch 2.2
_symmetry_space_group_name_H-M    P1
_symmetry_Int_Tables_number       1
_space_group_crystal_system       triclinic
_cell_length_a                    11.009448
_cell_length_b                    11.078153
_cell_length_c                    18.883135
_cell_angle_alpha                 90.611985
_cell_angle_beta                  90.408905
_cell_angle_gamma                 59.558252
_cell_volume                      1985.46178555

loop_
_atom_site_label
_atom_site_type_symbol
_atom_type_description
_atom_site_fract_x
_atom_site_fract_y
_atom_site_fract_z
_atom_type_partial_charge
C1    C     C_R   0.286755 0.623450 0.615902 0.550657
C2    C     C_3   0.721136 0.521491 0.799328 -0.250268
C3    C     C_3   0.695752 0.669293 0.814628 0.019009
C4    C     C_3   0.665889 0.641872 0.678900 0.050016
C5    C     C_3   0.787151 0.673578 0.691349 0.159540
C6    C     C_3   0.684568 0.512810 0.721686 -0.235174
C7    C     C_R   0.708070 0.114173 0.815015 0.001592
C8    C     C_R   0.805533 0.140797 0.779834 -0.012484
C9    C     C_R   0.806083 0.142263 0.704351 0.024300
C10   C     C_R   0.617616 0.092252 0.700425 -0.160267
C11   C     C_R   0.624605 0.078981 0.773108 -0.146991
C12   C     C_R   0.650746 0.617669 0.603132 0.584335
C13   C     C_R   0.906758 0.158627 0.816685 -0.093097
C14   C     C_R   0.024249 0.145068 0.781665 -0.001919
C15   C     C_R   0.032072 0.132413 0.707961 -0.198515
C16   C     C_R   0.921923 0.135848 0.669313 -0.118740
C17   C     C_R   0.693924 0.142369 0.666635 0.009056
C18   C     C_R   0.193201 0.667868 0.838701 -0.005298
C19   C     C_R   0.248847 0.534366 0.809067 0.010952
C20   C     C_R   0.268340 0.516442 0.734461 0.028213
C21   C     C_R   0.206589 0.760354 0.725800 -0.170091
C22   C     C_R   0.179875 0.777434 0.797138 -0.157608
C23   C     C_R   0.633455 0.222495 0.600782 0.532175
C24   C     C_R   0.283115 0.418881 0.852537 -0.079291
C25   C     C_R   0.312827 0.292646 0.822919 -0.090239
C26   C     C_R   0.312002 0.278973 0.749943 -0.159653
C27   C     C_R   0.299805 0.385180 0.706524 -0.102991
C28   C     C_R   0.249716 0.632138 0.692169 0.010012
C29   C     C_R   0.700274 0.680203 0.178531 0.006115
C30   C     C_R   0.813616 0.573521 0.219507 0.019670
C31   C     C_R   0.784363 0.526864 0.281994 0.038846
C32   C     C_R   0.535077 0.706482 0.269819 -0.164095
C33   C     C_R   0.561963 0.740297 0.203206 -0.136701
C34   C     C_R   0.223422 0.647070 0.401554 0.543235
C35   C     C_R   0.956762 0.506180 0.198989 -0.086626
C36   C     C_R   0.064575 0.399084 0.236791 -0.110986
C37   C     C_R   0.035896 0.347540 0.294787 -0.141063
C38   C     C_R   0.897927 0.402128 0.313297 -0.089127
C39   C     C_R   0.645288 0.606692 0.311289 -0.000848
C40   C     C_R   0.624506 0.174757 0.172828 -0.013101
C41   C     C_R   0.535385 0.144595 0.215733 -0.007718
C42   C     C_R   0.566740 0.125230 0.288721 0.015382
C43   C     C_R   0.688370 0.254420 0.275927 -0.149029
C44   C     C_R   0.694195 0.236489 0.203539 -0.149919
C45   C     C_R   0.619036 0.588320 0.385504 0.553273
C46   C     C_R   0.419085 0.131026 0.190644 0.038329
C47   C     C_R   0.362762 0.070200 0.234795 -0.126308
C48   C     C_R   0.413735 0.028914 0.302971 -0.154532
C49   C     C_R   0.515738 0.054907 0.329794 -0.082356
C50   C     C_R   0.637561 0.188749 0.319647 0.008319
C51   C     C_R   0.139927 0.694304 0.186555 0.006651
C52   C     C_R   0.093742 0.813257 0.232949 0.035577
C53   C     C_R   0.082475 0.794521 0.305076 0.019129
C54   C     C_R   0.233032 0.543837 0.286280 -0.144835
C55   C     C_R   0.217569 0.561067 0.213722 -0.180593
C56   C     C_R   0.615498 0.231524 0.394023 0.522199
C57   C     C_R   0.068519 0.947132 0.212371 -0.079013
C58   C     C_R   0.014380 0.058439 0.259913 -0.151572
C59   C     C_R   0.982734 0.041078 0.328754 -0.122189
C60   C     C_R   0.011207 0.910984 0.350654 -0.081609
C61   C     C_R   0.164278 0.660613 0.331964 0.011554
C62   C     C_R   0.708596 0.087878 0.892165 0.527269
C63   C     C_R   0.720062 0.685506 0.889916 0.547582
C64   C     C_R   0.120030 0.705944 0.906900 0.528289
C65   C     C_R   0.670685 0.109475 0.103154 0.530340
C66   C     C_R   0.727727 0.711234 0.106641 0.537990
C67   C     C_3   0.542527 0.776692 0.790624 -0.257001
C68   C     C_R   0.091901 0.713217 0.113276 0.526612
C69   C     C_3   0.529779 0.770155 0.709505 -0.285772
C70   C     C_3   0.804956 0.689398 0.771496 -0.189750
Cr1   Cr    Cr6+3 0.392940 0.397950 0.502230 1.001758
Cr2   Cr    Cr6+3 0.398400 0.708500 0.501260 0.996757
Cr3   Cr    Cr6+3 0.708640 0.393530 0.496460 0.979576
Cr4   Cr    Cr6+3 0.937880 0.938320 0.007620 1.052284
Cr5   Cr    Cr6+3 0.625560 0.937220 0.994510 1.057032
Cr6   Cr    Cr6+3 0.938080 0.625010 0.001190 1.043151
H1    H     H_    0.509569 0.884680 0.807020 0.128691
H2    H     H_    0.762948 0.411001 0.699365 0.145935
H3    H     H_    0.914167 0.616045 0.789371 0.156773
H4    H     H_    0.543720 0.073775 0.671089 0.118433
H5    H     H_    0.900472 0.176477 0.872991 0.189434
H6    H     H_    0.559576 0.044394 0.796874 0.130139
H7    H     H_    0.124114 0.118827 0.680282 0.085818
H8    H     H_    0.933366 0.123343 0.612457 0.143546
H9    H     H_    0.191762 0.850355 0.696794 0.149851
H10   H     H_    0.467575 0.751384 0.816396 0.139019
H11   H     H_    0.286302 0.425510 0.909666 0.135419
H12   H     H_    0.141191 0.880372 0.819233 0.170932
H13   H     H_    0.337298 0.205443 0.856933 0.169906
H14   H     H_    0.328341 0.182623 0.726328 0.077657
H15   H     H_    0.305707 0.362171 0.651516 0.179166
H16   H     H_    0.427729 0.758314 0.289124 0.133181
H17   H     H_    0.991148 0.528761 0.153217 0.192920
H18   H     H_    0.474423 0.813811 0.170918 0.154470
H19   H     H_    0.171055 0.352452 0.220111 0.127204
H20   H     H_    0.119108 0.258522 0.322419 0.117223
H21   H     H_    0.436696 0.761088 0.696753 0.144656
H22   H     H_    0.887020 0.338008 0.351558 0.142073
H23   H     H_    0.725098 0.318567 0.298053 0.122770
H24   H     H_    0.752590 0.270666 0.171717 0.138568
H25   H     H_    0.275549 0.058284 0.217288 0.147466
H26   H     H_    0.368876 0.982889 0.336491 0.129374
H27   H     H_    0.550442 0.024695 0.383854 0.141801
H28   H     H_    0.303139 0.439665 0.306397 0.154068
H29   H     H_    0.100482 0.968066 0.162392 0.171827
H30   H     H_    0.267818 0.471659 0.178562 0.094439
H31   H     H_    0.510828 0.869520 0.685522 0.097571
H32   H     H_    0.994663 0.158392 0.241798 0.130178
H33   H     H_    0.940161 0.125883 0.366457 0.119222
H34   H     H_    0.990119 0.898983 0.405323 0.126718
H35   H     H_    0.788555 0.795369 0.782543 0.099178
H36   H     H_    0.747306 0.780095 0.669355 0.137681
H37   H     H_    0.833240 0.441898 0.809424 0.156589
H38   H     H_    0.655298 0.497764 0.834516 0.122067
H39   H     H_    0.584251 0.511102 0.719702 0.113465
O1    O     O_R   0.507340 0.255690 0.581430 -0.545523
O2    O     O_R   0.524510 0.695820 0.424050 -0.492811
O3    O     O_R   0.736370 0.504260 0.414810 -0.528248
O4    O     O_R   0.691220 0.277270 0.422180 -0.540365
O5    O     O_3   0.499990 0.499990 0.499980 -0.281791
O6    O     O_R   0.089570 0.825450 0.930590 -0.506086
O7    O     O_R   0.818700 0.054260 0.929860 -0.508774
O8    O     O_R   0.606310 0.077010 0.915520 -0.531598
O9    O     O_R   0.646730 0.806540 0.917560 -0.505067
O10   O     O_R   0.837290 0.593240 0.915240 -0.503178
O11   O     O_R   0.065320 0.635310 0.931580 -0.506398
O12   O     O_R   0.280360 0.527380 0.578910 -0.500816
O13   O     O_R   0.068470 0.828620 0.091850 -0.526528
O14   O     O_R   0.799150 0.057200 0.079350 -0.490617
O15   O     O_R   0.585220 0.080180 0.076770 -0.528569
O16   O     O_R   0.627170 0.809480 0.067050 -0.481636
O17   O     O_R   0.816200 0.596410 0.076500 -0.521130
O18   O     O_R   0.045770 0.638240 0.081070 -0.544505
O19   O     O_3   0.833840 0.833520 0.001110 -0.279248
O20   O     O_R   0.260600 0.739610 0.584580 -0.526201
O21   O     O_R   0.532370 0.695050 0.573830 -0.525448
O22   O     O_R   0.744850 0.503430 0.576380 -0.502533
O23   O     O_R   0.699080 0.276500 0.571950 -0.522972
O24   O     O_R   0.498860 0.256520 0.419860 -0.524169
O25   O     O_R   0.272490 0.528150 0.429140 -0.497082
O26   O     O_R   0.252110 0.740440 0.423010 -0.527340
O27   O     O_3   0.914675 0.590645 0.653013 -0.550261
C71   C     C_3   0.988894 0.447215 0.670150 -0.074384
H40   H     H_    0.940014 0.390247 0.648380 0.148367
H41   H     H_    0.011725 0.426506 0.727298 0.118548
H42   H     H_    0.088971 0.398398 0.640933 0.128606
C72   C     C_2   0.147080 0.124365 0.822909 0.191722
H43   H     H_    0.249620 0.074602 0.798063 0.076579
O28   O     O_2   0.136615 0.156210 0.885632 -0.504607
C73   C     C_2   0.337005 0.201791 0.125563 0.243815
H44   H     H_    0.350921 0.281293 0.100083 0.108189
O29   O     O_2   0.252602 0.172757 0.100015 -0.512776

loop_
_geom_bond_atom_site_label_1
_geom_bond_atom_site_label_2
_ccdc_geom_bond_type
C45   O3    A    
C71   H42   S    
C57   H29   S    
C34   O26   A    
C8    C13   A    
C47   H25   S    
C29   C33   A    
Cr6   O11   S    
C41   C42   A    
C23   O23   A    
C35   C36   A    
C67   H1    S    
C38   H22   S    
C33   H18   S    
C65   O15   A    
C69   H31   S    
Cr5   O19   S    
C7    C8    A    
C7    C11   A    
C26   C27   A    
C17   C23   S    
Cr1   O5    S    
Cr5   O8    S    
C54   H28   S    
C36   C37   A    
C72   O28   D    
C9    C16   A    
C43   H23   S    
C30   C31   A    
C2    H37   S    
Cr3   O4    S    
C71   H40   S    
Cr2   O21   S    
Cr3   O23   S    
C10   C17   A    
C64   O6    A    
C13   H5    S    
C16   H8    S    
C18   C19   A    
C32   C39   A    
C62   O8    A    
C72   H43   S    
C23   O1    A    
C54   C55   A    
C53   C61   A    
Cr4   O13   S    
C19   C20   A    
C8    C9    A    
Cr2   O2    S    
C1    C28   S    
C41   C46   A    
C27   H15   S    
C22   H12   S    
C4    C12   S    
C68   O13   A    
C58   H32   S    
Cr5   O15   S    
C39   C45   S    
C68   O18   A    
C59   C60   A    
Cr3   O5    S    
C13   C14   A    
Cr6   O10   S    
Cr1   O12   S    
C2    C6    S    
C4    C69   S    
C53   C60   A    
Cr5   O16   S    
C63   O9    A    
C66   O17   A    
C35   H17   S    
C11   H6    S    
Cr2   O26   S    
C21   H9    S    
C54   C61   A    
C55   H30   S    
Cr5   O9    S    
C3    C70   S    
C60   H34   S    
C24   C25   A    
C4    C6    S    
C10   C11   A    
C56   O24   A    
Cr6   O19   S    
C44   H24   S    
Cr2   O20   S    
C15   H7    S    
C20   C28   A    
C58   C59   A    
C14   C72   S    
C34   C61   S    
C50   C56   S    
C51   C52   A    
C37   H20   S    
C67   C69   S    
C37   C38   A    
C43   C44   A    
C7    C62   S    
C29   C30   A    
C47   C48   A    
C14   C15   A    
C48   H26   S    
Cr2   O5    S    
C63   O10   A    
C42   C50   A    
C30   C35   A    
C9    C17   A    
C40   C41   A    
C46   C73   S    
C21   C28   A    
C64   O11   A    
C40   C65   S    
C56   O4    A    
C73   O29   D    
C62   O7    A    
C52   C53   A    
C66   O16   A    
C45   O2    A    
C71   H41   S    
C46   C47   A    
C48   C49   A    
C67   H10   S    
C10   H4    S    
Cr3   O3    S    
Cr4   O7    S    
C70   H3    S    
C18   C22   A    
C12   O22   A    
C3    C67   S    
C1    O12   A    
C4    C5    S    
C5    C70   S    
C49   H27   S    
C65   O14   A    
Cr6   O18   S    
C43   C50   A    
Cr1   O24   S    
Cr1   O25   S    
C20   C27   A    
C3    C63   S    
C26   H14   S    
C5    H36   S    
C25   H13   S    
C70   H35   S    
C31   C38   A    
C32   C33   A    
C19   C24   A    
C25   C26   A    
C1    O20   A    
Cr6   O17   S    
C2    H38   S    
C36   H19   S    
C18   C64   S    
C5    O27   S    
C32   H16   S    
Cr3   O22   S    
Cr4   O19   S    
C34   O25   A    
C59   H33   S    
C31   C39   A    
Cr1   O1    S    
C2    C3    S    
C51   C55   A    
C51   C68   S    
C24   H11   S    
C6    H39   S    
C6    H2    S    
C52   C57   A    
C42   C49   A    
C29   C66   S    
C40   C44   A    
Cr4   O6    S    
C12   O21   A    
Cr4   O14   S    
O27   C71   S    
C73   H44   S    
C57   C58   A    
C21   C22   A    
C15   C16   A    
C69   H21   S    
