data_mof_unit_16578.cif
_audit_creation_date              2013-03-05T15:46:45-0500
_audit_creation_method            fapswitch 2.2
_symmetry_space_group_name_H-M    P1
_symmetry_Int_Tables_number       1
_space_group_crystal_system       triclinic
_cell_length_a                    10.339371
_cell_length_b                    10.639369
_cell_length_c                    12.397468
_cell_angle_alpha                 92.392347
_cell_angle_beta                  110.498161
_cell_angle_gamma                 95.159612
_cell_volume                      1268.32388334

loop_
_atom_site_label
_atom_site_type_symbol
_atom_site_description
_atom_site_fract_x
_atom_site_fract_y
_atom_site_fract_z
_atom_type_partial_charge
O1    O     O_R   0.936910 0.692950 0.509080 -0.650753
O2    O     O_R   0.138320 0.658600 0.480130 -0.540443
C1    C     C_R   0.048552 0.732777 0.489341 0.855404
O3    O     O_R   0.002900 0.525670 0.675280 -0.609568
O4    O     O_R   0.204310 0.491320 0.646330 -0.554990
C2    C     C_R   0.132252 0.502853 0.714036 0.971931
Zn1   Zn    Zn3+2 0.865520 0.522940 0.519330 1.032223
Zn2   Zn    Zn3+2 0.134480 0.477060 0.480670 1.033890
O5    O     O_R   0.861680 0.341400 0.519870 -0.552896
O6    O     O_R   0.063090 0.307050 0.490920 -0.603702
O7    O     O_R   0.795690 0.508680 0.353670 -0.585272
O8    O     O_R   0.997100 0.474330 0.324720 -0.612189
C3    C     C_R   0.944502 0.267008 0.499072 0.885303
C4    C     C_R   0.866162 0.490201 0.286469 0.881860
C5    C     C_R   0.704294 0.286049 0.018201 -0.152614
H1    H     H_    0.896312 0.294333 0.159183 0.180868
H2    H     H_    0.723621 0.198203 0.982804 0.202524
C6    C     C_R   0.787865 0.457295 0.165732 -0.155871
C7    C     C_R   0.136412 0.531749 0.915503 0.327324
C8    C     C_R   0.223346 0.575189 0.029312 0.330084
C9    C     C_R   0.366878 0.560108 0.067244 0.198967
C10   C     C_R   0.419941 0.489274 0.993355 -0.095460
C11   C     C_R   0.324588 0.439913 0.884355 -0.124536
C12   C     C_R   0.556043 0.451152 0.026254 -0.040465
C13   C     C_R   0.577679 0.337865 0.971686 -0.051760
C14   C     C_R   0.471711 0.276260 0.874540 0.228652
C15   C     C_R   0.344786 0.326019 0.832361 0.289127
C16   C     C_R   0.673078 0.520514 0.110556 0.472667
C17   C     C_R   0.806337 0.343027 0.117163 -0.279605
C18   C     C_R   0.199881 0.493356 0.839290 -0.207399
H3    H     H_    0.032482 0.103266 0.387362 0.183117
H4    H     H_    0.849398 0.875820 0.413793 0.214995
C19   C     C_2   0.066459 0.865188 0.468790 0.130262
C20   C     C_2   0.952255 0.925229 0.431286 -0.224870
C21   C     C_2   0.905056 0.132113 0.485548 0.149918
C22   C     C_2   0.962733 0.060634 0.427412 -0.199884
N1    N     N_2   0.313640 0.446500 0.454900 -0.198153
C23   C     C_2   0.434371 0.507341 0.516628 0.312272
N2    N     N_2   0.686360 0.553430 0.545150 0.022815
C24   C     C_2   0.572324 0.473201 0.508588 0.560184
H5    H     H_    0.311514 0.373494 0.397476 0.154596
Br1   Br    Br    0.784219 0.065343 0.561802 -0.447789
Br2   Br    Br    0.251270 0.948519 0.502817 -0.388201
O9    O     O_3   0.583489 0.346216 0.486478 -0.596118
C25   C     C_3   0.540359 0.313218 0.366242 0.094871
H6    H     H_    0.632147 0.316375 0.339534 0.185190
H7    H     H_    0.467376 0.375069 0.312247 0.140235
C26   C     C_3   0.466918 0.178781 0.338191 -0.743796
H8    H     H_    0.378754 0.169209 0.369847 0.270174
H9    H     H_    0.426316 0.155772 0.243200 0.198483
H10   H     H_    0.539927 0.109891 0.378753 0.302194
Br3   Br    Br    0.437314 0.636963 0.630607 -0.424421
O10   O     O_3   0.663888 0.675963 0.556530 -0.521967
C27   C     C_3   0.780362 0.743111 0.644165 0.251590
H11   H     H_    0.829350 0.814444 0.604294 0.202795
H12   H     H_    0.860045 0.683279 0.692230 0.136931
C28   C     C_3   0.736271 0.817294 0.730980 -0.774475
H13   H     H_    0.700851 0.752837 0.785319 0.237235
H14   H     H_    0.826149 0.882293 0.788985 0.215541
H15   H     H_    0.651435 0.874301 0.685484 0.341991
Br4   Br    Br    0.498054 0.123530 0.797438 -0.404767
O11   O     O_3   0.677686 0.647255 0.144150 -0.578978
C29   C     C_3   0.679275 0.722311 0.053305 0.076455
H16   H     H_    0.583676 0.698766 0.975484 0.166416
H17   H     H_    0.772341 0.710451 0.030275 0.111240
C30   C     C_3   0.686371 0.860895 0.092701 -0.754594
H18   H     H_    0.782350 0.888622 0.169049 0.243720
H19   H     H_    0.687696 0.921102 0.021936 0.221663
H20   H     H_    0.594402 0.876625 0.116105 0.269658
O12   O     O_3   0.000567 0.477257 0.888686 -0.554632
C31   C     C_3   0.912827 0.557194 0.914613 0.130602
H21   H     H_    0.931825 0.655939 0.893369 0.097854
H22   H     H_    0.923918 0.554324 0.006663 0.203816
C32   C     C_3   0.764305 0.504714 0.842719 -0.761118
H23   H     H_    0.748739 0.401645 0.849910 0.294653
H24   H     H_    0.688828 0.552598 0.869964 0.186475
H25   H     H_    0.743845 0.517377 0.751031 0.257677
Br5   Br    Br    0.464498 0.604831 0.230482 -0.461779
O13   O     O_3   0.166499 0.615966 0.108374 -0.588570
C33   C     C_3   0.172893 0.749437 0.112574 0.082688
H26   H     H_    0.110574 0.781983 0.027791 0.104348
H27   H     H_    0.281778 0.794561 0.137562 0.189874
C34   C     C_3   0.114831 0.794480 0.202481 -0.735167
H28   H     H_    0.178290 0.765577 0.288261 0.302113
H29   H     H_    0.117798 0.899214 0.206674 0.210201
H30   H     H_    0.005847 0.751808 0.180203 0.228095
Br6   Br    Br    0.187419 0.212493 0.736003 -0.396961

loop_
_geom_bond_atom_site_label_1
_geom_bond_atom_site_label_2
_geom_bond_distance
_ccdc_geom_bond_type
C30   H19   1.110820 S    
C29   H17   1.111122 S    
C4    C6    1.440511 S    
C7    C8    1.412424 A    
O10   C27   1.416033 S    
Zn1   O7    1.917821 S    
C14   C15   1.394044 A    
O11   C29   1.411407 S    
C32   H24   1.106508 S    
C14   Br4   1.939229 S    
C3    C21   1.442560 S    
C33   C34   1.519291 S    
O4    C2    1.311686 A    
O7    C4    1.304178 A    
C28   H14   1.110763 S    
C30   H20   1.110953 S    
C23   Br3   1.923326 S    
C1    C19   1.449107 S    
C5    H2    1.080185 S    
C21   Br1   1.919107 S    
O5    C3    1.298353 A    
C26   H10   1.106492 S    
C21   C22   1.338008 D    
C32   H25   1.097498 S    
C9    Br5   1.934763 S    
O12   C31   1.403488 S    
C11   C15   1.414942 A    
C26   H9    1.110967 S    
C30   H18   1.110810 S    
C29   C30   1.520936 S    
C9    C10   1.441106 A    
O3    Zn1   1.954733 S    
C5    C17   1.379195 A    
C25   H7    1.105839 S    
C27   H12   1.105100 S    
C32   H23   1.105819 S    
C19   Br2   1.927376 S    
C11   C18   1.397079 A    
C6    C16   1.393659 A    
C12   C13   1.430681 A    
C33   H27   1.113547 S    
N2    C24   1.317816 D    
C31   H22   1.108275 S    
C28   H15   1.110468 S    
H1    C17   1.083990 S    
C25   H6    1.107565 S    
C29   H16   1.112637 S    
O1    C1    1.300140 A    
H4    C20   1.087550 S    
N1    C23   1.306576 D    
C31   C32   1.519859 S    
C34   H28   1.109461 S    
Zn2   O8    1.954733 S    
C19   C20   1.339594 D    
C6    C17   1.392208 A    
C15   Br6   1.923049 S    
O3    C2    1.302521 A    
C26   H8    1.110191 S    
C34   H29   1.110505 S    
O8    C4    1.297843 A    
C10   C12   1.423236 A    
Zn2   N1    2.037967 S    
O9    C25   1.416572 S    
C25   C26   1.523660 S    
Zn1   O5    1.928647 S    
C27   H11   1.101992 S    
C8    O13   1.381386 S    
C2    C18   1.475057 S    
O1    Zn1   1.917674 S    
C10   C11   1.410120 A    
O2    Zn2   1.928645 S    
C12   C16   1.410830 A    
C33   H26   1.111784 S    
O6    C3    1.300584 A    
O4    Zn2   1.917821 S    
O2    C1    1.302223 A    
C13   C14   1.400468 A    
C31   H21   1.110800 S    
C23   C24   1.538202 S    
C28   H13   1.106536 S    
N2    O10   1.354825 S    
C20   C22   1.439022 S    
N1    H5    1.024901 S    
C5    C13   1.406376 A    
O13   C33   1.413558 S    
C24   O9    1.390350 S    
C34   H30   1.109816 S    
C8    C9    1.417611 A    
Zn2   O6    1.917676 S    
Zn1   N2    2.038083 S    
H3    C22   1.087692 S    
C7    O12   1.389186 S    
C7    C18   1.393005 A    
C27   C28   1.525314 S    
C16   O11   1.386256 S    
