data_mof_unit_5686.cif
_audit_creation_date              2013-03-05T15:46:21-0500
_audit_creation_method            fapswitch 2.2
_symmetry_space_group_name_H-M    P1
_symmetry_Int_Tables_number       1
_space_group_crystal_system       triclinic
_cell_length_a                    10.07296
_cell_length_b                    10.595073
_cell_length_c                    10.824026
_cell_angle_alpha                 90.713239
_cell_angle_beta                  95.396609
_cell_angle_gamma                 84.900533
_cell_volume                      1145.49850797

loop_
_atom_site_label
_atom_site_type_symbol
_atom_site_description
_atom_site_fract_x
_atom_site_fract_y
_atom_site_fract_z
_atom_type_partial_charge
O1    O     O_R   0.568950 0.489660 0.307530 -0.612320
O2    O     O_R   0.348880 0.522640 0.340350 -0.602754
C1    C     C_R   0.443803 0.504808 0.267479 0.967391
O3    O     O_R   0.610060 0.300270 0.483590 -0.615809
O4    O     O_R   0.389990 0.333260 0.516410 -0.612672
C2    C     C_R   0.499375 0.260333 0.514321 0.866859
Zn1   Zn    Zn3+2 0.646940 0.477980 0.478090 0.986241
Zn2   Zn    Zn3+2 0.353060 0.522020 0.521910 0.970348
O5    O     O_R   0.651120 0.477360 0.659650 -0.599139
O6    O     O_R   0.431050 0.510340 0.692470 -0.627711
O7    O     O_R   0.610010 0.666740 0.483590 -0.575946
O8    O     O_R   0.389940 0.699730 0.516410 -0.596674
C3    C     C_R   0.555712 0.488492 0.732439 0.922760
C4    C     C_R   0.510227 0.737627 0.525178 0.876000
C5    C     C_R   0.729623 0.136949 0.663652 -0.135263
H1    H     H_    0.714109 0.237239 0.682181 0.155479
C6    C     C_R   0.851572 0.076550 0.707532 -0.146379
H2    H     H_    0.929160 0.130150 0.752720 0.155658
C7    C     C_R   0.873937 0.947343 0.692557 -0.181454
H3    H     H_    0.970939 0.901843 0.725203 0.166533
C8    C     C_R   0.773225 0.876139 0.637538 -0.090512
C9    C     C_R   0.642701 0.934010 0.599230 0.006699
C10   C     C_R   0.626744 0.068208 0.605391 0.106365
C11   C     C_R   0.503094 0.131392 0.561144 -0.191858
C12   C     C_R   0.387031 0.071272 0.576008 -0.069545
C13   C     C_R   0.400608 0.941034 0.593928 -0.033895
C14   C     C_R   0.522416 0.870675 0.569692 -0.213310
H4    H     H_    0.381255 0.467807 0.893225 0.193607
H5    H     H_    0.611546 0.433685 0.104835 0.188122
C15   C     C_2   0.411218 0.496504 0.135328 -0.357699
C16   C     C_2   0.509437 0.459112 0.065281 -0.146852
H6    H     H_    0.689722 0.465818 0.904422 0.164465
C17   C     C_2   0.586390 0.470682 0.864024 -0.349002
C18   C     C_2   0.484852 0.462786 0.933181 -0.151291
H7    H     H_    0.309412 0.522047 0.095286 0.158583
H8    H     H_    0.924500 0.470687 0.627922 0.191259
N1    N     N_2   0.157290 0.551390 0.551110 -0.204481
C19   C     C_2   0.078785 0.474493 0.493859 0.028349
H9    H     H_    0.863502 0.446173 0.357491 0.171019
N2    N     N_2   0.842740 0.448550 0.448960 -0.172036
C20   C     C_2   0.942276 0.460215 0.531230 -0.057336
H10   H     H_    0.122568 0.599250 0.626782 0.194451
C21   C     C_1   0.257052 0.140165 0.583736 0.224486
N3    N     N_1   0.152676 0.193077 0.591687 -0.234292
C22   C     C_1   0.122469 0.399446 0.390565 0.276450
N4    N     N_1   0.155708 0.338383 0.307617 -0.221796
C23   C     C_2   0.818151 0.745585 0.615386 0.938444
O9    O     O_2   0.818222 0.667944 0.697513 -0.626780
O10   O     O_R   0.872702 0.712699 0.504280 -0.790409
H11   H     H_    0.869953 0.786585 0.445184 0.307417
C24   C     C_1   0.296431 0.882888 0.651304 0.237787
N5    N     N_1   0.214848 0.835786 0.697993 -0.237558

loop_
_geom_bond_atom_site_label_1
_geom_bond_atom_site_label_2
_geom_bond_distance
_ccdc_geom_bond_type
O1    C1    1.290651 A    
O4    Zn2   2.002642 S    
Zn1   N2    2.022809 S    
C3    C17   1.439867 S    
N1    C19   1.297266 D    
C4    C14   1.495687 S    
C1    C15   1.440560 S    
C7    H3    1.080525 S    
Zn2   O8    1.953962 S    
C2    C11   1.459172 S    
H6    C17   1.087500 S    
C12   C21   1.450231 S    
C5    C10   1.414869 A    
C6    H2    1.082876 S    
H8    C20   1.081003 S    
C16   C18   1.428425 S    
H4    C18   1.088411 S    
H5    C16   1.088378 S    
O1    Zn1   1.938123 S    
C13   C24   1.453766 S    
Zn1   O7    2.002643 S    
C13   C14   1.422340 A    
O4    C2    1.290137 A    
C15   H7    1.087522 S    
O3    Zn1   1.953962 S    
C5    C6    1.379168 A    
O3    C2    1.299951 A    
N2    C20   1.290293 D    
C6    C7    1.377530 A    
O8    C4    1.304696 A    
C17   C18   1.331996 D    
O2    C1    1.295419 A    
C9    C14   1.444609 A    
C21   N3    1.156776 T    
C15   C16   1.332126 D    
O7    C4    1.311277 A    
Zn2   N1    2.022658 S    
C10   C11   1.405844 A    
C5    H1    1.079263 S    
C23   O9    1.218570 D    
C22   N4    1.157738 T    
N1    H10   1.030710 S    
C11   C12   1.403115 A    
C19   C20   1.490104 S    
C23   O10   1.396234 S    
O10   H11   1.013908 S    
H9    N2    1.030522 S    
Zn1   O5    1.961777 S    
O5    C3    1.295459 A    
C9    C10   1.418064 A    
C19   C22   1.443645 S    
C7    C8    1.401482 A    
C12   C13   1.388711 A    
C8    C9    1.427219 A    
Zn2   O6    1.938124 S    
O2    Zn2   1.961777 S    
C24   N5    1.156316 T    
C8    C23   1.441000 S    
O6    C3    1.290811 A    
