data_mof_unit_66011.cif
_audit_creation_date              2012-12-10T20:28:28-0500
_audit_creation_method            fapswitch 2.2
_symmetry_space_group_name_H-M    P1
_symmetry_Int_Tables_number       1
_space_group_crystal_system       triclinic
_cell_length_a                    25.985214
_cell_length_b                    36.314856
_cell_length_c                    22.361234
_cell_angle_alpha                 90.044652
_cell_angle_beta                  125.745276
_cell_angle_gamma                 89.925737
_cell_volume                      17126.1568232

loop_
_atom_site_label
_atom_site_type_symbol
_atom_type_description
_atom_site_fract_x
_atom_site_fract_y
_atom_site_fract_z
_atom_type_partial_charge
C1    C     C_R   0.140325 0.249946 0.000292 0.877870
C2    C     C_R   0.135279 0.828178 0.906078 -0.246054
C3    C     C_R   0.695723 0.771796 0.459181 -0.221428
C4    C     C_R   0.190143 0.733758 0.459173 -0.224300
C5    C     C_R   0.810703 0.264867 0.540899 -0.217285
C6    C     C_R   0.804277 0.728204 0.540819 -0.221465
C7    C     C_R   0.209213 0.279111 0.459178 -0.229782
C8    C     C_1   0.671926 0.251065 0.343195 0.041468
C9    C     C_1   0.327827 0.749214 0.656798 0.035072
C10   C     C_1   0.329285 0.251268 0.656790 0.053046
C11   C     C_1   0.672872 0.749840 0.343219 0.037113
C12   C     C_1   0.172173 0.750786 0.343202 0.035059
C13   C     C_R   0.277193 0.232700 0.184234 -0.075634
C14   C     C_1   0.826713 0.250369 0.656801 0.042184
C15   C     C_1   0.827128 0.750160 0.656781 0.037100
C16   C     C_1   0.170717 0.248733 0.343210 0.053337
C17   C     C_1   0.860918 0.250145 0.723168 -0.067328
C18   C     C_1   0.138571 0.750303 0.276832 -0.070002
C19   C     C_1   0.137898 0.249397 0.276848 -0.073588
C20   C     C_1   0.861088 0.750028 0.723149 -0.066513
C21   C     C_1   0.361428 0.749697 0.723168 -0.069992
C22   C     C_1   0.638441 0.250410 0.276829 -0.067245
C23   C     C_1   0.638912 0.749972 0.276851 -0.066499
C24   C     C_R   0.859205 0.831143 0.085688 -0.243075
C25   C     C_1   0.362103 0.250603 0.723151 -0.073825
C26   C     C_R   0.954912 0.980444 0.934069 -0.107097
C27   C     C_R   0.047058 0.019409 0.063889 -0.130776
C28   C     C_R   0.045285 0.980472 0.064829 -0.084389
C29   C     C_R   0.956404 0.019394 0.933309 -0.091921
C30   C     C_R   0.452962 0.480591 0.936105 -0.130726
C31   C     C_R   0.545073 0.519555 0.065947 -0.107025
C32   C     C_R   0.543580 0.480604 0.066704 -0.092117
C33   C     C_R   0.454736 0.519527 0.935167 -0.084371
C34   C     C_R   0.998935 0.961236 0.000088 -0.031377
C35   C     C_R   0.364712 0.671815 0.093909 -0.246056
C36   C     C_R   0.002616 0.038650 0.998094 -0.019962
C37   C     C_R   0.497386 0.461349 0.001908 -0.019956
C38   C     C_R   0.501069 0.538763 0.999920 -0.031350
C39   C     C_1   0.999466 0.921401 0.000011 0.075880
C40   C     C_1   0.001321 0.078515 0.998656 0.085119
C41   C     C_1   0.498680 0.421484 0.001346 0.085126
C42   C     C_1   0.500537 0.578598 0.999995 0.075874
C43   C     C_1   0.000442 0.111652 0.999298 -0.071039
C44   C     C_1   0.999807 0.888282 0.999977 -0.090320
C45   C     C_1   0.500194 0.611718 0.000026 -0.090328
C46   C     C_R   0.626377 0.321768 0.889135 -0.238626
C47   C     C_1   0.499558 0.388348 0.000702 -0.070657
C48   C     C_R   0.000025 0.151033 0.000099 0.827843
C49   C     C_R   0.999973 0.848943 0.999934 0.816021
C50   C     C_R   0.500027 0.651057 0.000066 0.816020
C51   C     C_R   0.499975 0.348966 0.999901 0.828355
C52   C     C_R   0.000018 0.348905 0.000067 0.831420
C53   C     C_R   0.999968 0.651098 0.999933 0.856372
C54   C     C_R   0.500032 0.848902 0.000067 0.856370
C55   C     C_R   0.499982 0.151095 0.999933 0.830883
C56   C     C_R   0.047273 0.519508 0.000320 -0.084318
C57   C     C_R   0.640810 0.668846 0.914331 -0.243083
C58   C     C_R   0.952487 0.480512 0.999836 -0.084945
C59   C     C_R   0.950647 0.519440 0.996294 -0.083916
C60   C     C_R   0.049150 0.480589 0.003938 -0.085555
C61   C     C_R   0.547500 0.019488 0.000138 -0.084914
C62   C     C_R   0.452739 0.980492 0.999703 -0.084311
C63   C     C_R   0.450860 0.019411 0.996085 -0.085534
C64   C     C_R   0.549341 0.980560 0.003682 -0.083877
C65   C     C_R   0.998028 0.538717 0.996499 -0.034041
C66   C     C_R   0.001738 0.461301 0.003648 -0.034170
C67   C     C_R   0.498260 0.038699 0.996351 -0.034154
C68   C     C_R   0.222804 0.267297 0.815765 -0.075712
C69   C     C_R   0.501972 0.961283 0.003501 -0.034026
C70   C     C_1   0.998703 0.578581 0.998063 0.052449
C71   C     C_1   0.001076 0.421433 0.001976 0.052257
C72   C     C_1   0.498923 0.078567 0.998023 0.052205
C73   C     C_1   0.501297 0.921419 0.001937 0.052469
C74   C     C_1   0.000534 0.388290 0.000788 -0.052710
C75   C     C_1   0.999338 0.611720 0.999191 -0.051629
C76   C     C_1   0.500662 0.888280 0.000809 -0.051598
C77   C     C_1   0.499465 0.111710 0.999211 -0.052674
C78   C     C_R   0.911276 0.146654 0.134438 -0.174404
C79   C     C_R   0.824343 0.183339 0.036186 0.127953
C80   C     C_R   0.103565 0.861736 0.890285 -0.179673
C81   C     C_R   0.286880 0.238597 0.251775 -0.148002
C82   C     C_R   0.887390 0.865609 0.097670 -0.168724
C83   C     C_R   0.396419 0.638256 0.109695 -0.179679
C84   C     C_R   0.588735 0.353351 0.865568 -0.174373
C85   C     C_R   0.612635 0.634376 0.902363 -0.168708
C86   C     C_R   0.213120 0.261399 0.748226 -0.147197
C87   C     C_2   0.099088 0.459912 0.004621 0.977604
C88   C     C_2   0.900785 0.540141 0.995745 0.972938
C89   C     C_2   0.901256 0.459741 0.996168 0.972617
C90   C     C_R   0.183790 0.818534 0.978901 0.135944
C91   C     C_2   0.098451 0.540281 0.003882 0.971826
C92   C     C_2   0.599191 0.959859 0.004206 0.972959
C93   C     C_2   0.400935 0.040088 0.995427 0.977698
C94   C     C_2   0.401572 0.959718 0.996165 0.971856
C95   C     C_2   0.598719 0.040259 0.003781 0.972465
C96   C     C_2   0.907827 0.040281 0.865805 0.984196
C97   C     C_2   0.093953 0.959574 0.132318 1.006852
C98   C     C_2   0.093118 0.040138 0.132841 0.985272
C99   C     C_2   0.909296 0.959724 0.864860 1.014218
C100  C     C_2   0.406090 0.540426 0.867667 1.006829
C101  C     C_R   0.262710 0.262182 0.136271 0.115616
C102  C     C_2   0.592141 0.459717 0.134220 0.984233
C103  C     C_2   0.590668 0.540275 0.135163 1.014140
C104  C     C_2   0.406922 0.459862 0.867143 0.985158
C105  C     C_2   0.937913 0.084883 0.109105 0.920741
C106  C     C_2   0.089534 0.923226 0.930158 0.902490
C107  C     C_2   0.294757 0.280776 0.345603 0.910892
C108  C     C_2   0.894840 0.926661 0.050792 0.941185
C109  C     C_2   0.410438 0.576767 0.069806 0.902496
C110  C     C_2   0.562097 0.415121 0.890901 0.920774
C111  C     C_2   0.605203 0.573329 0.949267 0.941201
C112  C     C_R   0.859854 0.750257 0.000077 0.861133
C113  C     C_R   0.812031 0.819145 0.014042 0.136892
C114  C     C_2   0.205256 0.219219 0.654407 0.911978
C115  C     C_3   0.762500 0.160410 0.902788 -0.761109
C116  C     C_3   0.249822 0.833811 0.116754 -0.772976
C117  C     C_3   0.238903 0.330929 0.106361 -0.833921
C118  C     C_3   0.745192 0.830413 0.874647 -0.774278
C119  C     C_3   0.250170 0.666197 0.883231 -0.773092
C120  C     C_3   0.737493 0.339587 0.097224 -0.762034
C121  C     C_3   0.754814 0.669600 0.125374 -0.774394
C122  C     C_3   0.261113 0.169072 0.893655 -0.833733
C123  C     C_2   0.207183 0.681709 0.025539 0.943328
C124  C     C_R   0.316205 0.681465 0.021089 0.135956
C125  C     C_2   0.786673 0.316998 0.962500 0.940441
C126  C     C_2   0.795949 0.681303 0.980028 0.953493
C127  C     C_2   0.125779 0.235386 0.864291 0.943899
C128  C     C_2   0.713322 0.183000 0.037490 0.940233
C129  C     C_2   0.292816 0.818291 0.974459 0.943334
C130  C     C_2   0.374225 0.264610 0.135715 0.943691
C131  C     C_2   0.704053 0.818696 0.019976 0.953500
C132  C     C_2   0.803573 0.281707 0.428089 0.934377
C133  C     C_2   0.200890 0.712439 0.572057 0.930620
C134  C     C_2   0.244818 0.315393 0.572033 0.961306
C135  C     C_R   0.675661 0.316662 0.963821 0.127981
C136  C     C_2   0.790432 0.703690 0.427948 0.932272
C137  C     C_2   0.299110 0.787561 0.427943 0.930666
C138  C     C_2   0.693433 0.222140 0.571897 0.934687
C139  C     C_2   0.709568 0.796310 0.572052 0.932325
C140  C     C_2   0.255185 0.184608 0.427968 0.961363
C141  C     C_R   0.687977 0.680852 0.985974 0.136907
C142  C     C_R   0.237293 0.237817 0.863733 0.115578
C143  C     C_R   0.813677 0.156479 0.984118 0.262227
C144  C     C_R   0.199319 0.842670 0.037012 0.268129
C145  C     C_R   0.255529 0.297991 0.155532 0.141883
C146  C     C_R   0.794516 0.841759 0.953280 0.260952
C147  C     C_R   0.300672 0.657332 0.962972 0.268180
C148  C     C_R   0.859832 0.249861 0.000014 0.869621
C149  C     C_R   0.686323 0.343520 0.015891 0.262631
C150  C     C_R   0.705495 0.658245 0.046744 0.261013
C151  C     C_R   0.244482 0.202008 0.844479 0.141886
C152  C     C_R   0.851565 0.124642 0.008637 -0.181807
C153  C     C_R   0.167418 0.876509 0.020324 -0.169701
C154  C     C_R   0.264845 0.303499 0.223417 -0.184828
C155  C     C_R   0.822936 0.876484 0.966111 -0.153779
C156  C     C_R   0.332566 0.623492 0.979651 -0.169722
C157  C     C_R   0.648436 0.375359 0.991372 -0.181760
C158  C     C_R   0.677084 0.623518 0.033928 -0.153827
C159  C     C_R   0.140139 0.750206 0.999917 0.862999
C160  C     C_R   0.235169 0.196499 0.776596 -0.184560
C161  C     C_R   0.900076 0.119309 0.083727 -0.029179
C162  C     C_R   0.120122 0.886525 0.947106 -0.019228
C163  C     C_R   0.281635 0.274129 0.272467 -0.020359
C164  C     C_R   0.868586 0.888935 0.038102 -0.027087
C165  C     C_R   0.379858 0.613470 0.052868 -0.019228
C166  C     C_R   0.599931 0.380694 0.916280 -0.029328
C167  C     C_R   0.631443 0.611057 0.961942 -0.027075
C168  C     C_R   0.218374 0.225868 0.727541 -0.020391
C169  C     C_R   0.227986 0.716469 0.010109 -0.069219
C170  C     C_R   0.640145 0.749742 0.999923 0.861129
C171  C     C_R   0.768716 0.282956 0.983514 -0.069162
C172  C     C_R   0.773632 0.716328 0.992743 -0.074770
C173  C     C_R   0.189264 0.244094 0.933146 -0.071898
C174  C     C_R   0.731284 0.217044 0.016486 -0.068968
C175  C     C_R   0.272013 0.783531 0.989890 -0.069220
C176  C     C_R   0.310738 0.255906 0.066857 -0.071671
C177  C     C_R   0.726368 0.783671 0.007258 -0.074774
C178  C     C_R   0.196926 0.750101 0.001298 -0.143647
C179  C     C_R   0.803130 0.249941 0.998822 -0.142135
C180  C     C_R   0.802989 0.750142 0.998524 -0.145148
C181  C     C_R   0.359676 0.250055 0.999709 0.878108
C182  C     C_R   0.196355 0.249223 0.000152 -0.134434
C183  C     C_R   0.696870 0.250060 0.001180 -0.142016
C184  C     C_R   0.303074 0.749899 0.998702 -0.143647
C185  C     C_R   0.303647 0.250778 0.999851 -0.134567
C186  C     C_R   0.697011 0.749857 0.001476 -0.145149
C187  C     C_R   0.219075 0.783622 0.992134 -0.088911
C188  C     C_R   0.784475 0.217014 0.014661 -0.086994
C189  C     C_R   0.779134 0.783803 0.004725 -0.086122
C190  C     C_R   0.256682 0.254786 0.066963 -0.087235
C191  C     C_R   0.715528 0.282987 0.985344 -0.086860
C192  C     C_R   0.359861 0.749794 0.000083 0.862995
C193  C     C_R   0.280924 0.716377 0.007864 -0.088914
C194  C     C_R   0.243320 0.245214 0.933040 -0.087277
C195  C     C_R   0.720868 0.716195 0.995278 -0.086125
C196  C     C_R   0.774485 0.265948 0.463569 -0.027705
C197  C     C_R   0.227056 0.731945 0.536494 -0.024048
C198  C     C_R   0.248423 0.281606 0.536474 0.002118
C199  C     C_R   0.768592 0.727561 0.463508 -0.026591
C200  C     C_R   0.272944 0.768055 0.463506 -0.024073
C201  C     C_R   0.722991 0.237193 0.536426 -0.028227
C202  C     C_R   0.731408 0.772439 0.536492 -0.026629
C203  C     C_R   0.640168 0.250139 0.999986 0.868776
C204  C     C_R   0.251580 0.218395 0.463526 0.002116
C205  C     C_R   0.711877 0.252003 0.422620 0.045178
C206  C     C_R   0.287661 0.748628 0.577363 0.046929
C207  C     C_R   0.289560 0.251850 0.577341 0.062248
C208  C     C_R   0.713485 0.749719 0.422650 0.046611
C209  C     C_R   0.212338 0.751372 0.422637 0.046938
C210  C     C_R   0.785808 0.250828 0.577372 0.045317
C211  C     C_R   0.786515 0.750281 0.577350 0.046623
C212  C     C_R   0.210443 0.248151 0.422659 0.062396
C213  C     C_R   0.099009 0.249948 0.197960 0.811396
C214  C     C_R   0.873632 0.178235 0.110871 -0.238872
C215  C     C_R   0.900964 0.750047 0.802048 0.826848
C216  C     C_R   0.901013 0.249930 0.802073 0.839795
C217  C     C_R   0.099021 0.750052 0.197926 0.825816
C218  C     C_R   0.599036 0.749953 0.197952 0.826847
C219  C     C_R   0.400991 0.250052 0.802040 0.811383
C220  C     C_R   0.400979 0.749948 0.802074 0.825813
C221  C     C_R   0.599015 0.250055 0.197926 0.837716
C222  C     C_R   0.687039 0.237863 0.459085 -0.216957
C223  C     C_R   0.309857 0.766242 0.540827 -0.224276
C224  C     C_R   0.290790 0.220890 0.540822 -0.230161
H1    H     H_    0.948470 0.143343 0.192639 0.196359
H2    H     H_    0.122775 0.809858 0.861202 0.163931
H3    H     H_    0.282212 0.205119 0.169746 0.167589
H4    H     H_    0.873109 0.814040 0.132584 0.164457
H5    H     H_    0.377218 0.690133 0.138791 0.163933
H6    H     H_    0.617491 0.301289 0.848861 0.167899
H7    H     H_    0.626904 0.685943 0.867428 0.164459
H8    H     H_    0.217779 0.294879 0.830248 0.167448
H9    H     H_    0.842920 0.103956 0.968773 0.193238
H10   H     H_    0.180020 0.895158 0.064820 0.196220
H11   H     H_    0.260133 0.331028 0.238436 0.205161
H12   H     H_    0.067091 0.868659 0.833344 0.193851
H13   H     H_    0.808613 0.893982 0.919539 0.214253
H14   H     H_    0.319961 0.604845 0.935151 0.196198
H15   H     H_    0.657078 0.396044 0.031236 0.193286
H16   H     H_    0.691411 0.606025 0.080507 0.214205
H17   H     H_    0.239889 0.168971 0.761582 0.205166
H18   H     H_    0.858872 0.275308 0.573434 0.196108
H19   H     H_    0.143752 0.720904 0.426697 0.191172
H20   H     H_    0.177781 0.301741 0.426668 0.196094
H21   H     H_    0.846985 0.711676 0.573298 0.192890
H22   H     H_    0.356248 0.779096 0.573303 0.191188
H23   H     H_    0.298977 0.215352 0.288089 0.193702
H24   H     H_    0.638843 0.227465 0.426530 0.196492
H25   H     H_    0.653015 0.788324 0.426702 0.192913
H26   H     H_    0.322222 0.198260 0.573332 0.196101
H27   H     H_    0.147548 0.453152 0.960489 0.362737
H28   H     H_    0.852490 0.546961 0.040069 0.359368
H29   H     H_    0.807425 0.452818 0.945898 0.358319
H30   H     H_    0.192265 0.547320 0.054210 0.358098
H31   H     H_    0.647456 0.953038 0.959846 0.359395
H32   H     H_    0.352505 0.046848 0.039595 0.362820
H33   H     H_    0.307764 0.952680 0.945873 0.358109
H34   H     H_    0.922728 0.874394 0.153760 0.197800
H35   H     H_    0.692544 0.047182 0.054015 0.358253
H36   H     H_    0.889047 0.081379 0.795015 0.356102
H37   H     H_    0.112933 0.918466 0.203180 0.355026
H38   H     H_    0.133254 0.046886 0.241253 0.370945
H39   H     H_    0.869587 0.953366 0.756467 0.363556
H40   H     H_    0.387147 0.581533 0.796817 0.355003
H41   H     H_    0.610892 0.418614 0.204989 0.357643
H42   H     H_    0.630331 0.546636 0.243545 0.363500
H43   H     H_    0.366833 0.453113 0.758743 0.370899
H44   H     H_    0.947514 0.032877 0.085309 0.358457
H45   H     H_    0.432890 0.631328 0.166634 0.193849
H46   H     H_    0.090989 0.974461 0.966128 0.360251
H47   H     H_    0.291768 0.316043 0.413314 0.355819
H48   H     H_    0.889367 0.976626 0.007973 0.360867
H49   H     H_    0.408976 0.525535 0.033819 0.360260
H50   H     H_    0.552506 0.467130 0.914693 0.358491
H51   H     H_    0.610680 0.523370 0.992114 0.360869
H52   H     H_    0.208255 0.183951 0.586704 0.355943
H53   H     H_    0.735157 0.186345 0.888782 0.242866
H54   H     H_    0.784255 0.160018 0.872335 0.237526
H55   H     H_    0.728831 0.137040 0.883666 0.260600
H56   H     H_    0.551545 0.356664 0.807366 0.196299
H57   H     H_    0.272136 0.806539 0.124488 0.242610
H58   H     H_    0.287607 0.855047 0.140566 0.260307
H59   H     H_    0.228590 0.833821 0.147787 0.237053
H60   H     H_    0.233161 0.324089 0.054468 0.246419
H61   H     H_    0.193664 0.343087 0.091727 0.248938
H62   H     H_    0.276961 0.351902 0.136029 0.266754
H63   H     H_    0.725720 0.802572 0.869982 0.242806
H64   H     H_    0.705271 0.850362 0.848368 0.255089
H65   H     H_    0.766566 0.830333 0.843769 0.242405
H66   H     H_    0.227862 0.693470 0.875504 0.242619
H67   H     H_    0.577304 0.625584 0.846276 0.197803
H68   H     H_    0.271403 0.666187 0.852199 0.237060
H69   H     H_    0.212382 0.644963 0.859414 0.260264
H70   H     H_    0.764836 0.313653 0.111229 0.242966
H71   H     H_    0.771163 0.362957 0.116354 0.260433
H72   H     H_    0.715733 0.339977 0.127671 0.237946
H73   H     H_    0.774279 0.697441 0.130028 0.242818
H74   H     H_    0.733439 0.669682 0.156250 0.242406
H75   H     H_    0.794741 0.649655 0.151664 0.255045
H76   H     H_    0.266850 0.175913 0.945545 0.246429
H77   H     H_    0.223062 0.148096 0.863989 0.266781
H78   H     H_    0.201019 0.284643 0.711908 0.193656
H79   H     H_    0.306357 0.156918 0.908295 0.248934
H80   H     H_    0.183471 0.628165 0.000745 0.367415
H81   H     H_    0.803664 0.371645 0.976686 0.363431
H82   H     H_    0.823212 0.628507 0.009965 0.364742
H83   H     H_    0.045826 0.205099 0.815549 0.344694
H84   H     H_    0.696325 0.128354 0.023290 0.363361
H85   H     H_    0.316527 0.871835 0.999252 0.367409
H86   H     H_    0.454188 0.294889 0.184461 0.345209
H87   H     H_    0.676791 0.871492 0.990043 0.364765
H88   H     H_    0.791582 0.303154 0.337394 0.359522
H89   H     H_    0.882521 0.198716 0.151144 0.167972
H90   H     H_    0.216825 0.687801 0.662437 0.357434
H91   H     H_    0.284120 0.347250 0.662820 0.363140
H92   H     H_    0.787045 0.691332 0.337609 0.358106
H93   H     H_    0.283174 0.812199 0.337563 0.357460
H94   H     H_    0.694662 0.217701 0.662761 0.359655
H95   H     H_    0.712955 0.808668 0.662391 0.358135
H96   H     H_    0.215884 0.152751 0.337180 0.363208
O1    O     O_3   0.000000 0.249990 0.000000 -0.504424
O2    O     O_R   0.405540 0.228660 0.042720 -0.633795
O3    O     O_R   0.219209 0.185008 0.638262 -0.798870
O4    O     O_2   0.198667 0.681037 0.073854 -0.636630
O5    O     O_R   0.197277 0.649901 0.984863 -0.778613
O6    O     O_2   0.797501 0.315511 0.916164 -0.633221
O7    O     O_R   0.791246 0.350642 0.995694 -0.777729
O8    O     O_2   0.803363 0.679511 0.930885 -0.618658
O9    O     O_R   0.808559 0.650549 0.024220 -0.790025
O10   O     O_2   0.106352 0.252009 0.807247 -0.604526
O11   O     O_R   0.088059 0.208294 0.865241 -0.808124
O12   O     O_2   0.702489 0.184485 0.083822 -0.636084
O13   O     O_R   0.405540 0.771340 0.042720 -0.631303
O14   O     O_R   0.708747 0.149359 0.004289 -0.777557
O15   O     O_2   0.301333 0.818962 0.926146 -0.636629
O16   O     O_R   0.302721 0.850099 0.015134 -0.778589
O17   O     O_2   0.393648 0.247987 0.192757 -0.605305
O18   O     O_R   0.411953 0.291697 0.134768 -0.807647
O19   O     O_2   0.696639 0.820487 0.069119 -0.618656
O20   O     O_R   0.691444 0.849450 0.975786 -0.790007
O21   O     O_2   0.861128 0.285462 0.464040 -0.593131
O22   O     O_R   0.765835 0.292882 0.354361 -0.793236
O23   O     O_2   0.144026 0.706063 0.536552 -0.601958
O24   O     O_R   0.594460 0.228660 0.957280 -0.630032
O25   O     O_R   0.240670 0.700724 0.645338 -0.793932
O26   O     O_2   0.199956 0.336526 0.536214 -0.586784
O27   O     O_R   0.292526 0.323591 0.645749 -0.800868
O28   O     O_2   0.828900 0.679115 0.463421 -0.595963
O29   O     O_R   0.768317 0.709370 0.354707 -0.793093
O30   O     O_2   0.355973 0.793937 0.463448 -0.601893
O31   O     O_R   0.259329 0.799276 0.354662 -0.793913
O32   O     O_2   0.645240 0.203524 0.535765 -0.592897
O33   O     O_R   0.719474 0.229486 0.645837 -0.793242
O34   O     O_2   0.671100 0.820885 0.536578 -0.595817
O35   O     O_R   0.111850 0.228640 0.162930 -0.627601
O36   O     O_R   0.731683 0.790630 0.645293 -0.793089
O37   O     O_2   0.300047 0.163475 0.463787 -0.586763
O38   O     O_R   0.207478 0.176411 0.354251 -0.800760
O39   O     O_R   0.888150 0.771360 0.837070 -0.617368
O40   O     O_R   0.888150 0.228640 0.837070 -0.617503
O41   O     O_R   0.111850 0.771360 0.162930 -0.615842
O42   O     O_R   0.611850 0.728640 0.162930 -0.617380
O43   O     O_R   0.388150 0.271360 0.837070 -0.627664
O44   O     O_R   0.388150 0.728640 0.837070 -0.615853
O45   O     O_3   0.000000 0.750010 0.000000 -0.502779
O46   O     O_R   0.611850 0.271360 0.162930 -0.613893
O47   O     O_R   0.051760 0.168530 0.042720 -0.608873
O48   O     O_R   0.948240 0.831470 0.957280 -0.630784
O49   O     O_R   0.948240 0.168530 0.957280 -0.647107
O50   O     O_R   0.051760 0.831470 0.042720 -0.640924
O51   O     O_R   0.551760 0.668530 0.042720 -0.630787
O52   O     O_R   0.448240 0.331470 0.957280 -0.609110
O53   O     O_R   0.448240 0.668530 0.957280 -0.640929
O54   O     O_R   0.551760 0.331470 0.042720 -0.645768
O55   O     O_R   0.009000 0.331450 0.957280 -0.635548
O56   O     O_3   0.500000 0.749990 0.000000 -0.502784
O57   O     O_R   0.991000 0.668550 0.042720 -0.625647
O58   O     O_R   0.991000 0.331450 0.042720 -0.610064
O59   O     O_R   0.009000 0.668550 0.957280 -0.609263
O60   O     O_R   0.509000 0.831450 0.957280 -0.625636
O61   O     O_R   0.491000 0.168550 0.042720 -0.635751
O62   O     O_R   0.491000 0.831450 0.042720 -0.609249
O63   O     O_R   0.509000 0.168550 0.957280 -0.610001
O64   O     O_R   0.051110 0.271360 0.162930 -0.634770
O65   O     O_R   0.948890 0.728640 0.837070 -0.637210
O66   O     O_R   0.948890 0.271360 0.837070 -0.626457
O67   O     O_3   0.500000 0.250010 0.000000 -0.504652
O68   O     O_R   0.051110 0.728640 0.162930 -0.640557
O69   O     O_R   0.551110 0.771360 0.162930 -0.637189
O70   O     O_R   0.448890 0.228640 0.837070 -0.634737
O71   O     O_R   0.448890 0.771360 0.837070 -0.640543
O72   O     O_R   0.551110 0.228640 0.162930 -0.627345
O73   O     O_R   0.137190 0.228630 0.042710 -0.631795
O74   O     O_R   0.862810 0.771370 0.957290 -0.635204
O75   O     O_R   0.862810 0.228630 0.957290 -0.634571
O76   O     O_R   0.137190 0.771370 0.042710 -0.636544
O77   O     O_R   0.637190 0.728630 0.042710 -0.635207
O78   O     O_R   0.094460 0.271340 0.957280 -0.634162
O79   O     O_R   0.362810 0.271370 0.957290 -0.631798
O80   O     O_R   0.362810 0.728630 0.957290 -0.636546
O81   O     O_R   0.637190 0.271370 0.042710 -0.635513
O82   O     O_2   0.128054 0.434920 0.048764 -0.610516
O83   O     O_R   0.112749 0.469070 0.954547 -0.764063
O84   O     O_2   0.871847 0.565164 0.951679 -0.597616
O85   O     O_R   0.887181 0.530987 0.045871 -0.766004
O86   O     O_2   0.914639 0.434721 0.039610 -0.591642
O87   O     O_R   0.837729 0.468832 0.942800 -0.768103
O88   O     O_2   0.084993 0.565189 0.960199 -0.595710
O89   O     O_R   0.905540 0.728660 0.042720 -0.631744
O90   O     O_R   0.162005 0.531317 0.057409 -0.769635
O91   O     O_2   0.628138 0.934836 0.048269 -0.597641
O92   O     O_R   0.612772 0.969013 0.954059 -0.765884
O93   O     O_2   0.371960 0.065080 0.951287 -0.610451
O94   O     O_R   0.387297 0.030930 0.045520 -0.763838
O95   O     O_2   0.415043 0.934811 0.039852 -0.595601
O96   O     O_R   0.338014 0.968683 0.942658 -0.769640
O97   O     O_2   0.585322 0.065280 0.960335 -0.591544
O98   O     O_R   0.662250 0.031168 0.057130 -0.768266
O99   O     O_2   0.851701 0.032327 0.832334 -0.582372
O100  O     O_R   0.905540 0.271340 0.042720 -0.630168
O101  O     O_R   0.926344 0.069189 0.840998 -0.780493
O102  O     O_2   0.150076 0.967487 0.165587 -0.579617
O103  O     O_R   0.075576 0.930665 0.157272 -0.762536
O104  O     O_2   0.123952 0.065367 0.132248 -0.588916
O105  O     O_R   0.100881 0.030789 0.198323 -0.744959
O106  O     O_2   0.878692 0.934201 0.864976 -0.600001
O107  O     O_R   0.901706 0.969434 0.799628 -0.745426
O108  O     O_2   0.349963 0.532514 0.834367 -0.579745
O109  O     O_R   0.424490 0.569334 0.842737 -0.762558
O110  O     O_2   0.648268 0.467676 0.167727 -0.582444
O111  O     O_R   0.094460 0.728660 0.957280 -0.631311
O112  O     O_R   0.573606 0.430804 0.158996 -0.779463
O113  O     O_2   0.621287 0.565797 0.135070 -0.600034
O114  O     O_R   0.598223 0.530567 0.200377 -0.745382
O115  O     O_2   0.376075 0.434634 0.867712 -0.589050
O116  O     O_R   0.399193 0.469211 0.801680 -0.744975
O117  O     O_2   0.985398 0.082232 0.172464 -0.585421
O118  O     O_R   0.918802 0.055070 0.060898 -0.813033
O119  O     O_2   0.042720 0.930176 0.868108 -0.597923
O120  O     O_R   0.114852 0.950265 0.984945 -0.792100
O121  O     O_2   0.318184 0.256457 0.392229 -0.619009
O122  O     O_R   0.594460 0.771340 0.957280 -0.631735
O123  O     O_R   0.280812 0.314987 0.361756 -0.798945
O124  O     O_2   0.938972 0.936333 0.112569 -0.575880
O125  O     O_R   0.868314 0.951571 0.992197 -0.767783
O126  O     O_2   0.457243 0.569809 0.131858 -0.597893
O127  O     O_R   0.385120 0.549734 0.015008 -0.792132
O128  O     O_2   0.514611 0.417772 0.827542 -0.585461
O129  O     O_R   0.581214 0.444936 0.939105 -0.813036
O130  O     O_2   0.561089 0.563645 0.887489 -0.575875
O131  O     O_R   0.631721 0.548429 0.007878 -0.767844
O132  O     O_2   0.181825 0.243535 0.607777 -0.617969
Zn1   Zn    Zn3+2 0.987140 0.280510 0.061030 1.031441
Zn2   Zn    Zn3+2 0.926080 0.780520 0.938970 1.008677
Zn3   Zn    Zn3+2 0.926080 0.219480 0.938970 1.014310
Zn4   Zn    Zn3+2 0.073920 0.780520 0.061030 1.001470
Zn5   Zn    Zn3+2 0.573920 0.719480 0.061030 1.008663
Zn6   Zn    Zn3+2 0.426080 0.280520 0.938970 1.022849
Zn7   Zn    Zn3+2 0.426080 0.719480 0.938970 1.001457
Zn8   Zn    Zn3+2 0.573920 0.280520 0.061030 1.015493
Zn9   Zn    Zn3+2 0.012860 0.719490 0.938970 1.042706
Zn10  Zn    Zn3+2 0.012860 0.280510 0.938970 1.029704
Zn11  Zn    Zn3+2 0.987140 0.719490 0.061030 1.032546
Zn12  Zn    Zn3+2 0.487140 0.780510 0.061030 1.042740
Zn13  Zn    Zn3+2 0.512860 0.219490 0.938970 1.030745
Zn14  Zn    Zn3+2 0.512860 0.780510 0.938970 1.032570
Zn15  Zn    Zn3+2 0.487140 0.219490 0.061030 1.029037
Zn16  Zn    Zn3+2 0.073920 0.219480 0.061030 1.022650

loop_
_geom_bond_atom_site_label_1
_geom_bond_atom_site_label_2
_ccdc_geom_bond_type
C81   H23   S    
H52   O3    S    
H80   O5    S    
C78   C214  A    
C30   C104  S    
C7    C212  A    
O61   Zn15  S    
O69   Zn12  S    
C5    C210  A    
C108  C164  S    
C58   C66   A    
C35   C124  A    
C55   O63   A    
C184  C193  A    
C203  O24   A    
C110  O128  D    
C2    C90   A    
C130  O17   D    
O41   Zn4   S    
C133  O25   S    
O62   Zn12  S    
C21   C220  S    
O67   Zn13  S    
C1    O78   A    
C192  O13   A    
C4    H19   S    
C53   O57   A    
O45   Zn2   S    
C53   C75   S    
H84   O14   S    
C158  C167  A    
C63   C67   A    
O35   Zn16  S    
C223  H22   S    
C131  C177  S    
C15   C20   T    
C124  C147  A    
C132  O22   S    
C20   C215  S    
C96   O101  S    
C169  C193  A    
C179  C188  A    
C105  O117  D    
H47   O123  S    
C177  C186  A    
O39   Zn2   S    
C85   C167  A    
C113  C146  A    
H95   O36   S    
C136  O28   D    
O72   Zn15  S    
C137  O31   S    
H46   O120  S    
C118  C146  S    
C221  O46   A    
C204  C212  A    
C121  H74   S    
C142  C194  S    
O55   Zn10  S    
C140  O38   S    
C54   O62   A    
C118  H63   S    
C219  O70   A    
C87   O83   S    
O1    Zn1   S    
C216  O40   A    
C173  C182  A    
C148  C179  S    
C126  O9    S    
C91   O88   D    
C105  O118  S    
O40   Zn3   S    
O13   Zn12  S    
C104  O115  D    
C111  C167  S    
C102  O112  S    
C219  O43   A    
C36   C40   S    
C2    H2    S    
C133  C197  S    
C26   C34   A    
C159  O76   A    
H33   O96   S    
C55   O61   A    
C13   H3    S    
C138  O33   S    
O52   Zn6   S    
H93   O31   S    
C213  O35   A    
C57   C141  A    
C200  C209  A    
C9    C206  S    
C130  C176  S    
C49   O50   A    
C120  H70   S    
C203  O81   A    
C9    C21   T    
C82   C164  A    
C45   C50   S    
C11   C23   T    
C57   C85   A    
C153  H10   S    
H37   O103  S    
O58   Zn1   S    
C8    C205  S    
C129  O15   D    
C58   C89   S    
C126  C172  S    
H32   O94   S    
O79   Zn6   S    
C91   O90   S    
C53   O59   A    
C95   O98   S    
C173  C194  A    
C3    C202  A    
C129  C175  S    
C116  H59   S    
H43   O116  S    
C182  C190  A    
C136  O29   S    
C103  O113  D    
H38   O105  S    
C28   C97   S    
H51   O131  S    
C82   H34   S    
C80   H12   S    
C202  C211  A    
C170  O122  A    
C140  O37   D    
C92   O92   S    
C93   O93   D    
C101  C145  A    
C120  C149  S    
C128  O14   S    
C49   O48   A    
C117  C145  S    
H83   O11   S    
C12   C209  S    
C52   C74   S    
C180  C189  A    
C140  C204  S    
C6    C199  A    
O75   Zn3   S    
C65   C70   S    
C133  O23   D    
O59   Zn9   S    
O45   Zn11  S    
C67   C72   S    
C217  O41   A    
C218  O69   A    
C54   O60   A    
O47   Zn16  S    
C213  O64   A    
O1    Zn3   S    
C79   C143  A    
C86   H78   S    
C8    C22   T    
C118  H65   S    
C68   C142  A    
C102  O110  D    
C152  C161  A    
C224  H26   S    
C26   C99   S    
C112  C180  S    
C160  C168  A    
H50   O129  S    
O56   Zn5   S    
C14   C17   T    
C171  C179  A    
C109  O127  S    
C125  C171  S    
O48   Zn2   S    
C141  C150  A    
C40   C43   T    
O49   Zn3   S    
C154  C163  A    
C79   C188  S    
C34   C39   S    
H42   O114  S    
C89   O87   S    
C86   C168  A    
C120  H72   S    
O43   Zn6   S    
H82   O9    S    
C100  O109  S    
H40   O109  S    
C6    C211  A    
C64   C69   A    
C220  O44   A    
C4    C209  A    
C48   O49   A    
C19   C213  S    
C7    H20   S    
C94   O95   D    
C50   O53   A    
C61   C67   A    
H88   O22   S    
C31   C32   A    
C41   C47   T    
C32   C37   A    
C80   C162  A    
C5    C196  A    
C145  C154  A    
O74   Zn2   S    
C115  H54   S    
C107  C163  S    
C105  C161  S    
C99   O107  S    
C114  O3    S    
O111  Zn9   S    
C159  C178  S    
C117  H61   S    
C107  O123  S    
C51   O54   A    
C10   C25   T    
O67   Zn6   S    
C198  C207  A    
C134  O26   D    
C200  C223  A    
C52   O58   A    
C3    H25   S    
O45   Zn4   S    
C139  C202  S    
C29   C96   S    
C39   C44   T    
C128  C174  S    
C221  O72   A    
C117  H60   S    
C117  H62   S    
C159  O111  A    
C59   C65   A    
O51   Zn5   S    
C148  O75   A    
C199  C208  A    
O78   Zn10  S    
C37   C41   S    
C130  O18   S    
C28   C34   A    
O71   Zn14  S    
C78   C161  A    
H81   O7    S    
C70   C75   T    
O56   Zn7   S    
C33   C38   A    
C97   O103  S    
C90   C144  A    
C68   H8    S    
C127  C173  S    
C119  H69   S    
C116  H58   S    
C185  C194  A    
C197  C206  A    
C176  C185  A    
H49   O127  S    
H96   O38   S    
C83   C165  A    
C112  O89   A    
C108  O125  S    
C90   C187  S    
C119  C147  S    
C13   C81   A    
C205  C222  A    
C125  O7    S    
H41   O112  S    
O46   Zn8   S    
C141  C195  S    
C131  O20   S    
O64   Zn1   S    
C192  O80   A    
C46   C135  A    
C222  H24   S    
C137  O30   D    
O63   Zn13  S    
C79   C214  A    
C146  C155  A    
C154  H11   S    
C121  H73   S    
C184  C192  S    
C69   C73   S    
C5    H18   S    
C17   C216  S    
C107  O121  D    
C118  H64   S    
C51   O52   A    
C96   O99   D    
H92   O29   S    
C172  C180  A    
C78   H1    S    
C60   C66   A    
O50   Zn4   S    
C46   H6    S    
C104  O116  S    
H30   O90   S    
C22   C221  S    
H27   O83   S    
O56   Zn14  S    
C123  O4    D    
C220  O71   A    
C111  O130  D    
C122  H79   S    
O56   Zn12  S    
C48   O47   A    
C101  C190  S    
C35   C83   A    
C47   C51   S    
C152  H9    S    
O73   Zn16  S    
C156  H14   S    
C58   C59   A    
C56   C60   A    
C62   C69   A    
C119  H68   S    
C61   C64   A    
C62   C63   A    
C100  O108  D    
H94   O33   S    
C176  C190  A    
C66   C71   S    
C106  O120  S    
C170  C186  S    
C171  C191  A    
H91   O27   S    
C147  C156  A    
C135  C191  S    
C114  O132  D    
C178  C187  A    
C143  C152  A    
C62   C94   S    
C127  O10   D    
C25   C219  S    
C64   C92   S    
O100  Zn1   S    
C218  O42   A    
C115  H55   S    
C132  O21   D    
C150  C158  A    
C98   O105  S    
O54   Zn8   S    
O77   Zn5   S    
C139  O36   S    
C174  C183  A    
C71   C74   T    
C1    C182  S    
C61   C95   S    
C114  C168  S    
O1    Zn10  S    
C27   C36   A    
C113  C189  S    
C63   C93   S    
C31   C38   A    
C138  O32   D    
C153  C162  A    
C7    C198  A    
O76   Zn4   S    
C151  C160  A    
O42   Zn5   S    
C181  O2    A    
O60   Zn14  S    
C156  C165  A    
C16   C19   T    
C57   H7    S    
C121  H75   S    
C46   C84   A    
C122  H76   S    
C106  C162  S    
H90   O25   S    
H48   O125  S    
C148  O100  A    
C112  O74   A    
C155  H13   S    
C30   C37   A    
C128  O12   D    
C126  O8    D    
C172  C195  A    
H29   O87   S    
C149  C157  A    
C42   C45   T    
C175  C184  A    
C44   C49   S    
H31   O92   S    
C27   C98   S    
H39   O107  S    
C122  H77   S    
C68   C86   A    
C6    H21   S    
C109  O126  D    
C110  O129  S    
C88   O84   D    
H36   O101  S    
C29   C36   A    
C3    C208  A    
C119  H66   S    
C89   O86   D    
C38   C42   S    
O44   Zn7   S    
C55   C77   S    
C138  C201  S    
C56   C65   A    
C84   H56   S    
C196  C205  A    
C1    O73   A    
C121  C150  S    
C144  C153  A    
C83   H45   S    
C129  O16   S    
C24   C82   A    
C59   C88   S    
O1    Zn16  S    
C94   O96   S    
H35   O98   S    
C174  C188  A    
O89   Zn11  S    
C157  H15   S    
H44   O118  S    
C136  C199  S    
C124  C193  S    
C15   C211  S    
C160  H17   S    
C43   C48   S    
C103  O114  S    
C115  H53   S    
C170  O77   A    
C23   C218  S    
C24   C113  A    
O70   Zn13  S    
C116  C144  S    
C204  C224  A    
C81   C163  A    
C215  O65   A    
C201  C222  A    
C139  O34   D    
C60   C87   S    
C108  O124  D    
C92   O91   D    
C93   O94   S    
C85   H67   S    
C115  C143  S    
C106  O119  D    
C177  C189  A    
C14   C210  S    
C134  O27   S    
C52   O55   A    
C186  C195  A    
C16   C212  S    
H85   O16   S    
C84   C166  A    
C214  H89   S    
C99   O106  D    
C181  C185  S    
C116  H57   S    
C181  O79   A    
C135  C149  A    
C175  C187  A    
C123  O5    S    
C98   O104  D    
C111  O131  S    
C35   H5    S    
C31   C103  S    
C10   C207  S    
C72   C77   T    
O66   Zn10  S    
C87   O82   D    
O80   Zn7   S    
O65   Zn9   S    
C88   O85   S    
C137  C200  S    
C206  C223  A    
O45   Zn9   S    
C123  C169  S    
C109  C165  S    
O68   Zn11  S    
C54   C76   S    
C4    C197  A    
O24   Zn13  S    
O122  Zn14  S    
O67   Zn15  S    
C32   C102  S    
C11   C208  S    
O57   Zn11  S    
C13   C101  A    
C97   O102  D    
C201  C210  A    
H86   O18   S    
C50   O51   A    
C134  C198  S    
C30   C33   A    
C127  O11   S    
C120  H71   S    
C183  C191  A    
C157  C166  A    
O81   Zn8   S    
H28   O85   S    
C155  C164  A    
C142  C151  A    
O67   Zn8   S    
C216  O66   A    
C33   C100  S    
C183  C203  S    
C122  C151  S    
C95   O97   D    
O2    Zn15  S    
O53   Zn7   S    
C110  C166  S    
C217  O68   A    
C215  O39   A    
C73   C76   T    
C125  O6    D    
C131  O19   D    
C2    C80   A    
C169  C178  A    
C207  C224  A    
C26   C29   A    
C12   C18   T    
C27   C28   A    
C132  C196  S    
H87   O20   S    
C24   H4    S    
C18   C217  S    
C56   C91   S    
C158  H16   S    
