data_mof_unit_12641.cif
_audit_creation_date              2012-12-10T17:47:00-0500
_audit_creation_method            fapswitch 2.2
_symmetry_space_group_name_H-M    P1
_symmetry_Int_Tables_number       1
_space_group_crystal_system       triclinic
_cell_length_a                    10.085983
_cell_length_b                    10.75522
_cell_length_c                    13.674811
_cell_angle_alpha                 94.287898
_cell_angle_beta                  85.953141
_cell_angle_gamma                 91.406752
_cell_volume                      1475.2846211

loop_
_atom_site_label
_atom_site_type_symbol
_atom_type_description
_atom_site_fract_x
_atom_site_fract_y
_atom_site_fract_z
_atom_type_partial_charge
C1    C     C_R   0.500398 0.739312 0.498372 0.926974
C2    C     C_1   0.467515 0.493919 0.786151 -0.023868
C3    C     C_R   0.361204 0.856815 0.348621 -0.219882
C4    C     C_R   0.299742 0.917201 0.277141 0.460854
C5    C     C_R   0.336453 0.039826 0.260662 -0.179635
C6    C     C_R   0.415178 0.107945 0.325984 -0.139033
C7    C     C_R   0.452107 0.055344 0.410807 0.099570
C8    C     C_R   0.438559 0.925959 0.417466 -0.020058
C9    C     C_R   0.497720 0.872601 0.495538 -0.203230
C10   C     C_R   0.547220 0.949362 0.573423 0.417383
C11   C     C_R   0.548181 0.076457 0.569442 -0.231606
C12   C     C_R   0.478903 0.497337 0.684141 0.932093
C13   C     C_R   0.500881 0.128688 0.489928 -0.115564
C14   C     C_R   0.856260 0.633227 0.654663 -0.111115
C15   C     C_R   0.923856 0.688709 0.733755 0.496592
C16   C     C_R   0.061083 0.700362 0.724601 -0.238744
C17   C     C_R   0.131454 0.647044 0.642257 -0.159553
C18   C     C_R   0.067897 0.571222 0.570958 0.112368
C19   C     C_R   0.924649 0.568486 0.573456 -0.016965
C20   C     C_R   0.933671 0.427620 0.431069 0.407183
C21   C     C_R   0.076481 0.431703 0.430679 0.188104
C22   C     C_R   0.499656 0.261145 0.495221 0.886833
C23   C     C_R   0.521249 0.497236 0.315263 0.877655
C24   C     C_1   0.533658 0.477255 0.212511 -0.024679
C25   C     C_2   0.546021 0.442266 0.021809 0.265601
C26   C     C_2   0.451949 0.496997 0.976133 0.216125
C27   C     C_1   0.458462 0.493165 0.872819 0.053659
C28   C     C_1   0.543470 0.458497 0.125629 0.046160
H1    H     H_    0.752091 0.644676 0.657455 0.255015
H2    H     H_    0.114197 0.750757 0.781783 0.208676
H3    H     H_    0.235953 0.665705 0.637061 0.230043
H4    H     H_    0.339872 0.758751 0.352747 0.202834
H5    H     H_    0.297131 0.085231 0.201207 0.178265
H6    H     H_    0.440987 0.203758 0.313003 0.165832
H7    H     H_    0.585044 0.136199 0.629516 0.188719
N1    N     N_R   0.857120 0.501200 0.500900 -0.180734
N2    N     N_R   0.142720 0.501280 0.500940 -0.163623
O1    O     O_R   0.385310 0.683220 0.500000 -0.653568
O2    O     O_R   0.614640 0.683250 0.500010 -0.582196
O3    O     O_R   0.368830 0.499960 0.640340 -0.637561
O4    O     O_R   0.598160 0.499980 0.640350 -0.614807
O5    O     O_R   0.385360 0.316750 0.499990 -0.608659
O6    O     O_R   0.614690 0.316780 0.500000 -0.557770
O7    O     O_R   0.401840 0.500020 0.359650 -0.602773
O8    O     O_R   0.631170 0.500040 0.359660 -0.550825
Zn1   Zn    Zn3+2 0.346870 0.499980 0.499990 0.998165
Zn2   Zn    Zn3+2 0.653130 0.500020 0.500010 1.070635
S1    S     S_3+6 0.326009 0.588851 0.038869 0.102190
O9    O     O_2   0.241598 0.509386 0.105480 -0.188041
O10   O     O_2   0.390021 0.693105 0.099298 -0.288222
O11   O     O_3   0.229715 0.647861 0.958740 -0.442308
H8    H     H_    0.286745 0.710869 0.925909 0.366666
S2    S     S_3+6 0.840438 0.743971 0.845766 0.128506
O12   O     O_2   0.907796 0.694677 0.929139 -0.203633
O13   O     O_2   0.848863 0.883989 0.855256 -0.219547
O14   O     O_3   0.680521 0.696603 0.851784 -0.510272
H9    H     H_    0.642544 0.732822 0.916130 0.395776
I1    I     I_    0.189880 0.331375 0.314818 -0.120421
S3    S     S_3+6 0.673589 0.351476 0.958688 0.081314
O15   O     O_2   0.611423 0.240720 0.904757 -0.255684
O16   O     O_2   0.751552 0.426978 0.885442 -0.257398
O17   O     O_3   0.776316 0.301518 0.038447 -0.449190
H10   H     H_    0.834532 0.374502 0.054847 0.404961
S4    S     S_3+6 0.604820 0.894398 0.680021 0.049633
O18   O     O_2   0.540805 0.771332 0.701894 -0.320970
O19   O     O_2   0.752510 0.881964 0.662174 -0.308741
O20   O     O_3   0.571518 0.997114 0.777059 -0.477276
H11   H     H_    0.657439 0.039886 0.789295 0.420854
S5    S     S_3+6 0.162337 0.848070 0.219775 0.124061
O21   O     O_2   0.151317 0.711378 0.235526 -0.177086
O22   O     O_2   0.038024 0.909581 0.264640 -0.285593
O23   O     O_3   0.176407 0.868637 0.098729 -0.434603
H12   H     H_    0.144344 0.953885 0.092842 0.365651
S6    S     S_3+6 0.866789 0.320057 0.337313 0.092622
O24   O     O_2   0.721276 0.293061 0.337621 -0.282386
O25   O     O_2   0.909426 0.367854 0.239202 -0.261896
O26   O     O_3   0.935481 0.180327 0.344727 -0.515112
H13   H     H_    0.922862 0.134386 0.280428 0.417253

loop_
_geom_bond_atom_site_label_1
_geom_bond_atom_site_label_2
_ccdc_geom_bond_type
C8    C9    A    
C23   O8    A    
C2    C12   S    
C7    C8    A    
O26   H13   S    
C25   C28   S    
O3    Zn1   S    
C26   C27   S    
C12   O4    A    
S6    O25   D    
C15   S2    S    
C18   N2    A    
C19   N1    A    
C5    C6    A    
C16   H2    S    
C15   C16   A    
O14   H9    S    
N1    Zn2   S    
C18   C19   A    
O5    Zn1   S    
O8    Zn2   S    
S5    O22   D    
S1    O11   S    
C16   C17   A    
S6    O26   S    
C5    H5    S    
C23   C24   S    
C2    C27   T    
C9    C10   A    
C26   S1    S    
S1    O10   D    
S3    O15   D    
S5    O21   D    
C4    S5    S    
O7    Zn1   S    
S2    O13   D    
S3    O16   D    
S6    O24   D    
O20   H11   S    
S4    O20   S    
C1    C9    S    
C3    C8    A    
C4    C5    A    
C25   C26   D    
S2    O12   D    
C23   O7    A    
O11   H8    S    
S4    O19   D    
C12   O3    A    
S5    O23   S    
O17   H10   S    
C22   O6    A    
C17   C18   A    
O4    Zn2   S    
C20   S6    S    
C1    O1    A    
S1    O9    D    
C17   H3    S    
C14   H1    S    
C3    C4    A    
O2    Zn2   S    
S2    O14   S    
S3    O17   S    
C14   C19   A    
C10   S4    S    
C24   C28   T    
O23   H12   S    
C6    C7    A    
S4    O18   D    
C11   H7    S    
C21   I1    S    
C11   C13   A    
C22   O5    A    
C13   C22   S    
C3    H4    S    
O1    Zn1   S    
C10   C11   A    
C1    O2    A    
C20   N1    A    
C6    H6    S    
C7    C13   A    
C21   N2    A    
C20   C21   A    
C14   C15   A    
C25   S3    S    
N2    Zn1   S    
O6    Zn2   S    
