data_mof_unit_23322.cif
_audit_creation_date              2013-03-05T15:56:44-0500
_audit_creation_method            fapswitch 2.2
_symmetry_space_group_name_H-M    P1
_symmetry_Int_Tables_number       1
_space_group_crystal_system       triclinic
_cell_length_a                    20.446793
_cell_length_b                    21.750516
_cell_length_c                    14.032607
_cell_angle_alpha                 89.985811
_cell_angle_beta                  89.997307
_cell_angle_gamma                 90.000144
_cell_volume                      6240.69723348

loop_
_atom_site_label
_atom_site_type_symbol
_atom_site_description
_atom_site_fract_x
_atom_site_fract_y
_atom_site_fract_z
_atom_type_partial_charge
O1    O     O_R   0.064880 0.435140 0.582280 -0.597040
O2    O     O_R   0.935120 0.564860 0.417720 -0.566799
O3    O     O_R   0.935120 0.564860 0.582280 -0.597000
O4    O     O_R   0.064880 0.435140 0.417720 -0.566777
O5    O     O_R   0.935120 0.435140 0.417720 -0.597013
O6    O     O_R   0.064880 0.564860 0.582280 -0.566781
O7    O     O_R   0.064880 0.564860 0.417720 -0.597039
O8    O     O_R   0.935120 0.435140 0.582280 -0.566801
O9    O     O_R   0.564880 0.935140 0.582280 -0.597041
O10   O     O_R   0.435120 0.064860 0.417720 -0.566801
O11   O     O_R   0.435120 0.064860 0.582280 -0.597003
O12   O     O_R   0.564880 0.935140 0.417720 -0.566782
O13   O     O_R   0.435120 0.935140 0.417720 -0.597015
O14   O     O_R   0.564880 0.064860 0.582280 -0.566786
O15   O     O_R   0.564880 0.064860 0.417720 -0.597039
O16   O     O_R   0.435120 0.935140 0.582280 -0.566805
C1    C     C_R   0.085023 0.414430 0.500417 0.796553
C2    C     C_R   0.914976 0.585570 0.500405 0.796447
C3    C     C_R   0.914976 0.414430 0.499596 0.796447
C4    C     C_R   0.085022 0.585571 0.499579 0.796549
C5    C     C_R   0.585022 0.914429 0.500417 0.796567
C6    C     C_R   0.414977 0.085571 0.500405 0.796460
C7    C     C_R   0.414975 0.914431 0.499596 0.796463
C8    C     C_R   0.585022 0.085571 0.499579 0.796562
Cu1   Cu    Cu3+1 0.000000 0.500000 0.597420 0.939234
Cu2   Cu    Cu3+1 0.000000 0.500000 0.402580 0.939239
Cu3   Cu    Cu3+1 0.500000 0.000000 0.597420 0.939238
Cu4   Cu    Cu3+1 0.500000 0.000000 0.402580 0.939245
C9    C     C_R   0.112890 0.695294 0.495824 -0.256948
C10   C     C_R   0.887111 0.304703 0.496241 -0.256857
C11   C     C_R   0.887110 0.695297 0.503797 -0.256841
C12   C     C_R   0.112891 0.304706 0.504084 -0.256946
C13   C     C_R   0.612892 0.195293 0.495770 -0.256965
C14   C     C_R   0.387109 0.804705 0.496189 -0.256874
C15   C     C_R   0.387111 0.195297 0.503884 -0.256857
C16   C     C_R   0.612891 0.804706 0.504172 -0.256962
C17   C     C_R   0.133130 0.633971 0.496679 -0.025623
C18   C     C_R   0.866871 0.366028 0.496726 -0.025297
C19   C     C_R   0.866871 0.633972 0.503276 -0.025318
C20   C     C_R   0.133131 0.366030 0.503306 -0.025597
C21   C     C_R   0.633132 0.133970 0.496678 -0.025667
C22   C     C_R   0.366869 0.866030 0.496728 -0.025352
C23   C     C_R   0.366871 0.133972 0.503275 -0.025384
C24   C     C_R   0.633131 0.866030 0.503309 -0.025652
C25   C     C_R   0.198971 0.618537 0.486370 -0.248522
C26   C     C_R   0.801052 0.381447 0.486046 -0.248667
C27   C     C_R   0.801047 0.618550 0.513904 -0.248650
C28   C     C_R   0.198969 0.381461 0.513667 -0.248545
C29   C     C_R   0.698976 0.118533 0.486418 -0.248516
C30   C     C_R   0.301047 0.881452 0.486103 -0.248652
C31   C     C_R   0.301043 0.118547 0.513816 -0.248625
C32   C     C_R   0.698972 0.881465 0.513597 -0.248530
C33   C     C_R   0.246279 0.664569 0.483829 0.114145
C34   C     C_R   0.753750 0.335413 0.483488 0.114017
C35   C     C_R   0.753744 0.664584 0.516451 0.114018
C36   C     C_R   0.246276 0.335429 0.516206 0.114129
C37   C     C_R   0.746285 0.164564 0.483876 0.114155
C38   C     C_R   0.253743 0.835418 0.483546 0.114034
C39   C     C_R   0.253739 0.164580 0.516362 0.114045
C40   C     C_R   0.746280 0.835434 0.516135 0.114151
C41   C     C_R   0.226398 0.726666 0.485484 0.051586
C42   C     C_R   0.773626 0.273318 0.485493 0.051567
C43   C     C_R   0.773621 0.726680 0.514484 0.051585
C44   C     C_R   0.226395 0.273332 0.514485 0.051587
C45   C     C_R   0.726404 0.226662 0.485480 0.051587
C46   C     C_R   0.273621 0.773323 0.485498 0.051568
C47   C     C_R   0.273618 0.226676 0.514478 0.051592
C48   C     C_R   0.726399 0.773335 0.514493 0.051590
C49   C     C_R   0.159307 0.742103 0.488699 0.115076
C50   C     C_R   0.840710 0.257885 0.489087 0.115049
C51   C     C_R   0.840707 0.742113 0.510938 0.115063
C52   C     C_R   0.159305 0.257896 0.511201 0.115071
C53   C     C_R   0.659311 0.242099 0.488643 0.115079
C54   C     C_R   0.340706 0.757890 0.489038 0.115051
C55   C     C_R   0.340705 0.242110 0.511018 0.115070
C56   C     C_R   0.659307 0.757898 0.511291 0.115074
C57   C     C_R   0.312970 0.649642 0.482208 -0.241453
C58   C     C_R   0.687063 0.350339 0.481517 -0.241452
C59   C     C_R   0.687057 0.649657 0.518376 -0.241437
C60   C     C_R   0.312965 0.350357 0.517894 -0.241438
C61   C     C_R   0.812976 0.149636 0.482303 -0.241455
C62   C     C_R   0.187056 0.850344 0.481623 -0.241453
C63   C     C_R   0.187051 0.149653 0.518208 -0.241436
C64   C     C_R   0.812971 0.850361 0.517746 -0.241433
C65   C     C_R   0.859985 0.196067 0.486403 -0.224366
C66   C     C_R   0.140039 0.803918 0.485684 -0.224421
C67   C     C_R   0.140036 0.196080 0.514145 -0.224399
C68   C     C_R   0.859980 0.803931 0.513655 -0.224360
C69   C     C_R   0.359980 0.696072 0.486306 -0.224378
C70   C     C_R   0.640044 0.303914 0.485579 -0.224434
C71   C     C_R   0.640039 0.696083 0.514313 -0.224410
C72   C     C_R   0.359977 0.303928 0.513811 -0.224372
H1    H     H_    0.061252 0.706280 0.499984 0.116137
H2    H     H_    0.938740 0.293722 0.500686 0.116105
H3    H     H_    0.938741 0.706278 0.499390 0.116101
H4    H     H_    0.061254 0.293722 0.499876 0.116134
H5    H     H_    0.561253 0.206280 0.499889 0.116139
H6    H     H_    0.438739 0.793724 0.500590 0.116108
H7    H     H_    0.438744 0.206279 0.499545 0.116104
H8    H     H_    0.561252 0.793720 0.500026 0.116138
H9    H     H_    0.213284 0.570640 0.484384 0.121338
H10   H     H_    0.786742 0.429341 0.483817 0.121085
H11   H     H_    0.786736 0.570656 0.516111 0.121095
H12   H     H_    0.213280 0.429358 0.515693 0.121323
H13   H     H_    0.713287 0.070635 0.484464 0.121379
H14   H     H_    0.286736 0.929346 0.483901 0.121127
H15   H     H_    0.286732 0.070652 0.515966 0.121146
H16   H     H_    0.713284 0.929363 0.515573 0.121369
H17   H     H_    0.328664 0.602057 0.480705 0.133530
H18   H     H_    0.671373 0.397922 0.479759 0.133626
H19   H     H_    0.671365 0.602074 0.520102 0.133620
H20   H     H_    0.328659 0.397941 0.519446 0.133532
H21   H     H_    0.828671 0.102051 0.480837 0.133514
H22   H     H_    0.171366 0.897927 0.479902 0.133608
H23   H     H_    0.171360 0.102069 0.519873 0.133602
H24   H     H_    0.828665 0.897946 0.519241 0.133514
H25   H     H_    0.911310 0.183683 0.487936 0.137024
H26   H     H_    0.088710 0.816304 0.486934 0.137038
H27   H     H_    0.088708 0.183694 0.512840 0.137034
H28   H     H_    0.911306 0.816316 0.512156 0.137024
H29   H     H_    0.411306 0.683687 0.487799 0.137028
H30   H     H_    0.588715 0.316300 0.486790 0.137043
H31   H     H_    0.588710 0.683696 0.513070 0.137037
H32   H     H_    0.411304 0.316313 0.512376 0.137028
C73   C     C_R   0.057830 0.505344 0.794879 0.101696
C74   C     C_R   0.942164 0.505372 0.205132 0.101760
C75   C     C_R   0.942163 0.494607 0.794874 0.101680
C76   C     C_R   0.057833 0.494661 0.205117 0.101682
C77   C     C_R   0.557832 0.005334 0.794877 0.101689
C78   C     C_R   0.442166 0.005357 0.205131 0.101762
C79   C     C_R   0.442162 0.994618 0.794873 0.101676
C80   C     C_R   0.557833 0.994673 0.205118 0.101672
N1    N     N_R   1.000000 0.500000 0.743810 -0.216546
N2    N     N_R   0.000000 0.500000 0.256190 -0.216550
N3    N     N_R   0.500000 0.000000 0.743810 -0.216550
N4    N     N_R   0.500000 0.000000 0.256190 -0.216556
C81   C     C_R   0.940696 0.501287 0.897238 -0.087053
C82   C     C_R   0.059269 0.501332 0.102753 -0.087139
C83   C     C_R   0.059268 0.498667 0.897241 -0.087144
C84   C     C_R   0.940703 0.498660 0.102778 -0.087062
C85   C     C_R   0.440699 0.001288 0.897238 -0.087056
C86   C     C_R   0.559269 0.001336 0.102752 -0.087144
C87   C     C_R   0.559268 0.998663 0.897239 -0.087140
C88   C     C_R   0.440709 0.998652 0.102775 -0.087077
C89   C     C_R   0.999980 0.499989 0.948638 0.035333
C90   C     C_R   0.999982 0.499986 0.051365 0.035300
C91   C     C_R   0.499982 0.999987 0.948636 0.035334
C92   C     C_R   0.499985 0.999984 0.051365 0.035302
C93   C     C_R   0.881206 0.504782 0.950144 -0.041185
C94   C     C_R   0.118745 0.504895 0.049850 -0.041041
C95   C     C_R   0.118746 0.495117 0.950138 -0.041045
C96   C     C_R   0.881216 0.495098 0.049900 -0.041123
C97   C     C_R   0.381212 0.004784 0.950144 -0.041169
C98   C     C_R   0.618741 0.004900 0.049844 -0.041045
C99   C     C_R   0.618745 0.995113 0.950136 -0.041045
C100  C     C_R   0.381227 0.995086 0.049894 -0.041119
C101  C     C_R   0.116331 0.532411 0.748945 0.180909
C102  C     C_R   0.162157 0.496299 0.699455 -0.073910
C103  C     C_R   0.221613 0.521908 0.670074 -0.181606
C104  C     C_R   0.236025 0.583264 0.690747 -0.116639
C105  C     C_R   0.189925 0.620034 0.736881 -0.140043
C106  C     C_R   0.130428 0.594758 0.766186 -0.150255
H33   H     H_    0.154671 0.447459 0.691050 0.147084
H34   H     H_    0.257974 0.493523 0.635483 0.121009
H35   H     H_    0.282882 0.602366 0.670665 0.134999
H36   H     H_    0.200874 0.667757 0.751750 0.129017
H37   H     H_    0.096079 0.623206 0.805036 0.116725
C107  C     C_R   0.883742 0.532609 0.251009 0.180917
C108  C     C_R   0.837842 0.496657 0.300662 -0.073960
C109  C     C_R   0.778479 0.522444 0.330044 -0.181275
C110  C     C_R   0.764240 0.583825 0.309238 -0.116119
C111  C     C_R   0.810419 0.620437 0.262945 -0.140314
C112  C     C_R   0.869820 0.594980 0.233624 -0.150430
H38   H     H_    0.845205 0.447811 0.309225 0.146992
H39   H     H_    0.742060 0.494187 0.364776 0.120731
H40   H     H_    0.717458 0.603071 0.329350 0.135071
H41   H     H_    0.799606 0.668178 0.247971 0.128967
H42   H     H_    0.904232 0.623310 0.194663 0.116690
C113  C     C_R   0.883740 0.467400 0.748967 0.180955
C114  C     C_R   0.837847 0.503385 0.699360 -0.073950
C115  C     C_R   0.778485 0.477616 0.669932 -0.181154
C116  C     C_R   0.764239 0.416224 0.690657 -0.116120
C117  C     C_R   0.810412 0.379580 0.736900 -0.140346
C118  C     C_R   0.869813 0.405017 0.766263 -0.150374
H43   H     H_    0.845216 0.552236 0.690862 0.146912
H44   H     H_    0.742071 0.505896 0.635232 0.120733
H45   H     H_    0.717456 0.396992 0.670517 0.135056
H46   H     H_    0.799595 0.331829 0.751803 0.128985
H47   H     H_    0.904222 0.376661 0.805184 0.116682
C119  C     C_R   0.116336 0.467604 0.251050 0.180888
C120  C     C_R   0.162154 0.503722 0.300541 -0.073867
C121  C     C_R   0.221604 0.478116 0.329944 -0.181600
C122  C     C_R   0.236021 0.416759 0.309290 -0.116648
C123  C     C_R   0.189932 0.379984 0.263147 -0.140034
C124  C     C_R   0.130439 0.405256 0.233821 -0.150257
H48   H     H_    0.154665 0.552562 0.308935 0.147086
H49   H     H_    0.257958 0.506505 0.364539 0.121020
H50   H     H_    0.282873 0.397659 0.329394 0.135001
H51   H     H_    0.200884 0.332260 0.248292 0.129021
H52   H     H_    0.096098 0.376803 0.194970 0.116723
C125  C     C_R   0.616342 0.032375 0.748934 0.180911
C126  C     C_R   0.662158 0.996239 0.699466 -0.073906
C127  C     C_R   0.721626 0.021821 0.670085 -0.181655
C128  C     C_R   0.736063 0.083174 0.690740 -0.116712
C129  C     C_R   0.689975 0.119969 0.736854 -0.140007
C130  C     C_R   0.630465 0.094719 0.766156 -0.150236
H53   H     H_    0.654653 0.947400 0.691080 0.147098
H54   H     H_    0.757977 0.993417 0.635512 0.121063
H55   H     H_    0.782929 0.102255 0.670663 0.134989
H56   H     H_    0.700944 0.167690 0.751709 0.129019
H57   H     H_    0.596126 0.123186 0.804992 0.116723
C131  C     C_R   0.383732 0.032571 0.251007 0.180924
C132  C     C_R   0.337840 0.996598 0.300638 -0.073946
C133  C     C_R   0.278460 0.022358 0.330001 -0.181345
C134  C     C_R   0.264194 0.083732 0.309192 -0.116202
C135  C     C_R   0.310362 0.120363 0.262914 -0.140275
C136  C     C_R   0.369782 0.094935 0.233620 -0.150425
H58   H     H_    0.345220 0.947753 0.309192 0.147016
H59   H     H_    0.242049 0.994084 0.364717 0.120775
H60   H     H_    0.217400 0.102956 0.329283 0.135056
H61   H     H_    0.299527 0.168098 0.247928 0.128973
H62   H     H_    0.404185 0.123279 0.194668 0.116694
C137  C     C_R   0.383724 0.967444 0.748958 0.180950
C138  C     C_R   0.337846 0.003460 0.699378 -0.073941
C139  C     C_R   0.278468 0.977727 0.669951 -0.181232
C140  C     C_R   0.264188 0.916339 0.690655 -0.116222
C141  C     C_R   0.310344 0.879666 0.736878 -0.140289
C142  C     C_R   0.369762 0.905067 0.766236 -0.150351
H63   H     H_    0.345240 0.052310 0.690903 0.146938
H64   H     H_    0.242067 0.006031 0.635275 0.120802
H65   H     H_    0.217393 0.897135 0.670519 0.135046
H66   H     H_    0.299499 0.831918 0.751768 0.128994
H67   H     H_    0.404157 0.876688 0.805141 0.116685
C143  C     C_R   0.616344 0.967636 0.251057 0.180903
C144  C     C_R   0.662156 0.003775 0.300526 -0.073860
C145  C     C_R   0.721619 0.978193 0.329916 -0.181648
C146  C     C_R   0.736058 0.916840 0.309268 -0.116718
C147  C     C_R   0.689976 0.880044 0.263149 -0.140006
C148  C     C_R   0.630469 0.905292 0.233839 -0.150242
H68   H     H_    0.654652 0.052615 0.308904 0.147096
H69   H     H_    0.757968 0.006598 0.364490 0.121061
H70   H     H_    0.782921 0.897759 0.329354 0.134988
H71   H     H_    0.700945 0.832324 0.248298 0.129024
H72   H     H_    0.596133 0.876824 0.195002 0.116721
C149  C     C_R   0.820895 0.531097 0.906917 0.100295
C150  C     C_R   0.763830 0.495682 0.894983 -0.101022
C151  C     C_R   0.706584 0.522820 0.860223 -0.142702
C152  C     C_R   0.706169 0.585002 0.835127 -0.124504
C153  C     C_R   0.762741 0.620378 0.845915 -0.143611
C154  C     C_R   0.819760 0.593730 0.882304 -0.179395
H73   H     H_    0.763654 0.447301 0.913212 0.140567
H74   H     H_    0.662804 0.495409 0.851616 0.121740
H75   H     H_    0.662035 0.605758 0.807205 0.123351
H76   H     H_    0.762315 0.668551 0.826522 0.130613
H77   H     H_    0.863014 0.621862 0.891561 0.130343
C155  C     C_R   0.178921 0.531558 0.092933 0.100303
C156  C     C_R   0.236177 0.496445 0.105051 -0.101686
C157  C     C_R   0.293254 0.523913 0.139759 -0.143040
C158  C     C_R   0.293307 0.586124 0.164627 -0.124321
C159  C     C_R   0.236542 0.621200 0.153666 -0.143651
C160  C     C_R   0.179692 0.594221 0.117330 -0.179049
H78   H     H_    0.236629 0.448039 0.087042 0.140868
H79   H     H_    0.337183 0.496734 0.148514 0.121812
H80   H     H_    0.337308 0.607136 0.192513 0.123467
H81   H     H_    0.236681 0.669395 0.172887 0.130517
H82   H     H_    0.136280 0.622121 0.107952 0.130296
C161  C     C_R   0.178925 0.468459 0.907051 0.100330
C162  C     C_R   0.236181 0.503573 0.894943 -0.101665
C163  C     C_R   0.293262 0.476109 0.860235 -0.143065
C164  C     C_R   0.293317 0.413899 0.835358 -0.124320
C165  C     C_R   0.236552 0.378822 0.846310 -0.143648
C166  C     C_R   0.179700 0.405797 0.882646 -0.179057
H83   H     H_    0.236630 0.551978 0.912958 0.140872
H84   H     H_    0.337189 0.503289 0.851487 0.121811
H85   H     H_    0.337321 0.392890 0.807471 0.123470
H86   H     H_    0.236695 0.330627 0.827081 0.130527
H87   H     H_    0.136288 0.377896 0.892018 0.130295
C167  C     C_R   0.820950 0.468702 0.093176 0.100232
C168  C     C_R   0.763818 0.504030 0.105117 -0.101060
C169  C     C_R   0.706632 0.476813 0.139971 -0.142771
C170  C     C_R   0.706345 0.414642 0.165156 -0.124466
C171  C     C_R   0.762983 0.379353 0.154365 -0.143565
C172  C     C_R   0.819941 0.406079 0.117883 -0.179349
H88   H     H_    0.763544 0.552406 0.086841 0.140644
H89   H     H_    0.662799 0.504157 0.148586 0.121739
H90   H     H_    0.662256 0.393824 0.193155 0.123396
H91   H     H_    0.762657 0.331188 0.173832 0.130619
H92   H     H_    0.863251 0.378013 0.108635 0.130347
C173  C     C_R   0.320914 0.031154 0.906950 0.100281
C174  C     C_R   0.263816 0.995783 0.894991 -0.101114
C175  C     C_R   0.206589 0.022976 0.860255 -0.142736
C176  C     C_R   0.206225 0.085168 0.835210 -0.124461
C177  C     C_R   0.262828 0.120500 0.846025 -0.143610
C178  C     C_R   0.319827 0.093796 0.882388 -0.179340
H93   H     H_    0.263600 0.947395 0.913177 0.140610
H94   H     H_    0.162784 0.995599 0.851626 0.121736
H95   H     H_    0.162106 0.105966 0.807305 0.123351
H96   H     H_    0.262443 0.168681 0.826672 0.130585
H97   H     H_    0.363107 0.121895 0.891665 0.130330
C179  C     C_R   0.678904 0.031579 0.092905 0.100352
C180  C     C_R   0.736162 0.996485 0.105019 -0.101718
C181  C     C_R   0.793229 0.023967 0.139705 -0.143102
C182  C     C_R   0.793265 0.086176 0.164553 -0.124343
C183  C     C_R   0.736497 0.121234 0.153592 -0.143703
C184  C     C_R   0.679659 0.094241 0.117274 -0.179063
H98   H     H_    0.736623 0.948081 0.087027 0.140900
H99   H     H_    0.837155 0.996803 0.148459 0.121849
H100  H     H_    0.837253 0.107197 0.192428 0.123501
H101  H     H_    0.736623 0.169426 0.172802 0.130531
H102  H     H_    0.636246 0.122125 0.107896 0.130314
C185  C     C_R   0.678919 0.968431 0.907071 0.100325
C186  C     C_R   0.736190 0.003526 0.894955 -0.101683
C187  C     C_R   0.793266 0.976036 0.860277 -0.143082
C188  C     C_R   0.793303 0.913822 0.835440 -0.124308
C189  C     C_R   0.736525 0.878763 0.846401 -0.143657
C190  C     C_R   0.679677 0.905763 0.882706 -0.179050
H103  H     H_    0.736654 0.051934 0.912942 0.140893
H104  H     H_    0.837205 0.003202 0.851523 0.121808
H105  H     H_    0.837303 0.892794 0.807578 0.123474
H106  H     H_    0.736653 0.830566 0.827205 0.130523
H107  H     H_    0.636254 0.877877 0.892087 0.130292
C191  C     C_R   0.320987 0.968648 0.093140 0.100293
C192  C     C_R   0.263843 0.003934 0.105093 -0.101160
C193  C     C_R   0.206685 0.976680 0.139930 -0.142883
C194  C     C_R   0.206442 0.914514 0.165088 -0.124492
C195  C     C_R   0.263094 0.879267 0.154285 -0.143631
C196  C     C_R   0.320024 0.906028 0.117817 -0.179332
H108  H     H_    0.263542 0.052307 0.086846 0.140707
H109  H     H_    0.162847 0.003992 0.148557 0.121800
H110  H     H_    0.162380 0.893671 0.193078 0.123453
H111  H     H_    0.262803 0.831106 0.173735 0.130634
H112  H     H_    0.363344 0.877997 0.108560 0.130371

loop_
_geom_bond_atom_site_label_1
_geom_bond_atom_site_label_2
_geom_bond_distance
_ccdc_geom_bond_type
C111  H41   1.082224 S    
C149  C154  1.405504 A    
C101  C102  1.406211 A    
C137  C138  1.406223 A    
C14   C22   1.396582 A    
C89   C90   1.441540 A    
C187  H104  1.082269 S    
C180  C181  1.398536 A    
C114  C115  1.399288 A    
C57   C69   1.395388 A    
C171  C172  1.398602 A    
C146  H70   1.081574 S    
C38   C62   1.401911 A    
O6    Cu1   1.948067 S    
C184  H102  1.083080 S    
C42   C50   1.413027 A    
C169  H89   1.082415 S    
C175  C176  1.397545 A    
C193  C194  1.397416 A    
C125  C130  1.407389 A    
C195  C196  1.398379 A    
Cu1   N1    2.054233 S    
C84   C96   1.426918 A    
C149  C150  1.408157 A    
C8    C21   1.441332 S    
C176  H95   1.082461 S    
C21   C29   1.394980 A    
C9    C49   1.395425 A    
C126  C127  1.399251 A    
C120  C121  1.399263 A    
C188  C189  1.397428 A    
C115  C116  1.397253 A    
O10   C6    1.311121 A    
C60   C72   1.395385 A    
C134  C135  1.395480 A    
C161  C166  1.405461 A    
C182  C183  1.397250 A    
O11   Cu3   1.948087 S    
C60   H20   1.083809 S    
O2    Cu2   1.948149 S    
C97   C100  1.415511 A    
C65   H25   1.083673 S    
C98   C99   1.415318 A    
C77   C87   1.443991 A    
C13   C53   1.395425 A    
C107  C108  1.406209 A    
C43   C51   1.413029 A    
C102  C103  1.399261 A    
C16   C24   1.396600 A    
C17   C25   1.394982 A    
C179  C180  1.407891 A    
C19   C27   1.395027 A    
C170  H90   1.082550 S    
C20   C28   1.394996 A    
C172  H92   1.083389 S    
C137  C142  1.407416 A    
C64   C68   1.395381 A    
C139  H64   1.081500 S    
C193  H109  1.082127 S    
C160  H82   1.083251 S    
C10   H2    1.084119 S    
C138  H63   1.079757 S    
O9    C5    1.300912 A    
C76   C119  1.480738 S    
C85   C91   1.410816 A    
C51   C68   1.401671 A    
C131  C132  1.406203 A    
C74   N2    1.387611 A    
C31   H15   1.082461 S    
C122  C123  1.395505 A    
C117  H46   1.082251 S    
C101  C106  1.407387 A    
C165  C166  1.398437 A    
C179  C184  1.405343 A    
C119  C120  1.406215 A    
C144  H68   1.079766 S    
C91   C92   1.441549 A    
O15   Cu4   1.948157 S    
C10   C18   1.396584 A    
C189  H106  1.082442 S    
O7    Cu2   1.948157 S    
C163  H84   1.082243 S    
C53   C70   1.401675 A    
C109  C110  1.397215 A    
C46   C54   1.413023 A    
C29   C37   1.392604 A    
C145  C146  1.397175 A    
O13   C7    1.300888 A    
C156  C157  1.398688 A    
O14   C8    1.311113 A    
C177  H96   1.082536 S    
C76   C82   1.444008 A    
C32   C40   1.392596 A    
C39   C47   1.410693 A    
C120  H48   1.079753 S    
C33   C41   1.410694 A    
C123  H51   1.082220 S    
C35   C43   1.410702 A    
C36   C44   1.410701 A    
C15   C23   1.396591 A    
C59   C71   1.395392 A    
C79   C85   1.444095 A    
C80   N4    1.387556 A    
C77   C125  1.480724 S    
C24   C32   1.394978 A    
O16   Cu3   1.948160 S    
C11   C51   1.395415 A    
C98   C179  1.488411 S    
C171  H91   1.082605 S    
C64   H24   1.083814 S    
C71   H31   1.083677 S    
C146  C147  1.395511 A    
C150  H73   1.082901 S    
C165  H86   1.082492 S    
O8    C3    1.311134 A    
C63   H23   1.083804 S    
C169  C170  1.397598 A    
C152  H75   1.082414 S    
Cu1   Cu2   2.734112 S    
C147  H71   1.082206 S    
C186  H103  1.082838 S    
C113  C114  1.406241 A    
C145  H69   1.081500 S    
C88   C100  1.426865 A    
C67   H27   1.083673 S    
C177  C178  1.398542 A    
Cu2   N2    2.054233 S    
C76   N2    1.387575 A    
C5    C24   1.441328 S    
C87   C99   1.426853 A    
C6    C23   1.441332 S    
C108  H38   1.079718 S    
C173  C174  1.408222 A    
C86   C98   1.426813 A    
C57   H17   1.083807 S    
C142  H67   1.083282 S    
C119  C124  1.407389 A    
C22   C30   1.395019 A    
C102  H33   1.079755 S    
O15   C8    1.300907 A    
O16   C7    1.311130 A    
C167  C172  1.405578 A    
C47   C55   1.413027 A    
C9    C17   1.396591 A    
C52   C67   1.401672 A    
C113  C118  1.407428 A    
C188  H105  1.082347 S    
C150  C151  1.398684 A    
C164  H85   1.082371 S    
C151  H74   1.082306 S    
C159  C160  1.398449 A    
C161  C162  1.408075 A    
C182  H100  1.082190 S    
C48   C56   1.413024 A    
C127  H54   1.081484 S    
O1    C1    1.300917 A    
C36   C60   1.401914 A    
C126  H53   1.079757 S    
C132  H58   1.079726 S    
C75   C113  1.480685 S    
C157  C158  1.397483 A    
C178  H97   1.083344 S    
C4    C17   1.441331 S    
C85   C97   1.426999 A    
C129  H56   1.082225 S    
C82   C90   1.410830 A    
C83   C95   1.426876 A    
C123  C124  1.396833 A    
C18   C26   1.395025 A    
C56   C71   1.401681 A    
C189  C190  1.398430 A    
C128  C129  1.395503 A    
C140  C141  1.395507 A    
C167  C168  1.408270 A    
C79   C137  1.480686 S    
C155  C160  1.405464 A    
C50   C65   1.401663 A    
C61   C65   1.395389 A    
C63   C67   1.395387 A    
C185  C186  1.408102 A    
C138  C139  1.399268 A    
C105  C106  1.396828 A    
C12   C52   1.395411 A    
C132  C133  1.399239 A    
C58   C70   1.395395 A    
O12   Cu4   1.948087 S    
C81   C89   1.410834 A    
C39   C63   1.401912 A    
C74   C107  1.480696 S    
C72   H32   1.083672 S    
C73   C101  1.480727 S    
C131  C136  1.407373 A    
C73   N1    1.387568 A    
C122  H50   1.081595 S    
C121  H49   1.081494 S    
C174  C175  1.398750 A    
C125  C126  1.406203 A    
C135  H61   1.082205 S    
C43   C48   1.400737 A    
C97   C173  1.488708 S    
C128  H55   1.081579 S    
C144  C145  1.399243 A    
O13   Cu4   1.948070 S    
O14   Cu3   1.948067 S    
C68   H28   1.083674 S    
C191  C192  1.407981 A    
C153  H76   1.082525 S    
C163  C164  1.397481 A    
O8    Cu1   1.948160 S    
C10   C50   1.395421 A    
C109  H39   1.081479 S    
C183  H101  1.082386 S    
C27   H11   1.082464 S    
C156  H78   1.082860 S    
C30   C38   1.392597 A    
O3    Cu1   1.948087 S    
C158  H80   1.082380 S    
C84   C90   1.410795 A    
C29   H13   1.082474 S    
C34   C42   1.410689 A    
C62   C66   1.395396 A    
C181  H99   1.082059 S    
C82   C94   1.426847 A    
C192  C193  1.398570 A    
C1    C20   1.441321 S    
C33   C57   1.401911 A    
C2    C19   1.441333 S    
C3    C18   1.441335 S    
C35   C59   1.401917 A    
C103  C104  1.397190 A    
C115  H44   1.081533 S    
C15   C55   1.395416 A    
C26   C34   1.392592 A    
C186  C187  1.398690 A    
C153  C154  1.398509 A    
C194  H110  1.082290 S    
C16   H8    1.084118 S    
C104  H35   1.081590 S    
C96   C167  1.488824 S    
C14   C54   1.395419 A    
O4    C1    1.311102 A    
C95   C161  1.488603 S    
C190  H107  1.083260 S    
C143  C144  1.406214 A    
C152  C153  1.397500 A    
O9    Cu3   1.948150 S    
C110  H40   1.081603 S    
O10   Cu4   1.948149 S    
C136  H62   1.083253 S    
C147  C148  1.396815 A    
C93   C149  1.488679 S    
Cu4   N4    2.054233 S    
C75   N1    1.387654 A    
C37   C45   1.410693 A    
O4    Cu2   1.948087 S    
O5    C3    1.300885 A    
O6    C4    1.311112 A    
C173  C178  1.405525 A    
C13   C21   1.396597 A    
C175  H94   1.082368 S    
C168  C169  1.398790 A    
Cu3   N3    2.054233 S    
C121  C122  1.397187 A    
C9    H1    1.084114 S    
C23   C31   1.395004 A    
C187  C188  1.397451 A    
C69   H29   1.083675 S    
C180  H98   1.082764 S    
C11   H3    1.084121 S    
C14   H6    1.084119 S    
C194  C195  1.397321 A    
O5    Cu2   1.948070 S    
C162  C163  1.398675 A    
C40   C48   1.410703 A    
O7    C4    1.300909 A    
C61   H21   1.083808 S    
C30   H14   1.082476 S    
C164  C165  1.397416 A    
C13   H5    1.084114 S    
C159  H81   1.082488 S    
C116  C117  1.395516 A    
C34   C58   1.401913 A    
C110  C111  1.395481 A    
C166  H87   1.083240 S    
O2    C2    1.311123 A    
C108  C109  1.399261 A    
C78   C131  1.480688 S    
C157  H79   1.082257 S    
C88   C92   1.410726 A    
C129  C130  1.396825 A    
C73   C83   1.444006 A    
C87   C91   1.410808 A    
C26   H10   1.082465 S    
C74   C84   1.444050 A    
C7    C22   1.441333 S    
C112  H42   1.083261 S    
C54   C69   1.401667 A    
C176  C177  1.397546 A    
C79   N3    1.387650 A    
C133  H59   1.081473 S    
C196  H112  1.083141 S    
C140  H65   1.081606 S    
C28   H12   1.082480 S    
C45   C53   1.413021 A    
O3    C2    1.300900 A    
C192  H108  1.082818 S    
C16   C56   1.395419 A    
C130  H57   1.083273 S    
C38   C46   1.410690 A    
C141  C142  1.396830 A    
C162  H83   1.082856 S    
C148  H72   1.083281 S    
C105  H36   1.082218 S    
C143  C148  1.407380 A    
C44   C52   1.413026 A    
C141  H66   1.082247 S    
C77   N3    1.387565 A    
C185  C190  1.405442 A    
O1    Cu1   1.948150 S    
C70   H30   1.083674 S    
C81   C93   1.427034 A    
C15   H7    1.084118 S    
C41   C46   1.400745 A    
C80   C86   1.444024 A    
C107  C112  1.407396 A    
C99   C185  1.488598 S    
C174  H93   1.082909 S    
C44   C47   1.400738 A    
C86   C92   1.410765 A    
C135  C136  1.396786 A    
C62   H22   1.083805 S    
C66   H26   1.083671 S    
C93   C96   1.415552 A    
C133  C134  1.397194 A    
C170  C171  1.397588 A    
C168  H88   1.082949 S    
O12   C5    1.311106 A    
C117  C118  1.396841 A    
C94   C155  1.488611 S    
C191  C196  1.405393 A    
C155  C156  1.408088 A    
C139  C140  1.397233 A    
C58   H18   1.083807 S    
C25   H9    1.082473 S    
C55   C72   1.401673 A    
C183  C184  1.398292 A    
C12   H4    1.084119 S    
C134  H60   1.081581 S    
C37   C61   1.401913 A    
C31   C39   1.392586 A    
C158  C159  1.397429 A    
Cu3   Cu4   2.734112 S    
C78   C88   1.444054 A    
C111  C112  1.396814 A    
C27   C35   1.392589 A    
C124  H52   1.083275 S    
C41   C49   1.413019 A    
C154  H77   1.083289 S    
C28   C36   1.392595 A    
C181  C182  1.397368 A    
C83   C89   1.410833 A    
C42   C45   1.400745 A    
C103  H34   1.081495 S    
C78   N4    1.387571 A    
C100  C191  1.488566 S    
C151  C152  1.397525 A    
O11   C6    1.300901 A    
C94   C95   1.415343 A    
C59   H19   1.083814 S    
C104  C105  1.395503 A    
C40   C64   1.401914 A    
C11   C19   1.396591 A    
C116  H45   1.081623 S    
C12   C20   1.396594 A    
C114  H43   1.079754 S    
C25   C33   1.392601 A    
C106  H37   1.083278 S    
C32   H16   1.082475 S    
C195  H111  1.082454 S    
C118  H47   1.083308 S    
C75   C81   1.444117 A    
C127  C128  1.397189 A    
C80   C143  1.480729 S    
C49   C66   1.401673 A    
