data_mof_unit_16523.cif
_audit_creation_date              2012-10-26T18:28:22-0400
_audit_creation_method            fapswitch 2.2
_symmetry_space_group_name_H-M    P1
_symmetry_Int_Tables_number       1
_space_group_crystal_system       triclinic
_cell_length_a                    27.790543
_cell_length_b                    11.040033
_cell_length_c                    9.809254
_cell_angle_alpha                 111.083489
_cell_angle_beta                  97.882647
_cell_angle_gamma                 91.827981
_cell_volume                      2770.7959563

loop_
_atom_site_label
_atom_site_type_symbol
_atom_type_description
_atom_site_fract_x
_atom_site_fract_y
_atom_site_fract_z
_atom_type_partial_charge
C1    C     C_R   0.496447 0.254019 0.440544 0.564387
C2    C     C_R   0.868296 0.399323 0.470131 -0.023277
C3    C     C_R   0.354518 0.492660 0.502854 0.004024
C4    C     C_R   0.645527 0.508343 0.498045 0.003702
C5    C     C_R   0.970163 0.387939 0.480750 0.013658
C6    C     C_R   0.031261 0.622005 0.549257 0.028570
C7    C     C_R   0.980773 0.626894 0.563727 0.022238
C8    C     C_R   0.020592 0.382252 0.469071 0.007477
C9    C     C_R   0.950041 0.510149 0.518515 -0.027557
C10   C     C_R   0.051213 0.498675 0.508583 -0.025023
C11   C     C_R   0.939226 0.277165 0.466324 0.244902
C12   C     C_R   0.503553 0.745981 0.559456 0.564406
C13   C     C_R   0.061865 0.734880 0.565910 0.255491
C14   C     C_R   0.888776 0.281218 0.445437 -0.098064
C15   C     C_R   0.112090 0.724362 0.564086 -0.110012
C16   C     C_R   0.407446 0.498324 0.501077 0.554246
C17   C     C_R   0.592558 0.501835 0.499013 0.554596
C18   C     C_R   0.040580 0.262505 0.407437 -0.098656
C19   C     C_R   0.960562 0.744824 0.633389 -0.076964
C20   C     C_2   0.494528 0.114624 0.406972 -0.121998
C21   C     C_2   0.505472 0.885376 0.593028 -0.121873
C22   C     C_2   0.500889 0.069576 0.516579 -0.154685
C23   C     C_R   0.101990 0.491161 0.503509 -0.054114
C24   C     C_2   0.499111 0.930423 0.483421 -0.154697
C25   C     C_2   0.504307 0.510814 0.081231 -0.023691
C26   C     C_2   0.495689 0.489196 0.918771 -0.023857
C27   C     C_R   0.173805 0.369039 0.465956 0.395508
C28   C     C_R   0.826779 0.636158 0.551592 0.400141
C29   C     C_R   0.182674 0.600100 0.540804 0.396572
C30   C     C_R   0.817784 0.403970 0.460609 0.397270
C31   C     C_R   0.271482 0.451685 0.370916 -0.058266
C32   C     C_R   0.728260 0.552773 0.632306 -0.059422
C33   C     C_R   0.321579 0.457611 0.369794 -0.140107
C34   C     C_R   0.898879 0.515803 0.517215 -0.056380
C35   C     C_R   0.678130 0.545766 0.631983 -0.139169
C36   C     C_R   0.336359 0.520562 0.636840 -0.143840
C37   C     C_R   0.664082 0.479134 0.364514 -0.143795
C38   C     C_R   0.286169 0.515213 0.637671 -0.056956
C39   C     C_R   0.714384 0.485479 0.365115 -0.053412
C40   C     C_R   0.253672 0.481015 0.504755 0.250132
C41   C     C_R   0.746551 0.522136 0.499069 0.246829
C42   C     C_3   0.107641 0.118069 0.348289 -0.359234
C43   C     C_3   0.893143 0.884928 0.710070 -0.353841
C44   C     C_3   0.950247 0.161079 0.620291 0.003787
C45   C     C_R   0.122451 0.369150 0.460641 0.040333
C46   C     C_3   0.982390 0.266766 0.752379 -0.277997
C47   C     C_3   0.978717 0.247234 0.897023 -0.480899
C48   C     C_3   0.068901 0.966300 0.640427 -0.006334
C49   C     C_3   0.082005 0.992360 0.806974 -0.291618
C50   C     C_3   0.109963 0.125860 0.890071 -0.465839
C51   C     C_R   0.878350 0.637077 0.565279 0.044235
C52   C     C_R   0.090605 0.253321 0.408474 -0.026699
C53   C     C_R   0.910338 0.752633 0.632099 -0.009016
C54   C     C_R   0.132341 0.606029 0.539034 -0.021493
Cu1   Cu    Cu3+1 0.508480 0.521810 0.644910 0.944718
Cu2   Cu    Cu3+1 0.491520 0.478190 0.355090 0.944535
H1    H     H_    0.360861 0.547566 0.740953 0.130707
H2    H     H_    0.728404 0.460828 0.261653 0.128806
H3    H     H_    0.664968 0.569512 0.736681 0.135105
H4    H     H_    0.334457 0.434972 0.264812 0.133424
H5    H     H_    0.753014 0.580060 0.735988 0.125226
H6    H     H_    0.246421 0.426157 0.268052 0.121046
H7    H     H_    0.865953 0.192341 0.421652 0.173383
H8    H     H_    0.135958 0.807690 0.576439 0.158935
H9    H     H_    0.017259 0.173702 0.350543 0.186034
H10   H     H_    0.983802 0.832195 0.697547 0.159227
H11   H     H_    0.492519 0.864438 0.368198 0.157551
H12   H     H_    0.639814 0.450305 0.259771 0.131009
H13   H     H_    0.507481 0.135561 0.631802 0.157629
H14   H     H_    0.076942 0.040556 0.308474 0.115111
H15   H     H_    0.126673 0.107648 0.252858 0.168812
H16   H     H_    0.132055 0.099362 0.436692 0.178141
H17   H     H_    0.923939 0.960261 0.769043 0.081143
H18   H     H_    0.871427 0.918189 0.628527 0.184485
H19   H     H_    0.871268 0.880350 0.794957 0.177445
H20   H     H_    0.960021 0.064060 0.619063 0.170935
H21   H     H_    0.911190 0.165562 0.634401 0.129518
H22   H     H_    0.020929 0.264533 0.733866 0.166535
H23   H     H_    0.512078 0.951631 0.708059 0.106441
H24   H     H_    0.970655 0.364552 0.762853 0.165586
H25   H     H_    0.940537 0.253143 0.919049 0.159997
H26   H     H_    0.002508 0.324375 0.989905 0.159752
H27   H     H_    0.990677 0.150963 0.891642 0.141647
H28   H     H_    0.046483 0.044356 0.629090 0.170945
H29   H     H_    0.101283 0.977166 0.589842 0.129400
H30   H     H_    0.048211 0.988060 0.854186 0.148666
H31   H     H_    0.105030 0.917642 0.825310 0.166428
H32   H     H_    0.144555 0.131172 0.846804 0.165629
H33   H     H_    0.118771 0.142224 0.009533 0.156347
H34   H     H_    0.487922 0.048369 0.291941 0.106295
H35   H     H_    0.087714 0.204145 0.878072 0.147948
H36   H     H_    0.467129 0.416347 0.845945 0.146103
H37   H     H_    0.532864 0.583670 0.154058 0.146520
H38   H     H_    0.548119 0.623073 0.934325 0.203963
H39   H     H_    0.451884 0.376920 0.065673 0.203534
H40   H     H_    0.272476 0.538814 0.741538 0.123539
N1    N     N_R   0.202217 0.483334 0.506089 -0.394208
N2    N     N_R   0.798163 0.520886 0.500110 -0.394462
N3    N     N_2   0.478780 0.445430 0.137360 -0.352581
N4    N     N_2   0.521220 0.554570 0.862640 -0.352430
O1    O     O_R   0.504520 0.332330 0.577400 -0.495937
O2    O     O_2   0.804974 0.748256 0.587377 -0.508148
O3    O     O_2   0.788368 0.292406 0.414665 -0.496323
O4    O     O_2   0.212071 0.710383 0.576266 -0.500286
O5    O     O_3   0.958078 0.167725 0.483160 -0.592469
O6    O     O_3   0.040477 0.846055 0.559264 -0.582922
O7    O     O_R   0.495480 0.667670 0.422600 -0.496058
O8    O     O_R   0.490210 0.295500 0.332650 -0.487655
O9    O     O_R   0.509790 0.704500 0.667350 -0.487611
O10   O     O_R   0.437420 0.518430 0.622370 -0.500037
O11   O     O_R   0.562580 0.481570 0.377630 -0.499544
O12   O     O_R   0.423110 0.481600 0.377610 -0.493800
O13   O     O_R   0.576890 0.518400 0.622390 -0.493734
O14   O     O_2   0.195643 0.257051 0.432436 -0.513713

loop_
_geom_bond_atom_site_label_1
_geom_bond_atom_site_label_2
_ccdc_geom_bond_type
C43   H17   S    
C38   C40   A    
Cu1   Cu2   S    
C25   H37   S    
C23   C45   A    
C49   H31   S    
C18   C52   A    
C39   C41   A    
C44   O5    S    
C18   H9    S    
C34   C51   A    
C44   H21   S    
C32   H5    S    
C5    C11   A    
C28   C51   A    
H39   N3    S    
C29   C54   A    
C3    C33   A    
C26   H36   S    
C16   O10   A    
C37   H12   S    
C42   H14   S    
C31   C40   A    
C19   H10   S    
C35   H3    S    
C47   H26   S    
C44   H20   S    
Cu2   O8    S    
C24   H11   S    
C43   C53   S    
C48   O6    S    
C44   C46   S    
C30   O3    S    
C11   O5    S    
C15   H8    S    
C31   C33   A    
C47   H27   S    
C22   H13   S    
C50   H32   S    
C2    C34   A    
C43   H18   S    
C19   C53   A    
C4    C35   A    
Cu1   O9    S    
C31   H6    S    
C17   O11   A    
C12   O9    A    
C25   N3    D    
C43   H19   S    
C17   O13   A    
C32   C35   A    
C36   H1    S    
C40   N1    S    
C46   H22   S    
Cu1   O13   S    
C45   C52   A    
C25   C26   S    
C39   H2    S    
C20   H34   S    
C12   C21   S    
C8    C18   A    
C48   H28   S    
C29   O4    S    
C51   C53   A    
Cu1   N4    S    
C15   C54   A    
Cu2   O7    S    
C5    C9    A    
C5    C8    A    
C50   H33   S    
H38   N4    S    
C32   C41   A    
C21   H23   S    
C42   H16   S    
C4    C17   S    
C48   C49   S    
C20   C22   D    
C33   H4    S    
C7    C19   A    
C13   C15   A    
Cu1   O10   S    
C9    C34   A    
C22   C24   S    
C1    O1    A    
C16   O12   A    
C23   C54   A    
C28   N2    A    
C7    C9    A    
Cu1   O1    S    
C46   C47   S    
C27   N1    A    
C1    C20   S    
Cu2   O11   S    
C48   H29   S    
C49   H30   S    
C13   O6    S    
C6    C10   A    
C12   O7    A    
C6    C7    A    
C26   N4    D    
C10   C23   A    
C30   N2    A    
C29   N1    A    
C2    C30   A    
C36   C38   A    
C37   C39   A    
C6    C13   A    
C46   H24   S    
C27   C45   A    
C3    C36   A    
C14   H7    S    
C42   H15   S    
C11   C14   A    
C47   H25   S    
C2    C14   A    
C1    O8    A    
C27   O14   S    
C28   O2    S    
C50   H35   S    
C4    C37   A    
C8    C10   A    
C49   C50   S    
C21   C24   D    
C38   H40   S    
C41   N2    S    
Cu2   N3    S    
Cu2   O12   S    
C3    C16   S    
C42   C52   S    
