data_mof_unit_38802.cif
_audit_creation_date              2012-12-10T20:26:24-0500
_audit_creation_method            fapswitch 2.2
_symmetry_space_group_name_H-M    P1
_symmetry_Int_Tables_number       1
_space_group_crystal_system       triclinic
_cell_length_a                    10.744726
_cell_length_b                    10.676413
_cell_length_c                    9.858231
_cell_angle_alpha                 90.135122
_cell_angle_beta                  90.134759
_cell_angle_gamma                 90.063997
_cell_volume                      1130.88128864

loop_
_atom_site_label
_atom_site_type_symbol
_atom_type_description
_atom_site_fract_x
_atom_site_fract_y
_atom_site_fract_z
_atom_type_partial_charge
C1    C     C_R   0.495911 0.259918 0.499895 0.896512
C2    C     C_R   0.565278 0.587128 0.072396 -0.128813
C3    C     C_R   0.565731 0.586756 0.928330 -0.095443
C4    C     C_R   0.262578 0.497999 0.499710 0.935381
C5    C     C_R   0.444798 0.404610 0.928299 0.176245
C6    C     C_3   0.311416 0.366878 0.921379 0.327945
C7    C     C_3   0.311605 0.366165 0.076059 -0.577351
C8    C     C_R   0.495515 0.740111 0.500134 0.879467
C9    C     C_R   0.737388 0.503718 0.500097 0.925429
C10   C     C_2   0.932987 0.508011 0.385466 -0.161232
C11   C     C_2   0.868722 0.518135 0.500633 -0.339482
C12   C     C_R   0.475006 0.128642 0.500151 -0.125403
C13   C     C_2   0.066895 0.515393 0.386629 -0.160529
C14   C     C_2   0.130943 0.488823 0.499069 -0.327199
C15   C     C_R   0.472463 0.064396 0.622773 0.127391
C16   C     C_3   0.173755 0.219708 0.839518 -0.288286
C17   C     C_R   0.452457 0.064461 0.378250 -0.228052
C18   C     C_R   0.452162 0.934915 0.378499 -0.212004
C19   C     C_R   0.473995 0.871385 0.500729 -0.187213
C20   C     C_R   0.470929 0.936521 0.623314 0.192644
C21   C     C_3   0.555539 0.929844 0.743810 0.207109
C22   C     C_3   0.558189 0.072049 0.742234 -0.514557
C23   C     C_R   0.445041 0.404365 0.070784 0.142884
H1    H     H_    0.887407 0.494253 0.288028 0.171041
H2    H     H_    0.088009 0.457100 0.592218 0.135369
H3    H     H_    0.444336 0.113115 0.282315 0.178958
H4    H     H_    0.444119 0.885706 0.282629 0.184802
H5    H     H_    0.646401 0.883523 0.723051 0.083377
H6    H     H_    0.513296 0.116148 0.831835 0.263257
H7    H     H_    0.136572 0.281871 0.758680 0.147548
H8    H     H_    0.116944 0.228358 0.933362 0.155569
H9    H     H_    0.165587 0.121726 0.802849 0.198599
H10   H     H_    0.552777 0.887416 0.933376 0.322284
H11   H     H_    0.651003 0.111001 0.715674 0.154236
H12   H     H_    0.615919 0.658948 0.127046 0.142553
H13   H     H_    0.617420 0.657655 0.874188 0.157349
H14   H     H_    0.252102 0.440676 0.874081 0.092937
H15   H     H_    0.251145 0.439886 0.120435 0.177911
H16   H     H_    0.299754 0.271539 0.121134 0.220773
H17   H     H_    0.911375 0.540512 0.597481 0.147243
H18   H     H_    0.112879 0.540864 0.292617 0.164266
N1    N     N_R   0.499170 0.499140 0.142800 -0.101543
N2    N     N_R   0.499170 0.499180 0.857150 -0.136980
O1    O     O_R   0.500020 0.316790 0.614690 -0.594512
O2    O     O_3   0.492641 0.882582 0.857011 -0.729185
O3    O     O_R   0.500000 0.316760 0.385350 -0.624558
O4    O     O_R   0.319080 0.500020 0.614640 -0.622861
O5    O     O_R   0.319070 0.499980 0.385300 -0.616524
O6    O     O_R   0.500000 0.683240 0.614650 -0.599143
O7    O     O_R   0.499980 0.683210 0.385310 -0.626654
O8    O     O_R   0.680930 0.500020 0.614700 -0.630646
O9    O     O_R   0.680920 0.499980 0.385360 -0.616488
O10   O     O_3   0.300205 0.245663 0.865096 -0.579699
Zn1   Zn    Zn3+2 0.500010 0.500020 0.653130 0.970685
Zn2   Zn    Zn3+2 0.499990 0.499980 0.346870 0.944590

loop_
_geom_bond_atom_site_label_1
_geom_bond_atom_site_label_2
_ccdc_geom_bond_type
C12   C17   A    
O3    Zn2   S    
O5    Zn2   S    
O9    Zn2   S    
C6    C7    S    
C22   H6    S    
O1    Zn1   S    
N1    Zn2   S    
C16   H9    S    
H10   O2    S    
N2    Zn1   S    
C19   C20   A    
C5    C23   A    
C12   C15   A    
O8    Zn1   S    
C13   H18   S    
C2    C3    A    
C5    N2    A    
C6    H14   S    
C10   C13   S    
C21   C22   S    
C16   H8    S    
C5    C6    S    
C23   N1    A    
C3    N2    A    
C15   C20   A    
C9    O9    A    
C3    H13   S    
C2    N1    A    
O4    Zn1   S    
C7    C23   S    
C17   H3    S    
C7    H15   S    
C17   C18   A    
C21   O2    S    
C9    C11   S    
C14   H2    S    
C4    C14   S    
C11   H17   S    
C22   H11   S    
C1    O3    A    
C8    C19   S    
C10   C11   D    
C6    O10   S    
C16   H7    S    
O6    Zn1   S    
C8    O7    A    
C20   C21   S    
C18   C19   A    
C4    O5    A    
C2    H12   S    
C7    H16   S    
C16   O10   S    
C1    O1    A    
C10   H1    S    
C13   C14   D    
C8    O6    A    
C21   H5    S    
C15   C22   S    
C1    C12   S    
C18   H4    S    
O7    Zn2   S    
C4    O4    A    
C9    O8    A    
