data_mof_unit_49889.cif
_audit_creation_date              2012-12-10T17:42:39-0500
_audit_creation_method            fapswitch 2.2
_symmetry_space_group_name_H-M    P1
_symmetry_Int_Tables_number       1
_space_group_crystal_system       triclinic
_cell_length_a                    9.937625
_cell_length_b                    10.666656
_cell_length_c                    13.059255
_cell_angle_alpha                 90.521799
_cell_angle_beta                  69.944455
_cell_angle_gamma                 89.559049
_cell_volume                      1300.21395067

loop_
_atom_site_label
_atom_site_type_symbol
_atom_type_description
_atom_site_fract_x
_atom_site_fract_y
_atom_site_fract_z
_atom_type_partial_charge
C1    C     C_R   0.501011 0.739502 0.495578 0.853380
C2    C     C_R   0.432208 0.481480 0.985201 0.102384
C3    C     C_R   0.454815 0.441257 0.877721 0.070079
C4    C     C_R   0.539370 0.455179 0.030508 0.028764
C5    C     C_R   0.646435 0.363203 0.980808 0.098726
C6    C     C_R   0.655390 0.310187 0.880632 -0.224032
C7    C     C_R   0.563507 0.351539 0.827925 -0.195974
C8    C     C_R   0.547828 0.522107 0.120636 0.372472
C9    C     C_R   0.730324 0.377057 0.133814 -0.258792
C10   C     C_R   0.367881 0.492489 0.822843 -0.113658
C11   C     C_R   0.399445 0.872502 0.338672 -0.196380
C12   C     C_R   0.420087 0.495689 0.704196 0.847259
C13   C     C_R   0.360776 0.938406 0.261078 -0.116738
C14   C     C_R   0.376001 0.067708 0.254319 -0.152537
C15   C     C_R   0.426565 0.131741 0.326919 -0.180224
C16   C     C_R   0.461782 0.066644 0.408622 0.103117
C17   C     C_R   0.453072 0.935448 0.412326 0.091167
C18   C     C_R   0.501989 0.872250 0.488246 -0.100149
C19   C     C_R   0.556474 0.936365 0.558523 -0.208027
C20   C     C_R   0.558432 0.064330 0.558133 -0.209048
C21   C     C_R   0.508653 0.128653 0.485872 -0.103184
C22   C     C_R   0.796876 0.664385 0.641906 -0.138890
C23   C     C_R   0.502475 0.260764 0.495893 0.857941
C24   C     C_R   0.835309 0.742598 0.712896 -0.189171
C25   C     C_R   0.974009 0.739955 0.713991 -0.192679
C26   C     C_R   0.075358 0.659667 0.643562 -0.161131
C27   C     C_R   0.040370 0.579220 0.570543 0.162485
C28   C     C_R   0.896167 0.580252 0.570072 0.177305
C29   C     C_R   0.959569 0.423798 0.432658 -0.126776
C30   C     C_R   0.102569 0.424039 0.432500 -0.101651
C31   C     C_R   0.580084 0.497355 0.295789 0.851218
C32   C     C_R   0.743031 0.326237 0.032181 -0.194317
C33   C     C_R   0.629874 0.472917 0.179151 -0.172735
C34   C     C_R   0.240820 0.556966 0.881519 -0.195772
C35   C     C_R   0.205301 0.577562 0.992946 -0.177284
C36   C     C_R   0.301349 0.542780 0.044394 -0.118279
H1    H     H_    0.794064 0.338194 0.178792 0.168514
H2    H     H_    0.387057 0.772470 0.338980 0.187077
H3    H     H_    0.320775 0.888621 0.204997 0.166213
H4    H     H_    0.348899 0.118570 0.192552 0.137417
H5    H     H_    0.440119 0.231824 0.316766 0.146725
H6    H     H_    0.595597 0.113537 0.616278 0.148779
H7    H     H_    0.931349 0.361441 0.377605 0.143146
H8    H     H_    0.688678 0.673674 0.646010 0.198054
H9    H     H_    0.756738 0.805856 0.767327 0.148095
H10   H     H_    0.003580 0.800823 0.769433 0.146949
H11   H     H_    0.179870 0.663001 0.648600 0.201795
H12   H     H_    0.736136 0.239582 0.841498 0.147743
H13   H     H_    0.181425 0.361820 0.377265 0.144853
H14   H     H_    0.822846 0.253742 0.996599 0.149955
H15   H     H_    0.171204 0.594435 0.840826 0.153351
H16   H     H_    0.269624 0.560410 0.131147 0.187732
H17   H     H_    0.105918 0.625143 0.038708 0.151447
H18   H     H_    0.575145 0.309637 0.749523 0.160078
H19   H     H_    0.593592 0.887233 0.616321 0.144878
N1    N     N_R   0.856860 0.501200 0.500990 -0.118343
N2    N     N_R   0.142450 0.501280 0.501020 -0.119084
O1    O     O_R   0.385310 0.683220 0.500000 -0.642217
O2    O     O_R   0.614640 0.683250 0.500010 -0.626046
O3    O     O_R   0.328400 0.499950 0.653610 -0.625388
O4    O     O_R   0.557730 0.499970 0.653620 -0.626084
O5    O     O_R   0.385360 0.316750 0.499990 -0.613286
O6    O     O_R   0.614690 0.316780 0.500000 -0.618216
O7    O     O_R   0.442270 0.500030 0.346380 -0.601911
O8    O     O_R   0.671600 0.500050 0.346390 -0.607424
Zn1   Zn    Zn3+2 0.346880 0.499980 0.499990 0.931773
Zn2   Zn    Zn3+2 0.653120 0.500020 0.500010 0.930779
O9    O     O_3   0.481855 0.638006 0.147527 -0.805282
H20   H     H_    0.536678 0.687457 0.184080 0.319061

loop_
_geom_bond_atom_site_label_1
_geom_bond_atom_site_label_2
_ccdc_geom_bond_type
C26   C27   A    
C11   H2    S    
C2    C4    A    
C24   C25   A    
C31   C33   S    
O6    Zn2   S    
C16   C21   A    
C29   N1    A    
C35   H17   S    
N1    Zn2   S    
O4    Zn2   S    
C20   H6    S    
C19   C20   A    
C36   H16   S    
N2    Zn1   S    
C4    C8    A    
C5    C32   A    
C2    C36   A    
C23   O6    A    
C2    C3    A    
C1    C18   S    
O3    Zn1   S    
C10   C34   A    
C3    C10   A    
C22   C28   A    
C13   C14   A    
C29   H7    S    
C9    C33   A    
C12   O4    A    
C11   C13   A    
C32   H14   S    
C34   H15   S    
C29   C30   A    
C6    H12   S    
C26   H11   S    
C24   H9    S    
C10   C12   S    
C9    H1    S    
C25   C26   A    
C30   H13   S    
C25   H10   S    
C8    O9    S    
C6    C7    A    
C3    C7    A    
C8    C33   A    
C1    O2    A    
C21   C23   S    
C28   N1    A    
C5    C6    A    
O9    H20   S    
C22   C24   A    
C13   H3    S    
O5    Zn1   S    
C14   H4    S    
C15   C16   A    
C12   O3    A    
C30   N2    A    
C18   C19   A    
C20   C21   A    
C15   H5    S    
C17   C18   A    
C34   C35   A    
C27   N2    A    
C19   H19   S    
C27   C28   A    
C31   O8    A    
C14   C15   A    
C4    C5    A    
C22   H8    S    
C7    H18   S    
O2    Zn2   S    
C9    C32   A    
C1    O1    A    
C31   O7    A    
O1    Zn1   S    
C23   O5    A    
C11   C17   A    
C35   C36   A    
C16   C17   A    
O8    Zn2   S    
O7    Zn1   S    
