data_mof_unit_38524.cif
_audit_creation_date              2012-12-11T15:08:57-0500
_audit_creation_method            fapswitch 2.2
_symmetry_space_group_name_H-M    P1
_symmetry_Int_Tables_number       1
_space_group_crystal_system       triclinic
_cell_length_a                    21.768422
_cell_length_b                    21.918447
_cell_length_c                    23.066728
_cell_angle_alpha                 89.9998
_cell_angle_beta                  89.999917
_cell_angle_gamma                 90.089961
_cell_volume                      11005.8144539

loop_
_atom_site_label
_atom_site_type_symbol
_atom_type_description
_atom_site_fract_x
_atom_site_fract_y
_atom_site_fract_z
_atom_type_partial_charge
C1    C     C_R   0.919262 0.152837 0.089784 -0.149777
C2    C     C_R   0.061976 0.864967 0.890133 -0.153822
C3    C     C_R   0.135414 0.062305 0.109745 -0.127237
C4    C     C_R   0.845264 0.918575 0.913111 -0.181161
C5    C     C_R   0.080736 0.847162 0.089783 -0.149767
C6    C     C_R   0.938024 0.135032 0.890132 -0.153819
C7    C     C_R   0.864591 0.937700 0.109748 -0.127222
C8    C     C_R   0.154736 0.081425 0.913112 -0.181156
C9    C     C_R   0.918286 0.846178 0.912550 -0.075747
C10   C     C_R   0.064703 0.137092 0.108913 -0.105903
C11   C     C_R   0.135784 0.936973 0.890118 -0.091120
C12   C     C_R   0.846254 0.080214 0.088599 -0.078301
C13   C     C_R   0.081715 0.153823 0.912551 -0.075754
C14   C     C_R   0.935300 0.862912 0.108916 -0.105930
C15   C     C_R   0.864216 0.063026 0.890118 -0.091128
C16   C     C_R   0.153745 0.919785 0.088601 -0.078359
C17   C     C_R   0.419262 0.652837 0.589784 -0.149800
C18   C     C_R   0.561978 0.364966 0.390133 -0.153821
C19   C     C_R   0.635415 0.562305 0.609745 -0.127231
C20   C     C_R   0.345265 0.418576 0.413110 -0.181167
C21   C     C_R   0.580738 0.347163 0.589785 -0.149785
C22   C     C_R   0.438017 0.635038 0.390135 -0.153825
C23   C     C_R   0.364586 0.437696 0.609745 -0.127224
C24   C     C_R   0.654735 0.581423 0.413110 -0.181166
C25   C     C_R   0.418286 0.346179 0.412548 -0.075752
C26   C     C_R   0.564703 0.637092 0.608913 -0.105920
C27   C     C_R   0.635785 0.436973 0.390119 -0.091127
C28   C     C_R   0.346254 0.580214 0.588598 -0.078257
C29   C     C_R   0.581714 0.653821 0.412547 -0.075749
C30   C     C_R   0.435297 0.362909 0.608914 -0.105926
C31   C     C_R   0.364214 0.563027 0.390120 -0.091135
C32   C     C_R   0.653745 0.419787 0.588600 -0.078292
C33   C     C_R   0.736999 0.754878 0.850817 0.035848
C34   C     C_R   0.242510 0.191662 0.201399 0.037791
C35   C     C_R   0.795118 0.234682 0.807071 0.036648
C36   C     C_R   0.230144 0.732009 0.158215 0.036547
C37   C     C_R   0.262998 0.245130 0.850821 0.035848
C38   C     C_R   0.757496 0.808345 0.201405 0.037806
C39   C     C_R   0.204869 0.765309 0.807067 0.036644
C40   C     C_R   0.769856 0.267991 0.158216 0.036539
C41   C     C_R   0.236996 0.254886 0.350812 0.035845
C42   C     C_R   0.742512 0.691657 0.701402 0.037803
C43   C     C_R   0.295065 0.734658 0.307090 0.036658
C44   C     C_R   0.730148 0.232010 0.658215 0.036539
C45   C     C_R   0.763016 0.745104 0.350812 0.035846
C46   C     C_R   0.257487 0.308347 0.701404 0.037806
C47   C     C_R   0.704886 0.265318 0.307072 0.036649
C48   C     C_R   0.269864 0.767996 0.658220 0.036533
C49   C     C_R   0.146649 0.192534 0.335846 -0.247039
C50   C     C_R   0.835090 0.748788 0.717850 -0.235141
C51   C     C_R   0.236232 0.826010 0.293346 -0.268016
C52   C     C_R   0.788758 0.139648 0.672673 -0.263053
C53   C     C_R   0.853369 0.807448 0.335844 -0.246936
C54   C     C_R   0.164910 0.251214 0.717853 -0.235140
C55   C     C_R   0.763690 0.173950 0.293320 -0.268077
C56   C     C_R   0.211264 0.860363 0.672683 -0.263053
C57   C     C_R   0.646653 0.692523 0.835850 -0.247013
C58   C     C_R   0.335086 0.248798 0.217844 -0.235150
C59   C     C_R   0.736314 0.326051 0.793318 -0.268076
C60   C     C_R   0.288766 0.639655 0.172670 -0.263070
C61   C     C_R   0.353343 0.307486 0.835854 -0.246997
C62   C     C_R   0.664918 0.751214 0.217851 -0.235139
C63   C     C_R   0.263662 0.673934 0.793310 -0.268077
C64   C     C_R   0.711248 0.360355 0.172675 -0.263058
C65   C     C_R   0.812354 0.766535 0.771913 -0.066283
C66   C     C_R   0.164086 0.182838 0.278064 -0.077707
C67   C     C_R   0.805739 0.159845 0.727949 -0.058124
C68   C     C_R   0.225848 0.809432 0.235604 -0.076197
C69   C     C_R   0.187646 0.233469 0.771915 -0.066281
C70   C     C_R   0.835925 0.817159 0.278067 -0.077663
C71   C     C_R   0.194271 0.840159 0.727954 -0.058132
C72   C     C_R   0.774102 0.190543 0.235586 -0.076167
C73   C     C_R   0.312350 0.266544 0.271907 -0.066287
C74   C     C_R   0.664089 0.682829 0.778068 -0.077676
C75   C     C_R   0.305729 0.659844 0.227954 -0.058111
C76   C     C_R   0.725902 0.309458 0.735584 -0.076168
C77   C     C_R   0.687654 0.733463 0.271912 -0.066284
C78   C     C_R   0.335908 0.317179 0.778072 -0.077665
C79   C     C_R   0.694267 0.340157 0.227952 -0.058126
C80   C     C_R   0.274085 0.690534 0.735579 -0.076169
C81   C     C_R   0.757457 0.741105 0.794052 -0.023652
C82   C     C_R   0.221656 0.204556 0.258128 -0.010842
C83   C     C_R   0.782153 0.215494 0.749848 -0.011499
C84   C     C_R   0.246010 0.752239 0.214508 -0.008488
C85   C     C_R   0.242541 0.258901 0.794055 -0.023659
C86   C     C_R   0.778353 0.795445 0.258132 -0.010887
C87   C     C_R   0.217846 0.784503 0.749848 -0.011497
C88   C     C_R   0.753962 0.247748 0.214498 -0.008481
C89   C     C_R   0.257454 0.241113 0.294047 -0.023638
C90   C     C_R   0.721659 0.704548 0.758132 -0.010870
C91   C     C_R   0.282121 0.715481 0.249860 -0.011500
C92   C     C_R   0.746042 0.252253 0.714497 -0.008479
C93   C     C_R   0.742555 0.758886 0.294050 -0.023652
C94   C     C_R   0.278339 0.295458 0.758135 -0.010882
C95   C     C_R   0.717852 0.284507 0.249850 -0.011497
C96   C     C_R   0.253957 0.747746 0.714497 -0.008479
C97   C     C_R   0.682596 0.728379 0.872290 0.335537
C98   C     C_R   0.300600 0.211373 0.182384 0.324288
C99   C     C_R   0.770840 0.289257 0.829129 0.337555
C100  C     C_R   0.250609 0.674897 0.137993 0.342584
C101  C     C_R   0.317401 0.271630 0.872294 0.335535
C102  C     C_R   0.699405 0.788639 0.182391 0.324265
C103  C     C_R   0.229135 0.710727 0.829121 0.337563
C104  C     C_R   0.749409 0.325112 0.138001 0.342595
C105  C     C_R   0.182592 0.228390 0.372285 0.335542
C106  C     C_R   0.800603 0.711366 0.682388 0.324258
C107  C     C_R   0.270758 0.789216 0.329158 0.337514
C108  C     C_R   0.750596 0.174890 0.637999 0.342594
C109  C     C_R   0.817426 0.771590 0.372282 0.335516
C110  C     C_R   0.199397 0.288636 0.682390 0.324255
C111  C     C_R   0.729164 0.210743 0.329131 0.337552
C112  C     C_R   0.249429 0.825123 0.638011 0.342616
C113  C     C_R   0.861887 0.136618 0.109522 0.157094
C114  C     C_R   0.109124 0.890467 0.858438 0.107555
C115  C     C_R   0.110786 0.109959 0.141133 0.154596
C116  C     C_R   0.860181 0.861097 0.894571 0.132749
C117  C     C_R   0.138111 0.863379 0.109521 0.157125
C118  C     C_R   0.890877 0.109532 0.858437 0.107561
C119  C     C_R   0.889221 0.890047 0.141138 0.154606
C120  C     C_R   0.139820 0.138904 0.894573 0.132752
C121  C     C_R   0.361886 0.636618 0.609522 0.157086
C122  C     C_R   0.609126 0.390467 0.358438 0.107564
C123  C     C_R   0.610786 0.609960 0.641133 0.154613
C124  C     C_R   0.360182 0.361099 0.394568 0.132751
C125  C     C_R   0.638113 0.363382 0.609523 0.157091
C126  C     C_R   0.390870 0.609536 0.358440 0.107584
C127  C     C_R   0.389215 0.390042 0.641135 0.154624
C128  C     C_R   0.639819 0.638901 0.394568 0.132746
C129  C     C_R   0.842070 0.811633 0.803119 0.534013
C130  C     C_R   0.124931 0.152795 0.239137 0.509706
C131  C     C_R   0.846103 0.125852 0.762024 0.527192
C132  C     C_R   0.194903 0.848854 0.198554 0.511229
C133  C     C_R   0.157932 0.188369 0.803121 0.534013
C134  C     C_R   0.875077 0.847211 0.239143 0.509698
C135  C     C_R   0.153906 0.874153 0.762028 0.527196
C136  C     C_R   0.805054 0.151126 0.198537 0.511262
C137  C     C_R   0.342068 0.311640 0.303114 0.534014
C138  C     C_R   0.624933 0.652788 0.739140 0.509692
C139  C     C_R   0.346100 0.625857 0.262029 0.527177
C140  C     C_R   0.694949 0.348875 0.698536 0.511257
C141  C     C_R   0.657934 0.688367 0.303117 0.534009
C142  C     C_R   0.375065 0.347218 0.739143 0.509688
C143  C     C_R   0.653901 0.374149 0.262027 0.527190
C144  C     C_R   0.305038 0.651118 0.698530 0.511266
C145  C     C_R   0.822946 0.822962 0.859790 -0.119185
C146  C     C_R   0.146487 0.141606 0.183114 -0.094952
C147  C     C_R   0.856710 0.145207 0.818748 -0.099344
C148  C     C_R   0.176825 0.826717 0.144432 -0.099373
C149  C     C_R   0.177055 0.177041 0.859792 -0.119187
C150  C     C_R   0.853520 0.858402 0.183120 -0.094995
C151  C     C_R   0.143289 0.854791 0.818748 -0.099340
C152  C     C_R   0.823166 0.173278 0.144430 -0.099347
C153  C     C_R   0.322946 0.322966 0.359786 -0.119181
C154  C     C_R   0.646487 0.641605 0.683115 -0.094982
C155  C     C_R   0.356696 0.645208 0.318756 -0.099361
C156  C     C_R   0.676835 0.326723 0.644430 -0.099346
C157  C     C_R   0.677057 0.677034 0.359787 -0.119179
C158  C     C_R   0.353513 0.358397 0.683117 -0.094998
C159  C     C_R   0.643293 0.354792 0.318750 -0.099345
C160  C     C_R   0.323164 0.673277 0.644429 -0.099344
C161  C     C_R   0.771594 0.795133 0.884054 -0.239117
C162  C     C_R   0.204278 0.160293 0.164657 -0.274228
C163  C     C_R   0.831491 0.198326 0.841145 -0.250585
C164  C     C_R   0.193638 0.769382 0.124160 -0.260457
C165  C     C_R   0.228404 0.204873 0.884057 -0.239116
C166  C     C_R   0.795728 0.839715 0.164664 -0.274199
C167  C     C_R   0.168497 0.801665 0.841141 -0.250584
C168  C     C_R   0.806371 0.230622 0.124166 -0.260467
C169  C     C_R   0.271593 0.295139 0.384050 -0.239124
C170  C     C_R   0.704279 0.660293 0.664659 -0.274207
C171  C     C_R   0.331452 0.698311 0.341161 -0.250577
C172  C     C_R   0.693631 0.269379 0.624166 -0.260464
C173  C     C_R   0.728416 0.704852 0.384049 -0.239120
C174  C     C_R   0.295722 0.339709 0.664660 -0.274197
C175  C     C_R   0.668512 0.301673 0.341147 -0.250584
C176  C     C_R   0.306380 0.730627 0.624171 -0.260455
H1    H     H_    0.940960 0.197127 0.092697 0.109157
H2    H     H_    0.036209 0.824356 0.879590 0.125782
H3    H     H_    0.175742 0.036175 0.120460 0.108635
H4    H     H_    0.800783 0.940358 0.911235 0.118090
H5    H     H_    0.059038 0.802872 0.092694 0.109149
H6    H     H_    0.963791 0.175644 0.879589 0.125777
H7    H     H_    0.824264 0.963831 0.120464 0.108645
H8    H     H_    0.199218 0.059643 0.911236 0.118087
H9    H     H_    0.939756 0.801775 0.910672 0.103192
H10   H     H_    0.041181 0.179263 0.117956 0.086329
H11   H     H_    0.176811 0.962291 0.879356 0.106365
H12   H     H_    0.801226 0.059547 0.088101 0.081555
H13   H     H_    0.060244 0.198226 0.910673 0.103189
H14   H     H_    0.958822 0.820740 0.117962 0.086317
H15   H     H_    0.823190 0.037709 0.879356 0.106364
H16   H     H_    0.198772 0.940454 0.088110 0.081561
H17   H     H_    0.440960 0.697127 0.592697 0.109160
H18   H     H_    0.536211 0.324354 0.379591 0.125776
H19   H     H_    0.675742 0.536174 0.620460 0.108645
H20   H     H_    0.300783 0.440359 0.411234 0.118090
H21   H     H_    0.559040 0.302872 0.592697 0.109161
H22   H     H_    0.463782 0.675652 0.379593 0.125766
H23   H     H_    0.324259 0.463827 0.620461 0.108649
H24   H     H_    0.699217 0.559641 0.411235 0.118093
H25   H     H_    0.439757 0.301776 0.410669 0.103190
H26   H     H_    0.541181 0.679264 0.617956 0.086333
H27   H     H_    0.676811 0.462290 0.379357 0.106365
H28   H     H_    0.301226 0.559547 0.588099 0.081549
H29   H     H_    0.560243 0.698224 0.410667 0.103185
H30   H     H_    0.458820 0.320738 0.617958 0.086335
H31   H     H_    0.323187 0.537710 0.379360 0.106360
H32   H     H_    0.698773 0.440454 0.588102 0.081554
H33   H     H_    0.759077 0.805858 0.928324 0.206286
H34   H     H_    0.218314 0.151108 0.120468 0.201330
H35   H     H_    0.840573 0.210498 0.885848 0.201694
H36   H     H_    0.178737 0.755207 0.081435 0.207579
H37   H     H_    0.240921 0.194148 0.928328 0.206285
H38   H     H_    0.781691 0.848902 0.120475 0.201326
H39   H     H_    0.159409 0.789489 0.885842 0.201691
H40   H     H_    0.821293 0.244807 0.081450 0.207578
H41   H     H_    0.259077 0.305864 0.428320 0.206285
H42   H     H_    0.718313 0.651111 0.620468 0.201326
H43   H     H_    0.340526 0.710477 0.385867 0.201696
H44   H     H_    0.678708 0.255194 0.581450 0.207577
H45   H     H_    0.740934 0.694122 0.428318 0.206284
H46   H     H_    0.281689 0.348888 0.620468 0.201325
H47   H     H_    0.659429 0.289501 0.385850 0.201693
H48   H     H_    0.321312 0.744818 0.581460 0.207579
H49   H     H_    0.104279 0.173579 0.352630 0.194530
H50   H     H_    0.878978 0.765373 0.702218 0.199381
H51   H     H_    0.217640 0.867780 0.311116 0.196812
H52   H     H_    0.804921 0.096324 0.656148 0.199315
H53   H     H_    0.895744 0.826394 0.352627 0.194487
H54   H     H_    0.121023 0.234628 0.702220 0.199376
H55   H     H_    0.782263 0.132169 0.311085 0.196806
H56   H     H_    0.195110 0.903692 0.656162 0.199317
H57   H     H_    0.604283 0.673567 0.852635 0.194527
H58   H     H_    0.378973 0.265384 0.202212 0.199376
H59   H     H_    0.717741 0.367831 0.811084 0.196804
H60   H     H_    0.304944 0.596338 0.156141 0.199312
H61   H     H_    0.395712 0.326443 0.852639 0.194522
H62   H     H_    0.621029 0.734633 0.202219 0.199372
H63   H     H_    0.282227 0.632149 0.811072 0.196803
H64   H     H_    0.695086 0.403679 0.156151 0.199315
N1    N     N_R   0.940200 0.105310 0.059970 -0.043261
N2    N     N_R   0.059800 0.894690 0.940030 -0.045703
N3    N     N_R   0.105310 0.059800 0.059970 -0.047678
N4    N     N_R   0.894690 0.940200 0.940030 -0.044892
N5    N     N_R   0.059800 0.894690 0.059970 -0.043258
N6    N     N_R   0.940200 0.105310 0.940030 -0.045702
N7    N     N_R   0.894690 0.940200 0.059970 -0.047682
N8    N     N_R   0.105310 0.059800 0.940030 -0.044893
N9    N     N_R   0.940200 0.894690 0.940030 -0.052403
N10   N     N_R   0.059800 0.105310 0.059970 -0.048269
N11   N     N_R   0.105310 0.940200 0.940030 -0.051714
N12   N     N_R   0.894690 0.059800 0.059970 -0.048835
N13   N     N_R   0.059800 0.105310 0.940030 -0.052403
N14   N     N_R   0.940200 0.894690 0.059970 -0.048264
N15   N     N_R   0.894690 0.059800 0.940030 -0.051713
N16   N     N_R   0.105310 0.940200 0.059970 -0.048824
N17   N     N_R   0.440200 0.605310 0.559970 -0.043260
N18   N     N_R   0.559800 0.394690 0.440030 -0.045702
N19   N     N_R   0.605310 0.559800 0.559970 -0.047681
N20   N     N_R   0.394690 0.440200 0.440030 -0.044891
N21   N     N_R   0.559800 0.394690 0.559970 -0.043260
N22   N     N_R   0.440200 0.605310 0.440030 -0.045701
N23   N     N_R   0.394690 0.440200 0.559970 -0.047684
N24   N     N_R   0.605310 0.559800 0.440030 -0.044891
N25   N     N_R   0.440200 0.394690 0.440030 -0.052402
N26   N     N_R   0.559800 0.605310 0.559970 -0.048267
N27   N     N_R   0.605310 0.440200 0.440030 -0.051714
N28   N     N_R   0.394690 0.559800 0.559970 -0.048840
N29   N     N_R   0.559800 0.605310 0.440030 -0.052402
N30   N     N_R   0.440200 0.394690 0.559970 -0.048267
N31   N     N_R   0.394690 0.559800 0.440030 -0.051713
N32   N     N_R   0.605310 0.440200 0.559970 -0.048835
Ni1   Ni    Ni4+2 1.000000 0.104370 0.000000 0.227004
Ni2   Ni    Ni4+2 1.000000 0.895630 0.000000 0.227007
Ni3   Ni    Ni4+2 0.104370 0.000000 0.000000 0.225056
Ni4   Ni    Ni4+2 0.895630 0.000000 0.000000 0.225052
Ni5   Ni    Ni4+2 0.500000 0.604370 0.500000 0.227000
Ni6   Ni    Ni4+2 0.500000 0.395630 0.500000 0.227004
Ni7   Ni    Ni4+2 0.604370 0.500000 0.500000 0.225052
Ni8   Ni    Ni4+2 0.395630 0.500000 0.500000 0.225050
O1    O     O_3   0.889980 0.844402 0.778208 -0.682318
C177  C     C_3   0.868077 0.901790 0.758429 0.179242
H65   H     H_    0.908801 0.931038 0.750009 0.145956
H66   H     H_    0.840429 0.925977 0.791869 0.110079
C178  C     C_3   0.830736 0.895999 0.701984 -0.380032
H67   H     H_    0.857148 0.869612 0.669389 0.234935
H68   H     H_    0.786897 0.871715 0.710726 0.205654
C179  C     C_3   0.815236 0.958154 0.676416 -0.844264
H69   H     H_    0.789163 0.985922 0.708274 0.277679
H70   H     H_    0.786540 0.952102 0.637035 0.272297
H71   H     H_    0.857972 0.982317 0.663858 0.266696
O2    O     O_3   0.068097 0.130663 0.256382 -0.654431
C180  C     C_3   0.024748 0.178751 0.255845 0.146732
H72   H     H_    0.008088 0.186413 0.211017 0.108283
H73   H     H_    0.044055 0.222553 0.272542 0.102808
C181  C     C_3   0.969966 0.161065 0.293685 -0.231403
H74   H     H_    0.946709 0.120443 0.274855 0.235223
H75   H     H_    0.986393 0.149153 0.337880 0.212562
C182  C     C_3   0.924011 0.213330 0.298304 -0.938269
H76   H     H_    0.946240 0.254247 0.317530 0.269515
H77   H     H_    0.885401 0.199445 0.326794 0.284963
H78   H     H_    0.905699 0.225130 0.254790 0.262127
O3    O     O_3   0.871773 0.072246 0.741405 -0.687860
C183  C     C_3   0.934421 0.081785 0.727205 0.142145
H79   H     H_    0.958355 0.037448 0.732329 0.116913
H80   H     H_    0.958264 0.114507 0.756684 0.119928
C184  C     C_3   0.941185 0.102698 0.664099 -0.324341
H81   H     H_    0.918283 0.069473 0.634845 0.214477
H82   H     H_    0.919022 0.147912 0.658438 0.214856
C185  C     C_3   0.008526 0.108219 0.646828 -0.916588
H83   H     H_    0.031597 0.143071 0.674174 0.278718
H84   H     H_    0.011907 0.122605 0.600789 0.289164
H85   H     H_    0.032083 0.063612 0.651861 0.252389
O4    O     O_3   0.175503 0.905967 0.217153 -0.661379
C186  C     C_3   0.226200 0.946620 0.219590 0.144950
H86   H     H_    0.236239 0.964819 0.175816 0.102118
H87   H     H_    0.269118 0.924872 0.235836 0.113487
C187  C     C_3   0.210215 0.999702 0.259720 -0.250858
H88   H     H_    0.170114 0.024722 0.241904 0.218900
H89   H     H_    0.197484 0.981743 0.303152 0.218928
C188  C     C_3   0.264325 0.043478 0.266375 -0.943223
H90   H     H_    0.304508 0.019361 0.285153 0.276502
H91   H     H_    0.251433 0.081218 0.296004 0.276770
H92   H     H_    0.277305 0.062889 0.223625 0.272427
O5    O     O_3   0.110026 0.155596 0.778209 -0.682324
C189  C     C_3   0.131935 0.098211 0.758430 0.179242
H93   H     H_    0.091214 0.068960 0.750007 0.145956
H94   H     H_    0.159581 0.074025 0.791871 0.110084
C190  C     C_3   0.169281 0.104006 0.701989 -0.380031
H95   H     H_    0.142870 0.130392 0.669391 0.234940
H96   H     H_    0.213117 0.128292 0.710734 0.205654
C191  C     C_3   0.184787 0.041852 0.676421 -0.844264
H97   H     H_    0.210859 0.014085 0.708280 0.277676
H98   H     H_    0.213487 0.047907 0.637043 0.272301
H99   H     H_    0.142054 0.017687 0.663858 0.266693
O6    O     O_3   0.931909 0.869343 0.256390 -0.654411
C192  C     C_3   0.975268 0.821263 0.255836 0.146775
H100  H     H_    0.991997 0.813689 0.211017 0.108392
H101  H     H_    0.955946 0.777423 0.272434 0.102717
C193  C     C_3   0.029990 0.838891 0.293778 -0.231447
H102  H     H_    0.053270 0.879549 0.275043 0.235212
H103  H     H_    0.013497 0.850722 0.337970 0.212518
C194  C     C_3   0.075946 0.786624 0.298375 -0.938216
H104  H     H_    0.053699 0.745676 0.317522 0.269505
H105  H     H_    0.114522 0.800471 0.326924 0.284964
H106  H     H_    0.094310 0.774890 0.254864 0.262136
O7    O     O_3   0.128243 0.927762 0.741411 -0.687860
C195  C     C_3   0.065596 0.918230 0.727205 0.142133
H107  H     H_    0.041666 0.962570 0.732325 0.116906
H108  H     H_    0.041746 0.885513 0.756683 0.119928
C196  C     C_3   0.058836 0.897315 0.664099 -0.324324
H109  H     H_    0.081742 0.930538 0.634846 0.214476
H110  H     H_    0.080996 0.852100 0.658441 0.214855
C197  C     C_3   0.991495 0.891798 0.646824 -0.916606
H111  H     H_    0.968421 0.856947 0.674168 0.278714
H112  H     H_    0.988117 0.877413 0.600785 0.289161
H113  H     H_    0.967940 0.936406 0.651857 0.252391
O8    O     O_3   0.824433 0.094003 0.217128 -0.661398
C198  C     C_3   0.773726 0.053361 0.219545 0.144930
H114  H     H_    0.763699 0.035167 0.175768 0.102127
H115  H     H_    0.730806 0.075117 0.235777 0.113489
C199  C     C_3   0.789683 0.000273 0.259678 -0.250878
H116  H     H_    0.829789 0.975249 0.241877 0.218876
H117  H     H_    0.802397 0.018226 0.303117 0.218931
C200  C     C_3   0.735565 0.956504 0.266307 -0.943192
H118  H     H_    0.695378 0.980624 0.285074 0.276500
H119  H     H_    0.748440 0.918756 0.295934 0.276753
H120  H     H_    0.722599 0.937102 0.223549 0.272447
O9    O     O_3   0.389979 0.344408 0.278205 -0.682322
C201  C     C_3   0.368079 0.401799 0.258429 0.179235
H121  H     H_    0.408803 0.431045 0.250010 0.145963
H122  H     H_    0.340433 0.425985 0.291871 0.110076
C202  C     C_3   0.330735 0.396013 0.201985 -0.380034
H123  H     H_    0.357145 0.369625 0.169388 0.234940
H124  H     H_    0.286895 0.371733 0.210728 0.205653
C203  C     C_3   0.315241 0.458171 0.176420 -0.844261
H125  H     H_    0.289170 0.485939 0.208279 0.277676
H126  H     H_    0.286544 0.452124 0.137039 0.272300
H127  H     H_    0.357979 0.482332 0.163863 0.266697
O10   O     O_3   0.568101 0.630653 0.756386 -0.654418
C204  C     C_3   0.524750 0.678738 0.755849 0.146723
H128  H     H_    0.508099 0.686411 0.711020 0.108272
H129  H     H_    0.544051 0.722538 0.772560 0.102812
C205  C     C_3   0.469961 0.661041 0.793675 -0.231385
H130  H     H_    0.446712 0.620420 0.774833 0.235215
H131  H     H_    0.486378 0.649123 0.837872 0.212565
C206  C     C_3   0.423999 0.713301 0.798293 -0.938272
H132  H     H_    0.446219 0.754216 0.817530 0.269514
H133  H     H_    0.385384 0.699407 0.826772 0.284962
H134  H     H_    0.405696 0.725107 0.754777 0.262124
O11   O     O_3   0.371786 0.572261 0.241405 -0.687864
C207  C     C_3   0.434431 0.581818 0.227207 0.142167
H135  H     H_    0.458379 0.537489 0.232335 0.116923
H136  H     H_    0.458263 0.614549 0.256685 0.119923
C208  C     C_3   0.441190 0.602729 0.164100 -0.324358
H137  H     H_    0.418295 0.569497 0.134849 0.214483
H138  H     H_    0.419018 0.647938 0.158438 0.214856
C209  C     C_3   0.508530 0.608264 0.146829 -0.916553
H139  H     H_    0.531595 0.643118 0.174176 0.278721
H140  H     H_    0.511908 0.622653 0.100790 0.289164
H141  H     H_    0.532095 0.563660 0.151859 0.252389
O12   O     O_3   0.675570 0.405998 0.717127 -0.661396
C210  C     C_3   0.726277 0.446639 0.719544 0.144931
H142  H     H_    0.736303 0.464834 0.675766 0.102126
H143  H     H_    0.769198 0.424883 0.735774 0.113490
C211  C     C_3   0.710321 0.499727 0.759677 -0.250883
H144  H     H_    0.670216 0.524753 0.741876 0.218876
H145  H     H_    0.697607 0.481773 0.803116 0.218934
C212  C     C_3   0.764441 0.543494 0.766307 -0.943181
H146  H     H_    0.804628 0.519372 0.785072 0.276500
H147  H     H_    0.751568 0.581240 0.795936 0.276756
H148  H     H_    0.777406 0.562898 0.723549 0.272444
O13   O     O_3   0.610023 0.655601 0.278206 -0.682328
C213  C     C_3   0.631923 0.598212 0.258426 0.179244
H149  H     H_    0.591198 0.568967 0.250003 0.145943
H150  H     H_    0.659566 0.574022 0.291868 0.110088
C214  C     C_3   0.669271 0.604002 0.201985 -0.380039
H151  H     H_    0.642864 0.630392 0.169388 0.234944
H152  H     H_    0.713110 0.628281 0.210732 0.205656
C215  C     C_3   0.684768 0.541846 0.176418 -0.844271
H153  H     H_    0.710838 0.514076 0.208276 0.277684
H154  H     H_    0.713466 0.547897 0.137038 0.272302
H155  H     H_    0.642031 0.517685 0.163858 0.266690
O14   O     O_3   0.431897 0.369353 0.756389 -0.654412
C216  C     C_3   0.475248 0.321268 0.755854 0.146732
H156  H     H_    0.491907 0.313602 0.711026 0.108282
H157  H     H_    0.455943 0.277466 0.772556 0.102803
C217  C     C_3   0.530030 0.338960 0.793691 -0.231398
H158  H     H_    0.553285 0.379580 0.774856 0.235220
H159  H     H_    0.513604 0.350875 0.837885 0.212562
C218  C     C_3   0.575987 0.286696 0.798314 -0.938255
H160  H     H_    0.553762 0.245781 0.817544 0.269511
H161  H     H_    0.614598 0.300586 0.826802 0.284961
H162  H     H_    0.594299 0.274893 0.754800 0.262127
O15   O     O_3   0.628230 0.427754 0.241407 -0.687861
C219  C     C_3   0.565584 0.418214 0.227204 0.142152
H163  H     H_    0.541649 0.462551 0.232325 0.116915
H164  H     H_    0.541740 0.385494 0.256685 0.119928
C220  C     C_3   0.558824 0.397297 0.164099 -0.324343
H165  H     H_    0.581727 0.430521 0.134845 0.214482
H166  H     H_    0.580987 0.352083 0.158442 0.214853
C221  C     C_3   0.491484 0.391773 0.146827 -0.916574
H167  H     H_    0.468412 0.356923 0.174174 0.278717
H168  H     H_    0.488105 0.377383 0.100788 0.289162
H169  H     H_    0.467926 0.436380 0.151855 0.252393
O16   O     O_3   0.324407 0.593990 0.717116 -0.661393
C222  C     C_3   0.273694 0.553355 0.719526 0.144926
H170  H     H_    0.263672 0.535161 0.675747 0.102131
H171  H     H_    0.230773 0.575117 0.735749 0.113486
C223  C     C_3   0.289636 0.500265 0.759662 -0.250890
H172  H     H_    0.329743 0.475237 0.741868 0.218869
H173  H     H_    0.302342 0.518216 0.803103 0.218933
C224  C     C_3   0.235511 0.456502 0.766279 -0.943171
H174  H     H_    0.195322 0.480626 0.785037 0.276499
H175  H     H_    0.248375 0.418754 0.795911 0.276752
H176  H     H_    0.222555 0.437100 0.723519 0.272450
Br1   Br    Br    0.653354 0.741273 0.949924 -0.481370
Br2   Br    Br    0.334769 0.191089 0.107931 -0.498129
Br3   Br    Br    0.784211 0.317455 0.907028 -0.489385
Br4   Br    Br    0.228979 0.642370 0.063447 -0.473463
Br5   Br    Br    0.346641 0.258738 0.949928 -0.481363
Br6   Br    Br    0.665235 0.808928 0.107940 -0.498160
Br7   Br    Br    0.215743 0.682514 0.907012 -0.489367
Br8   Br    Br    0.771071 0.357654 0.063468 -0.473471
Br9   Br    Br    0.153350 0.241285 0.449919 -0.481365
Br10  Br    Br    0.834772 0.691083 0.607936 -0.498137
Br11  Br    Br    0.284086 0.817391 0.407070 -0.489413
Br12  Br    Br    0.728933 0.142349 0.563467 -0.473473
Br13  Br    Br    0.846677 0.758676 0.449910 -0.481363
Br14  Br    Br    0.165230 0.308916 0.607936 -0.498152
Br15  Br    Br    0.715793 0.182543 0.407029 -0.489384
Br16  Br    Br    0.271116 0.857677 0.563490 -0.473474

loop_
_geom_bond_atom_site_label_1
_geom_bond_atom_site_label_2
_ccdc_geom_bond_type
N24   N29   A    
C130  C146  A    
C216  H156  S    
C62   C77   A    
C174  H46   S    
C39   C87   A    
C206  H134  S    
C192  H100  S    
N14   Ni2   S    
N1    N12   A    
C177  H65   S    
C41   C105  A    
N2    N11   A    
C215  H153  S    
C210  H143  S    
C63   H63   S    
C116  C145  S    
C45   C109  A    
N6    N15   A    
C154  C170  A    
C132  O4    S    
N21   N32   A    
C42   C170  A    
C213  C214  S    
C99   Br3   S    
N22   N31   A    
C136  O8    S    
C158  C174  A    
C183  C184  S    
N21   Ni6   S    
C97   Br1   S    
C46   C174  A    
C189  H93   S    
C84   C91   A    
C139  O11   S    
C144  C160  A    
C129  C145  A    
C44   C92   A    
C203  H127  S    
C138  C154  A    
C104  Br8   S    
C72   C88   A    
C88   C95   A    
C173  H45   S    
N3    N10   A    
C213  H150  S    
C100  Br4   S    
C144  O16   S    
C142  C158  A    
C136  C152  A    
C4    C116  A    
C112  Br16  S    
C185  H84   S    
C179  H71   S    
C7    C119  A    
C193  H102  S    
C207  H136  S    
N4    N9    A    
C202  C203  S    
C162  H34   S    
O4    C186  S    
C41   C169  A    
C35   C163  A    
C28   H28   S    
C224  H176  S    
C33   C161  A    
C222  H171  S    
C31   H31   S    
C45   C173  A    
C66   C82   A    
C146  C162  A    
C201  H122  S    
O3    C183  S    
C23   N23   A    
C57   C97   A    
C189  C190  S    
C137  C153  A    
C62   H62   S    
C143  C159  A    
C42   C106  A    
C140  C156  A    
C81   C90   A    
C141  C157  A    
C181  H74   S    
C109  Br13  S    
C46   C110  A    
C204  H128  S    
C216  C217  S    
C211  H145  S    
C50   H50   S    
C107  Br11  S    
C26   C123  A    
C206  H132  S    
C192  C193  S    
C105  Br9   S    
C219  H163  S    
C53   C109  A    
C15   H15   S    
C30   C127  A    
C48   C96   A    
C187  C188  S    
C55   C111  A    
C9    C116  A    
C6    N6    A    
C215  H155  S    
C59   H59   S    
C21   H21   S    
O6    C192  S    
C60   C100  A    
C205  H131  S    
C37   C165  A    
C78   C94   A    
C64   C79   A    
C134  O6    S    
C15   C118  A    
C7    H7    S    
N15   Ni4   S    
C29   N29   A    
C40   C88   A    
C78   C142  A    
C178  H68   S    
C200  H118  S    
C19   N19   A    
C2    C114  A    
C74   C90   A    
C145  C161  A    
C22   N22   A    
C151  C167  A    
C195  H107  S    
C33   C97   A    
C77   C141  A    
C64   H64   S    
C24   H24   S    
C51   C107  A    
C14   C119  A    
C198  H114  S    
C70   C134  A    
C175  H47   S    
N13   Ni1   S    
C42   C90   A    
C212  H146  S    
O10   C204  S    
C26   N26   A    
C123  C154  S    
C32   C125  A    
C41   C89   A    
C67   C83   A    
C18   H18   S    
N19   Ni7   S    
C196  H109  S    
C58   C98   A    
C193  C194  S    
C167  H39   S    
C45   C93   A    
C201  H121  S    
C196  C197  S    
C218  H161  S    
C15   N15   A    
C115  C146  S    
C19   C123  A    
C120  C149  S    
C82   C89   A    
C73   C137  A    
C6    H6    S    
C117  C148  S    
C27   H27   S    
C131  O3    S    
C118  C147  S    
C164  H36   S    
C25   H25   S    
C220  H166  S    
C47   C111  A    
N25   Ni6   S    
C223  C224  S    
C199  H116  S    
N23   Ni8   S    
C150  C166  A    
C7    N7    A    
C29   H29   S    
C54   C110  A    
C224  H175  S    
N27   Ni7   S    
C187  H89   S    
C181  C182  S    
C79   C143  A    
C80   C144  A    
C14   N14   A    
C204  C205  S    
C131  C147  A    
C32   H32   S    
C172  H44   S    
C219  C220  S    
C75   C91   A    
C183  H80   S    
C124  C153  S    
C190  H96   S    
C214  H152  S    
C98   Br2   S    
C128  C157  S    
C63   C80   A    
N23   N30   A    
C130  O2    S    
C49   C66   A    
C148  C164  A    
C149  C165  A    
C191  H97   S    
N8    Ni3   S    
C20   H20   S    
C200  H120  S    
C43   C171  A    
N8    N13   A    
C133  O5    S    
N22   Ni5   S    
C156  C172  A    
C195  C196  S    
N5    Ni2   S    
C10   N10   A    
C179  H70   S    
C61   C101  A    
C180  H72   S    
C86   C93   A    
N12   Ni4   S    
C218  H160  S    
C46   C94   A    
C139  C155  A    
C188  H92   S    
N29   Ni5   S    
C25   N25   A    
C212  H148  S    
C2    N2    A    
C52   C67   A    
C165  H37   S    
O14   C216  S    
C48   C112  A    
C20   N20   A    
C188  H90   S    
C194  H105  S    
C209  H140  S    
C17   N17   A    
N3    Ni3   S    
C13   C120  A    
C69   C85   A    
C217  H158  S    
C204  H129  S    
O12   C210  S    
C64   C104  A    
C186  C187  S    
C176  H48   S    
C111  Br15  S    
C34   C162  A    
C125  C156  S    
C177  H66   S    
C184  C185  S    
C168  H40   S    
C215  H154  S    
N7    Ni4   S    
N19   N26   A    
C75   C139  A    
C37   C101  A    
C11   N11   A    
C10   H10   S    
C198  C199  S    
C50   C65   A    
C20   C124  A    
C14   H14   S    
N7    N14   A    
C177  C178  S    
C197  H111  S    
C157  C173  A    
N4    Ni4   S    
N9    Ni2   S    
C189  H94   S    
C2    H2    S    
C221  H167  S    
C49   H49   S    
C59   C76   A    
C4    N4    A    
C171  H43   S    
C48   C176  A    
C169  H41   S    
O13   C213  S    
C223  H173  S    
C30   N30   A    
C191  H99   S    
C137  O9    S    
N17   Ni5   S    
C74   C138  A    
C1    C113  A    
C141  O13   S    
C193  H103  S    
O9    C201  S    
C180  C181  S    
C202  H124  S    
C208  C209  S    
N24   Ni7   S    
N1    Ni1   S    
C68   C132  A    
C192  H101  S    
C52   H52   S    
C27   N27   A    
C121  C160  S    
N18   Ni6   S    
C122  C159  S    
C217  C218  S    
C126  C155  S    
C119  C150  S    
C181  H75   S    
C186  H86   S    
C216  H157  S    
C113  C152  S    
C114  C151  S    
C4    H4    S    
C53   C70   A    
C5    H5    S    
C152  C168  A    
C27   C122  A    
C219  H164  S    
C76   C92   A    
N26   Ni5   S    
C184  H81   S    
C68   C84   A    
C55   H55   S    
C210  C211  S    
C63   C103  A    
O7    C195  S    
C35   C83   A    
C49   C105  A    
C206  H133  S    
C161  H33   S    
C222  H170  S    
C182  H76   S    
C79   C95   A    
C178  H67   S    
C65   C81   A    
C56   C71   A    
C195  H108  S    
C36   C100  A    
C43   C107  A    
C127  C158  S    
C101  Br5   S    
C71   C87   A    
C17   C121  A    
N31   Ni8   S    
C110  Br14  S    
C38   C86   A    
C51   H51   S    
C213  H149  S    
C32   N32   A    
C76   C140  A    
C21   C125  A    
C106  Br10  S    
C23   C127  A    
C38   C166  A    
C185  H83   S    
C22   H22   S    
N6    Ni1   S    
C5    N5    A    
C207  H135  S    
C58   H58   S    
C65   C129  A    
C208  H137  S    
C196  H110  S    
C39   C103  A    
N28   Ni8   S    
C60   C75   A    
C12   N12   A    
C135  O7    S    
N30   Ni6   S    
C222  C223  S    
C73   C89   A    
C3    C115  A    
C16   C117  A    
C16   N16   A    
C54   C69   A    
C199  H117  S    
C135  C151  A    
C77   C93   A    
C34   C98   A    
O5    C189  S    
C18   N18   A    
C201  C202  S    
C72   C136  A    
C8    N8    A    
C180  H73   S    
C153  C169  A    
C36   C164  A    
C211  H144  S    
C147  C163  A    
N20   N25   A    
C53   H53   S    
C185  H85   S    
C134  C150  A    
C194  H104  S    
C19   H19   S    
O16   C222  S    
C59   C99   A    
C190  H95   S    
C17   H17   S    
C210  H142  S    
C60   H60   S    
C220  H165  S    
C205  H130  S    
C44   C172  A    
C214  H151  S    
O11   C207  S    
C83   C92   A    
C102  Br6   S    
C11   H11   S    
C199  C200  S    
C37   C85   A    
O2    C180  S    
C26   H26   S    
N11   Ni3   S    
C178  C179  S    
C9    H9    S    
C200  H119  S    
C71   C135  A    
N20   Ni8   S    
C22   C126  A    
C12   H12   S    
C23   H23   S    
C13   H13   S    
C56   H56   S    
N10   Ni1   S    
C11   C114  A    
C3    H3    S    
C170  H42   S    
C16   H16   S    
C1    H1    S    
C188  H91   S    
C211  C212  S    
N16   Ni3   S    
C50   C106  A    
C212  H147  S    
C55   C72   A    
C8    H8    S    
C223  H172  S    
C159  C175  A    
C160  C176  A    
C209  H141  S    
C224  H174  S    
N17   N28   A    
C207  C208  S    
C35   C99   A    
N18   N27   A    
C182  H78   S    
C217  H159  S    
C218  H162  S    
C138  O10   S    
C44   C108  A    
N5    N16   A    
C186  H87   S    
C142  O14   S    
C132  C148  A    
C133  C149  A    
N2    Ni2   S    
C220  C221  S    
C163  H35   S    
C28   C121  A    
O1    C177  S    
C43   C91   A    
C5    C117  A    
C203  H126  S    
C57   C74   A    
C9    N9    A    
C187  H88   S    
C40   C104  A    
C85   C94   A    
C61   C78   A    
C13   N13   A    
C87   C96   A    
C24   N24   A    
C198  H115  S    
C3    N3    A    
C129  O1    S    
C182  H77   S    
C1    N1    A    
C166  H38   S    
C21   N21   A    
C183  H79   S    
C18   C122  A    
N32   Ni7   S    
C197  H112  S    
C190  C191  S    
C194  H106  S    
C80   C96   A    
C221  H168  S    
C70   C86   A    
C205  C206  S    
C214  C215  S    
C203  H125  S    
C8    C120  A    
C24   C128  A    
C12   C113  A    
C69   C133  A    
C54   H54   S    
C67   C131  A    
C103  Br7   S    
C57   H57   S    
C143  O15   S    
C197  H113  S    
C34   C82   A    
C28   N28   A    
C61   H61   S    
C179  H69   S    
C221  H169  S    
C184  H82   S    
C38   C102  A    
C202  H123  S    
C31   N31   A    
C208  H138  S    
C30   H30   S    
C36   C84   A    
C108  Br12  S    
C6    C118  A    
C51   C68   A    
C39   C167  A    
O8    C198  S    
C25   C124  A    
C47   C175  A    
C40   C168  A    
O15   C219  S    
C155  C171  A    
C191  H98   S    
C52   C108  A    
C29   C128  A    
C140  O12   S    
C47   C95   A    
C209  H139  S    
C31   C126  A    
C62   C102  A    
C33   C81   A    
C56   C112  A    
C10   C115  A    
C58   C73   A    
C66   C130  A    
