data_mof_unit_13472.cif
_audit_creation_date              2012-12-11T14:57:53-0500
_audit_creation_method            fapswitch 2.2
_symmetry_space_group_name_H-M    P1
_symmetry_Int_Tables_number       1
_space_group_crystal_system       triclinic
_cell_length_a                    6.976074
_cell_length_b                    16.266847
_cell_length_c                    17.574796
_cell_angle_alpha                 100.201325
_cell_angle_beta                  89.452207
_cell_angle_gamma                 90.138101
_cell_volume                      1962.74736967

loop_
_atom_site_label
_atom_site_type_symbol
_atom_type_description
_atom_site_fract_x
_atom_site_fract_y
_atom_site_fract_z
_atom_type_partial_charge
O1    O     O_R   0.506180 0.438940 0.579430 -0.531426
O2    O     O_R   0.170520 0.406230 0.413590 -0.516667
O3    O     O_R   0.005180 0.561060 0.420570 -0.521353
C1    C     C_R   0.342369 0.380445 0.387205 0.781688
O4    O     O_R   0.176140 0.429310 0.578370 -0.532732
O5    O     O_R   0.010830 0.584300 0.586530 -0.541189
C2    C     C_R   0.343579 0.413679 0.604676 0.728767
O6    O     O_R   0.500520 0.415700 0.413470 -0.519999
O7    O     O_3   0.340830 0.550820 0.502480 -0.367357
V1    V     V_3+5 0.064040 0.490570 0.499540 1.560369
O8    O     O_R   0.681400 0.593770 0.586410 -0.548453
C3    C     C_R   0.849477 0.616892 0.614721 0.662674
O9    O     O_R   0.675790 0.570690 0.421630 -0.527227
C4    C     C_R   0.845024 0.586369 0.395437 0.753954
V2    V     V_3+5 0.564650 0.509430 0.500460 1.532820
O10   O     O_3   0.837730 0.449180 0.497520 -0.349164
C5    C     C_R   0.908305 0.861959 0.165351 -0.104905
C6    C     C_R   0.857015 0.634615 0.331304 -0.084318
C7    C     C_R   0.902015 0.640156 0.194529 -0.147129
C8    C     C_R   0.883777 0.593682 0.254269 0.171585
C9    C     C_R   0.849001 0.722425 0.347267 -0.174768
C10   C     C_R   0.868753 0.769844 0.287366 0.068320
C11   C     C_R   0.895491 0.727862 0.210169 0.072628
C12   C     C_R   0.916173 0.774231 0.149767 -0.209964
C13   C     C_R   0.880624 0.903037 0.241427 -0.135320
C14   C     C_R   0.863716 0.858177 0.302167 0.482027
H1    H     H_    0.936249 0.742219 0.090703 0.106600
H2    H     H_    0.874747 0.970699 0.253825 0.151361
H3    H     H_    0.922957 0.607489 0.135741 0.140858
H4    H     H_    0.829286 0.753134 0.406681 0.151020
H5    H     H_    0.966732 0.610971 0.962920 0.136751
C15   C     C_R   0.876485 0.921710 0.725070 0.245318
C16   C     C_R   0.834108 0.937378 0.651045 0.422334
C17   C     C_R   0.789565 0.872242 0.591808 -0.165969
C18   C     C_R   0.799106 0.790262 0.602878 -0.234263
C19   C     C_R   0.844932 0.770725 0.675525 0.035688
C20   C     C_R   0.876219 0.837363 0.739773 -0.061242
C21   C     C_R   0.859302 0.685741 0.683952 -0.120149
C22   C     C_R   0.892181 0.666497 0.758153 0.039263
C23   C     C_R   0.914826 0.731652 0.823359 0.058051
C24   C     C_R   0.907120 0.816918 0.814752 -0.145013
C25   C     C_R   0.897394 0.582460 0.769199 -0.193178
C26   C     C_R   0.923113 0.562873 0.842439 0.207363
C27   C     C_R   0.946706 0.626228 0.906009 -0.128060
C28   C     C_R   0.943048 0.709566 0.896882 -0.191784
H6    H     H_    0.749843 0.885034 0.536018 0.235944
H7    H     H_    0.768649 0.742289 0.553495 0.130134
H8    H     H_    0.878041 0.531106 0.721558 0.130228
H9    H     H_    0.961533 0.756333 0.948283 0.087704
H10   H     H_    0.467625 0.499417 0.142390 0.148803
C29   C     C_R   0.425124 0.195870 0.392310 0.016754
C30   C     C_R   0.400475 0.109862 0.395832 0.239548
C31   C     C_R   0.342433 0.054156 0.330382 0.388915
C32   C     C_R   0.331202 0.081142 0.260474 -0.279014
C33   C     C_R   0.366615 0.165151 0.254743 0.001088
C34   C     C_R   0.380342 0.226502 0.323024 -0.011476
C35   C     C_R   0.411492 0.186290 0.182502 -0.106140
C36   C     C_R   0.446752 0.270813 0.177886 0.050411
C37   C     C_R   0.403911 0.336270 0.242082 0.048692
C38   C     C_R   0.367366 0.313761 0.316704 -0.123844
C39   C     C_R   0.523566 0.291041 0.109183 -0.105671
C40   C     C_R   0.531680 0.372912 0.097689 -0.070250
C41   C     C_R   0.463710 0.436247 0.154108 -0.072978
C42   C     C_R   0.409889 0.420714 0.227154 0.161397
H11   H     H_    0.306291 0.033815 0.210093 0.167825
H12   H     H_    0.573474 0.243451 0.062308 0.130381
H13   H     H_    0.586879 0.387196 0.043710 0.163780
C43   C     C_R   0.406017 0.137178 0.833346 -0.060234
C44   C     C_R   0.350302 0.363474 0.667526 -0.089754
C45   C     C_R   0.417865 0.357346 0.801935 -0.050322
C46   C     C_R   0.413585 0.401802 0.740745 -0.171449
C47   C     C_R   0.295996 0.278213 0.655937 0.135386
C48   C     C_R   0.336162 0.229845 0.713688 0.066945
C49   C     C_R   0.382758 0.270933 0.788841 0.104373
C50   C     C_R   0.385469 0.224813 0.849740 0.079451
C51   C     C_R   0.376579 0.096367 0.757165 -0.069390
C52   C     C_R   0.327942 0.141916 0.699454 -0.007977
H14   H     H_    0.377620 0.028742 0.743515 0.140239
H15   H     H_    0.457825 0.389935 0.858734 0.167883
H16   H     H_    0.290049 0.107632 0.643488 0.194916
H17   H     H_    0.451941 0.467406 0.751417 0.131031
O11   O     O_R   0.265840 0.084300 0.086750 -0.536481
O12   O     O_R   0.589750 0.070740 0.921690 -0.516505
O13   O     O_R   0.755020 0.915730 0.913400 -0.532274
C53   C     C_R   0.420502 0.086740 0.895806 0.761874
O14   O     O_R   0.595830 0.093740 0.086480 -0.543335
O15   O     O_R   0.761150 0.938890 0.079360 -0.542122
C54   C     C_R   0.425891 0.118819 0.112701 0.683196
O16   O     O_R   0.259710 0.061140 0.920790 -0.502451
O17   O     O_3   0.425260 0.949200 0.997610 -0.384382
V3    V     V_3+5 0.702060 0.009430 0.000450 1.535402
O18   O     O_R   0.090530 0.929220 0.078150 -0.543280
C55   C     C_R   0.921055 0.911670 0.102764 0.687550
O19   O     O_R   0.084440 0.906220 0.913360 -0.535642
C56   C     C_R   0.916205 0.883058 0.885358 0.786919
V4    V     V_3+5 0.201450 0.990520 0.999290 1.522828
O20   O     O_3   0.928380 0.050800 0.002390 -0.343287
I1    I     I_    0.920764 0.437050 0.857015 -0.415042
I2    I     I_    0.619430 0.261110 0.474164 -0.243276
I3    I     I_    0.475348 0.057041 0.494224 -0.101944
Cl1   Cl    Cl    0.317978 0.946127 0.329707 -0.572168
I4    I     I_    0.359949 0.536747 0.302038 -0.333410
I5    I     I_    0.249874 0.279466 0.954597 -0.379997
I6    I     I_    0.118427 0.228836 0.560813 -0.230639
Cl2   Cl    Cl    0.843470 0.916494 0.395846 -0.560127
I7    I     I_    0.903130 0.461348 0.224910 -0.407270
Cl3   Cl    Cl    0.937393 0.011252 0.793583 -0.605091
Cl4   Cl    Cl    0.841203 0.039243 0.629775 -0.510188

loop_
_geom_bond_atom_site_label_1
_geom_bond_atom_site_label_2
_ccdc_geom_bond_type
C33   C34   A    
C43   C53   S    
O15   V3    S    
C6    C9    A    
C48   C49   A    
C4    C6    S    
O2    C1    A    
C7    C8    A    
C26   I1    S    
C1    O6    A    
C18   H7    S    
C35   C36   A    
C32   H11   S    
C31   C32   A    
C30   C31   A    
C13   H2    S    
C42   I4    S    
C37   C42   A    
C40   H13   S    
C19   C20   A    
C51   H14   S    
C17   C18   A    
O14   V3    S    
O5    C3    A    
C21   C22   A    
O14   C54   A    
V2    O10   S    
O18   V4    S    
C29   C34   A    
C44   C46   A    
O8    V2    S    
C39   H12   S    
C18   C19   A    
C31   Cl1   S    
C15   Cl3   S    
C45   C49   A    
C11   C12   A    
C12   H1    S    
C45   C46   A    
C17   H6    S    
O13   V3    S    
O7    V1    S    
C36   C39   A    
C37   C38   A    
O9    C4    A    
C50   I5    S    
H10   C41   S    
O19   C56   A    
C16   Cl4   S    
C14   Cl2   S    
C22   C25   A    
C8    I7    S    
C29   I2    S    
C23   C28   A    
C5    C12   A    
O11   V4    S    
H5    C27   S    
C29   C30   A    
C51   C52   A    
C49   C50   A    
C22   C23   A    
O4    C2    A    
C53   O16   A    
C47   I6    S    
C36   C37   A    
C30   I3    S    
C34   C38   A    
C43   C50   A    
O13   C56   A    
C44   C47   A    
C7    C11   A    
C26   C27   A    
O5    V1    S    
C40   C41   A    
C28   H9    S    
V4    O20   S    
C1    C38   S    
C16   C17   A    
C25   H8    S    
C15   C20   A    
V3    O20   S    
O19   V4    S    
O3    C4    A    
O1    V2    S    
C23   C24   A    
O12   C53   A    
O6    V2    S    
C33   C35   A    
C5    C55   S    
C25   C26   A    
O2    V1    S    
C3    C21   S    
C27   C28   A    
C52   H16   S    
C32   C33   A    
C45   H15   S    
O1    C2    A    
C47   C48   A    
C2    C44   S    
O8    C3    A    
O17   V4    S    
C43   C51   A    
O12   V3    S    
C9    H4    S    
C35   C54   S    
C5    C13   A    
C15   C16   A    
O16   V4    S    
O9    V2    S    
C13   C14   A    
O4    V1    S    
O3    V1    S    
V1    O10   S    
O17   V3    S    
C24   C56   S    
O11   C54   A    
O15   C55   A    
C19   C21   A    
O18   C55   A    
C6    C8    A    
C20   C24   A    
C39   C40   A    
C41   C42   A    
C10   C14   A    
C48   C52   A    
C10   C11   A    
C9    C10   A    
O7    V2    S    
C46   H17   S    
C7    H3    S    
