data_mof_unit_58427.cif
_audit_creation_date              2012-12-11T15:12:46-0500
_audit_creation_method            fapswitch 2.2
_symmetry_space_group_name_H-M    P1
_symmetry_Int_Tables_number       1
_space_group_crystal_system       triclinic
_cell_length_a                    22.417627
_cell_length_b                    6.931759
_cell_length_c                    19.270611
_cell_angle_alpha                 89.999567
_cell_angle_beta                  98.9597
_cell_angle_gamma                 90.000549
_cell_volume                      2957.99051403

loop_
_atom_site_label
_atom_site_type_symbol
_atom_type_description
_atom_site_fract_x
_atom_site_fract_y
_atom_site_fract_z
_atom_type_partial_charge
O1    O     O_R   0.448420 0.506120 0.415750 -0.536174
O2    O     O_R   0.551580 0.006120 0.584250 -0.536180
O3    O     O_R   0.436490 0.174470 0.555610 -0.532173
O4    O     O_R   0.563510 0.674470 0.444390 -0.532174
C1    C     C_R   0.419186 0.345318 0.573063 0.709499
C2    C     C_R   0.580818 0.845322 0.426945 0.709485
O5    O     O_R   0.441310 0.176330 0.414520 -0.536936
O6    O     O_R   0.558690 0.676330 0.585480 -0.536932
O7    O     O_R   0.556430 0.007110 0.442150 -0.535773
O8    O     O_R   0.443570 0.507110 0.557850 -0.535763
C3    C     C_R   0.427592 0.345228 0.387527 0.711588
C4    C     C_R   0.572415 0.845229 0.612469 0.711577
O9    O     O_3   0.537770 0.339560 0.509230 -0.364005
O10   O     O_3   0.462230 0.839560 0.490770 -0.363997
V1    V     V_3+5 0.492990 0.064280 0.498290 1.446570
V2    V     V_3+5 0.507010 0.564280 0.501710 1.446584
C5    C     C_R   0.867672 0.953512 0.695260 0.463879
C6    C     C_R   0.132334 0.453105 0.304729 0.463815
H1    H     H_    0.953419 0.991049 0.760311 0.143925
H2    H     H_    0.046581 0.490637 0.239694 0.143930
C7    C     C_R   0.883422 0.939062 0.822045 -0.203804
C8    C     C_R   0.116587 0.439029 0.177942 -0.203878
C9    C     C_R   0.588286 0.838127 0.742033 -0.255710
C10   C     C_R   0.411741 0.338234 0.257966 -0.255679
C11   C     C_R   0.623530 0.860635 0.807743 0.436308
C12   C     C_R   0.376505 0.360774 0.192253 0.436329
C13   C     C_R   0.685645 0.893265 0.812581 -0.240020
C14   C     C_R   0.314387 0.393344 0.187407 -0.240086
C15   C     C_R   0.714916 0.894952 0.752501 0.063127
C16   C     C_R   0.285103 0.394949 0.247479 0.063066
C17   C     C_R   0.677235 0.885906 0.685499 0.066870
C18   C     C_R   0.322777 0.385837 0.314486 0.066861
C19   C     C_R   0.779651 0.911566 0.756403 -0.046602
C20   C     C_R   0.220363 0.411508 0.243571 -0.046486
C21   C     C_R   0.803801 0.943879 0.692571 -0.056250
C22   C     C_R   0.196205 0.443611 0.307413 -0.056278
C23   C     C_R   0.763812 0.958689 0.627699 -0.019941
C24   C     C_R   0.236186 0.458361 0.372291 -0.019924
C25   C     C_R   0.702756 0.916284 0.624700 -0.237575
C26   C     C_R   0.297248 0.416069 0.375287 -0.237611
C27   C     C_R   0.821883 0.892414 0.820586 0.321045
C28   C     C_R   0.178133 0.392494 0.179378 0.321204
C29   C     C_R   0.905439 0.968849 0.759533 -0.326999
C30   C     C_R   0.094565 0.468556 0.240464 -0.326986
C31   C     C_R   0.613816 0.855264 0.680567 -0.139376
C32   C     C_R   0.386199 0.355268 0.319425 -0.139374
H3    H     H_    0.540206 0.813230 0.738901 0.128641
H4    H     H_    0.459824 0.313388 0.261104 0.128638
H5    H     H_    0.708693 0.922374 0.864468 0.189566
H6    H     H_    0.291350 0.422466 0.135519 0.189566
H7    H     H_    0.674139 0.919985 0.573887 0.096543
H8    H     H_    0.325859 0.419723 0.426104 0.096541
C33   C     C_3   0.812069 0.743329 0.266071 -0.422894
C34   C     C_3   0.187950 0.243278 0.733961 -0.422886
C35   C     C_3   0.790641 0.096421 0.252230 -0.369808
C36   C     C_3   0.209363 0.596388 0.747775 -0.369827
C37   C     C_3   0.747470 0.076636 0.307709 -0.412233
C38   C     C_3   0.252540 0.576594 0.692304 -0.412205
H9    H     H_    0.855564 0.784132 0.299047 0.156021
H10   H     H_    0.144452 0.284040 0.700982 0.156015
H11   H     H_    0.774541 0.215053 0.215089 0.143148
H12   H     H_    0.225455 0.715046 0.784907 0.143137
H13   H     H_    0.836442 0.137585 0.279167 0.168805
H14   H     H_    0.163562 0.637518 0.720830 0.168819
H15   H     H_    0.773615 0.090608 0.361416 0.189013
H16   H     H_    0.226399 0.590541 0.638594 0.189042
H17   H     H_    0.714442 0.197682 0.301183 0.167804
H18   H     H_    0.285565 0.697650 0.698827 0.167812
C39   C     C_1   0.629444 0.856751 0.385568 -0.191480
C40   C     C_1   0.370567 0.356735 0.614451 -0.191494
C41   C     C_3   0.793750 0.904850 0.210871 0.160579
C42   C     C_3   0.206260 0.404836 0.789148 0.160596
C43   C     C_3   0.761337 0.712552 0.312188 -0.116467
C44   C     C_3   0.238684 0.212504 0.687846 -0.116440
C45   C     C_3   0.713727 0.879870 0.299445 0.136805
C46   C     C_3   0.286288 0.379840 0.700581 0.136808
C47   C     C_3   0.681069 0.868691 0.221498 0.248482
C48   C     C_3   0.318943 0.368694 0.778531 0.248468
C49   C     C_3   0.729168 0.860779 0.169987 -0.171988
C50   C     C_3   0.270841 0.360809 0.830040 -0.171967
C51   C     C_1   0.668399 0.867665 0.348418 -0.001108
C52   C     C_1   0.331617 0.367636 0.651608 -0.001109
C53   C     C_1   0.839007 0.923560 0.162024 -0.031497
C54   C     C_1   0.160999 0.423557 0.837988 -0.031477
C55   C     C_1   0.876073 0.937816 0.122487 -0.177493
C56   C     C_1   0.123930 0.437818 0.877520 -0.177533
H19   H     H_    0.717900 0.976700 0.130128 0.114031
H20   H     H_    0.282103 0.476765 0.869886 0.114023
H21   H     H_    0.820888 0.605437 0.239971 0.133040
H22   H     H_    0.179139 0.105395 0.760073 0.133034
H23   H     H_    0.737734 0.574925 0.295377 0.164154
H24   H     H_    0.262290 0.074888 0.704663 0.164166
H25   H     H_    0.656080 0.007816 0.210652 0.052619
H26   H     H_    0.343933 0.507822 0.789368 0.052611
O11   O     O_R   0.056480 0.288780 0.942210 -0.537709
O12   O     O_R   0.943520 0.788780 0.057790 -0.537637
O13   O     O_R   0.058700 0.616820 0.085490 -0.539687
O14   O     O_R   0.941300 0.116820 0.914510 -0.539697
C57   C     C_R   0.073655 0.447980 0.111412 0.774818
C58   C     C_R   0.926345 0.947982 0.888585 0.774960
O15   O     O_R   0.063520 0.618570 0.944410 -0.537903
O16   O     O_R   0.936480 0.118570 0.055590 -0.537939
O17   O     O_R   0.948420 0.787670 0.915740 -0.547426
O18   O     O_R   0.051580 0.287670 0.084260 -0.547465
C59   C     C_R   0.078880 0.449539 0.923891 0.739175
C60   C     C_R   0.921120 0.949537 0.076110 0.739269
O19   O     O_3   0.962260 0.453430 0.990800 -0.376804
O20   O     O_3   0.037740 0.953430 0.009200 -0.376787
V3    V     V_3+5 0.007000 0.728750 0.001710 1.391977
V4    V     V_3+5 0.993000 0.228750 0.998290 1.391851
C61   C     C_2   0.727615 0.670876 0.130694 0.422372
H27   H     H_    0.732368 0.535372 0.159170 0.060932
O21   O     O_2   0.720571 0.667916 0.066654 -0.561398
C62   C     C_2   0.272395 0.170940 0.869357 0.422258
H28   H     H_    0.267667 0.035408 0.840898 0.060960
O22   O     O_2   0.279407 0.168041 0.933398 -0.561314
O23   O     O_3   0.641511 0.706133 0.212814 -0.578049
C63   C     C_3   0.582467 0.756083 0.179818 0.076989
H29   H     H_    0.559914 0.621447 0.158301 0.147356
H30   H     H_    0.583182 0.854894 0.134400 0.112385
C64   C     C_3   0.545689 0.842907 0.233133 -0.331636
H31   H     H_    0.548092 0.743951 0.278732 0.205459
H32   H     H_    0.564660 0.985348 0.251361 0.185669
C65   C     C_3   0.479378 0.870393 0.203188 -0.815144
H33   H     H_    0.473754 0.934134 0.149667 0.250797
H34   H     H_    0.458049 0.966595 0.238164 0.241531
H35   H     H_    0.456134 0.729819 0.202607 0.219678
O24   O     O_3   0.358499 0.206135 0.787227 -0.578060
C66   C     C_3   0.417542 0.256094 0.820220 0.076982
H36   H     H_    0.440093 0.121466 0.841750 0.147332
H37   H     H_    0.416828 0.354934 0.865630 0.112369
C67   C     C_3   0.454323 0.342878 0.766900 -0.331634
H38   H     H_    0.451911 0.243915 0.721302 0.205468
H39   H     H_    0.435361 0.485328 0.748670 0.185659
C68   C     C_3   0.520637 0.370322 0.796840 -0.815122
H40   H     H_    0.526268 0.434080 0.850358 0.250821
H41   H     H_    0.541972 0.466488 0.761858 0.241528
H42   H     H_    0.543869 0.229729 0.797427 0.219651
C69   C     C_2   0.781753 0.030698 0.561432 0.465648
H43   H     H_    0.761541 0.968555 0.511562 0.015748
O25   O     O_2   0.815422 0.169132 0.561380 -0.501307
C70   C     C_2   0.218231 0.530200 0.438572 0.465592
H44   H     H_    0.238456 0.468015 0.488431 0.015802
O26   O     O_2   0.184533 0.668548 0.438653 -0.501392
O27   O     O_3   0.894911 0.944617 0.635624 -0.555255
C71   C     C_3   0.897286 0.750261 0.613218 0.108078
H45   H     H_    0.896439 0.751805 0.555414 0.156641
H46   H     H_    0.857443 0.662890 0.622585 0.119588
C72   C     C_3   0.956016 0.653321 0.647630 -0.379230
H47   H     H_    0.995258 0.739362 0.636416 0.209505
H48   H     H_    0.957431 0.646918 0.705446 0.188512
C73   C     C_3   0.961093 0.448249 0.620314 -0.725630
H49   H     H_    0.923098 0.358575 0.632803 0.278581
H50   H     H_    0.004183 0.382677 0.645826 0.213552
H51   H     H_    0.960508 0.449399 0.562569 0.238746
O28   O     O_3   0.105095 0.443951 0.364361 -0.555262
C74   C     C_3   0.102753 0.249516 0.386692 0.108164
H52   H     H_    0.103565 0.250879 0.444491 0.156724
H53   H     H_    0.142628 0.162303 0.377325 0.119539
C75   C     C_3   0.044060 0.152498 0.352200 -0.379390
H54   H     H_    0.004784 0.238414 0.363392 0.209496
H55   H     H_    0.042690 0.146215 0.294388 0.188506
C76   C     C_3   0.039003 0.947351 0.379457 -0.725437
H56   H     H_    0.077038 0.857812 0.366996 0.278584
H57   H     H_    0.995945 0.881713 0.353879 0.213519
H58   H     H_    0.039533 0.948377 0.437194 0.238758
O29   O     O_3   0.804083 0.831009 0.882496 -0.593957
C77   C     C_3   0.817959 0.633124 0.894564 0.096874
H59   H     H_    0.847050 0.621664 0.946611 0.168051
H60   H     H_    0.843097 0.564946 0.855153 0.104088
C78   C     C_3   0.759841 0.519342 0.896963 -0.329022
H61   H     H_    0.731882 0.594724 0.931335 0.253157
H62   H     H_    0.733532 0.510323 0.843197 0.195256
C79   C     C_3   0.773431 0.315763 0.925080 -0.756355
H63   H     H_    0.801103 0.237510 0.891257 0.238065
H64   H     H_    0.730489 0.236451 0.925347 0.224195
H65   H     H_    0.798186 0.320866 0.979676 0.236408
O30   O     O_3   0.195945 0.331467 0.117428 -0.594033
C80   C     C_3   0.181998 0.133705 0.105148 0.097143
H66   H     H_    0.153184 0.122623 0.052914 0.167923
H67   H     H_    0.156533 0.065570 0.144255 0.104246
C81   C     C_3   0.240106 0.019535 0.103163 -0.329324
H68   H     H_    0.268339 0.094764 0.069060 0.252940
H69   H     H_    0.266127 0.010275 0.157070 0.195173
C82   C     C_3   0.226519 0.816084 0.074911 -0.756030
H70   H     H_    0.198592 0.737937 0.108472 0.238116
H71   H     H_    0.269446 0.736512 0.074922 0.224168
H72   H     H_    0.202034 0.821432 0.020198 0.236412
O31   O     O_3   0.597751 0.833661 0.867874 -0.568463
C83   C     C_3   0.595403 0.009851 0.904671 0.034059
H73   H     H_    0.547200 0.052099 0.900588 0.145043
H74   H     H_    0.620321 0.131786 0.884303 0.110859
C84   C     C_3   0.620751 0.982193 0.982258 -0.278330
H75   H     H_    0.597519 0.859312 0.003756 0.212096
H76   H     H_    0.669724 0.949270 0.987534 0.228464
C85   C     C_3   0.612029 0.164455 0.024214 -0.843409
H77   H     H_    0.636732 0.287554 0.005055 0.257457
H78   H     H_    0.629595 0.141200 0.080594 0.222110
H79   H     H_    0.563300 0.201138 0.019226 0.231716
O32   O     O_3   0.402297 0.333883 0.132127 -0.568474
C86   C     C_3   0.404609 0.510085 0.095326 0.034033
H80   H     H_    0.452804 0.552407 0.099389 0.145068
H81   H     H_    0.379683 0.631981 0.115706 0.110856
C87   C     C_3   0.379245 0.482404 0.017744 -0.278320
H82   H     H_    0.402485 0.359558 0.996239 0.212063
H83   H     H_    0.330276 0.449415 0.012485 0.228507
C88   C     C_3   0.387933 0.664686 0.975782 -0.843362
H84   H     H_    0.363205 0.787733 0.994936 0.257489
H85   H     H_    0.370372 0.641395 0.919402 0.222087
H86   H     H_    0.436654 0.701468 0.980768 0.231699
C89   C     C_2   0.788590 0.691029 0.388644 0.359403
H87   H     H_    0.816197 0.805238 0.415448 0.051703
O33   O     O_2   0.780171 0.544365 0.420842 -0.521863
C90   C     C_2   0.211430 0.190949 0.611391 0.359303
H88   H     H_    0.183817 0.305136 0.584584 0.051813
O34   O     O_2   0.219858 0.044284 0.579199 -0.521913

loop_
_geom_bond_atom_site_label_1
_geom_bond_atom_site_label_2
_ccdc_geom_bond_type
C2    C39   S    
C25   H7    S    
C78   H61   S    
C83   H73   S    
C9    C31   A    
C13   C15   A    
C86   H81   S    
C86   H80   S    
C63   H29   S    
C76   H56   S    
C20   C28   A    
C48   O24   S    
O24   C66   S    
C2    O7    A    
C41   C49   S    
O27   C71   S    
C33   H9    S    
C38   C46   S    
C68   H40   S    
C34   H10   S    
O5    C3    A    
C78   H62   S    
C74   H52   S    
C44   C46   S    
O14   V4    S    
O28   C74   S    
C76   H57   S    
C46   C48   S    
C34   H22   S    
C47   O23   S    
C72   H48   S    
C19   C21   A    
C48   C50   S    
C82   H71   S    
C89   O33   D    
O15   V3    S    
C15   C19   A    
O20   V3    S    
C35   H11   S    
C44   H24   S    
C79   H63   S    
C64   C65   S    
O11   C59   A    
C83   C84   S    
O13   C57   A    
C34   C44   S    
C14   H6    S    
C38   H16   S    
C77   C78   S    
C8    C30   A    
C61   H27   S    
C17   C25   A    
C67   H38   S    
C84   H76   S    
O1    C3    A    
C8    C28   A    
C88   H86   S    
C36   H14   S    
C12   O32   S    
C11   O31   S    
C71   H46   S    
C66   C67   S    
C77   H60   S    
C57   O18   A    
O2    C4    A    
O6    V2    S    
C24   C26   A    
C7    C29   A    
C44   C90   S    
C15   C17   A    
C24   C70   S    
C87   H83   S    
C37   H17   S    
C85   H79   S    
C49   H19   S    
H2    C30   S    
H1    C29   S    
C3    C32   S    
O30   C80   S    
C41   C53   S    
C47   C49   S    
O15   C59   A    
C23   C25   A    
C78   C79   S    
C33   C43   S    
C9    H3    S    
C16   C20   A    
C47   H25   S    
C88   H84   S    
C10   H4    S    
C75   C76   S    
C23   C69   S    
C76   H58   S    
C43   H23   S    
O4    C2    A    
C72   C73   S    
C46   C52   S    
O29   C77   S    
C7    C58   S    
C90   H88   S    
O32   C86   S    
C82   H72   S    
C36   C42   S    
C26   H8    S    
C58   O17   A    
C35   H13   S    
C63   C64   S    
C75   H55   S    
O4    V2    S    
C5    O27   S    
C5    C29   A    
C1    C40   S    
C6    C30   A    
C71   C72   S    
O13   V3    S    
C89   H87   S    
C73   H51   S    
O6    C4    A    
C84   C85   S    
C61   O21   D    
O1    V2    S    
C87   H82   S    
O2    V1    S    
C45   C47   S    
C79   H65   S    
C64   H31   S    
C42   C54   S    
C68   H42   S    
C65   H35   S    
C7    C27   A    
C63   H30   S    
C48   H26   S    
C67   H39   S    
C77   H59   S    
C53   C55   T    
C50   C62   S    
C74   C75   S    
O14   C58   A    
C35   C37   S    
C33   H21   S    
C86   C87   S    
O10   V2    S    
O16   V4    S    
C56   C59   S    
C43   C45   S    
C55   C60   S    
C33   C41   S    
C6    O28   S    
O18   V4    S    
C65   H34   S    
C71   H45   S    
C73   H50   S    
C38   H18   S    
C68   H41   S    
O12   C60   A    
C83   H74   S    
C8    C57   S    
C81   H69   S    
C21   C23   A    
C70   H44   S    
C18   C32   A    
C43   C89   S    
C45   C51   S    
C10   C12   A    
C37   H15   S    
C85   H77   S    
O3    C1    A    
O11   V4    S    
C62   O22   D    
C69   H43   S    
O20   V4    S    
C62   H28   S    
C50   H20   S    
C4    C31   S    
C11   C13   A    
O12   V3    S    
C12   C14   A    
C49   C61   S    
O17   V3    S    
C19   C27   A    
C75   H54   S    
C80   C81   S    
O9    V1    S    
C66   H36   S    
C90   O34   D    
C10   C32   A    
C14   C16   A    
C42   C50   S    
C36   H12   S    
O23   C63   S    
C22   C24   A    
C16   C18   A    
C69   O25   D    
C37   C45   S    
C82   H70   S    
O19   V3    S    
C28   O30   S    
C67   C68   S    
C27   O29   S    
O5    V1    S    
O19   V4    S    
C20   C22   A    
C36   C38   S    
O16   C60   A    
C87   C88   S    
C70   O26   D    
C18   C26   A    
O7    V1    S    
O31   C83   S    
C40   C52   T    
C79   H64   S    
C64   H32   S    
C85   H78   S    
C39   C51   T    
C80   H66   S    
C13   H5    S    
C1    O8    A    
C9    C11   A    
C34   C42   S    
C73   H49   S    
C74   H53   S    
C84   H75   S    
C17   C31   A    
O9    V2    S    
C88   H85   S    
O10   V1    S    
C54   C56   T    
O3    V1    S    
O8    V2    S    
C5    C21   A    
C80   H67   S    
C72   H47   S    
C6    C22   A    
C81   C82   S    
C35   C41   S    
C81   H68   S    
C65   H33   S    
C66   H37   S    
