data_mof_unit_60472.cif
_audit_creation_date              2013-03-05T16:31:38-0500
_audit_creation_method            fapswitch 2.2
_symmetry_space_group_name_H-M    P1
_symmetry_Int_Tables_number       1
_space_group_crystal_system       triclinic
_cell_length_a                    38.615077
_cell_length_b                    32.104738
_cell_length_c                    21.385629
_cell_angle_alpha                 90.017958
_cell_angle_beta                  123.688529
_cell_angle_gamma                 90.011199
_cell_volume                      22059.9920913

loop_
_atom_site_label
_atom_site_type_symbol
_atom_site_description
_atom_site_fract_x
_atom_site_fract_y
_atom_site_fract_z
_atom_type_partial_charge
O1    O     O_R   0.939010 0.034440 0.439030 -0.614647
O2    O     O_R   0.060990 0.034440 0.560970 -0.612615
O3    O     O_R   0.439010 0.534440 0.439030 -0.607621
O4    O     O_R   0.560990 0.534440 0.560970 -0.613140
O5    O     O_R   0.939030 0.965580 0.439000 -0.608457
O6    O     O_R   0.060970 0.965580 0.561000 -0.608311
O7    O     O_R   0.439030 0.465580 0.439000 -0.614277
O8    O     O_R   0.560970 0.465580 0.561000 -0.608444
C1    C     C_R   0.919381 0.999988 0.419272 0.890091
C2    C     C_R   0.080618 0.000006 0.580725 0.891105
C3    C     C_R   0.419381 0.500007 0.419271 0.889918
C4    C     C_R   0.580619 0.500005 0.580730 0.890208
O9    O     O_R   0.000010 0.034440 0.593030 -0.615077
O10   O     O_R   0.999990 0.034440 0.406970 -0.619956
O11   O     O_R   0.500010 0.534440 0.593030 -0.615467
O12   O     O_R   0.499990 0.534440 0.406970 -0.614492
O13   O     O_R   0.000020 0.965580 0.593000 -0.622953
O14   O     O_R   0.999980 0.965580 0.407000 -0.621847
O15   O     O_R   0.500020 0.465580 0.593000 -0.622888
O16   O     O_R   0.499980 0.465580 0.407000 -0.623982
C5    C     C_R   0.998959 0.999980 0.620576 0.915340
C6    C     C_R   0.000894 0.999953 0.379238 0.914657
C7    C     C_R   0.498961 0.499979 0.620579 0.914802
C8    C     C_R   0.501006 0.499965 0.379387 0.914005
Zn1   Zn    Zn3+2 0.000000 0.045990 0.500000 1.001801
Zn2   Zn    Zn3+2 0.500000 0.545990 0.500000 1.009403
Zn3   Zn    Zn3+2 1.000000 0.954030 0.500000 1.002570
Zn4   Zn    Zn3+2 0.500000 0.454030 0.500000 0.999540
C9    C     C_3   0.976492 0.032345 0.706068 0.065600
C10   C     C_3   0.025598 0.030486 0.295640 0.067574
C11   C     C_3   0.476363 0.532249 0.705940 0.065055
C12   C     C_3   0.524172 0.531818 0.294632 0.066630
C13   C     C_3   0.959743 0.996861 0.731363 -0.248264
C14   C     C_3   0.039956 0.993716 0.268427 -0.249394
C15   C     C_3   0.459757 0.496698 0.731379 -0.248429
C16   C     C_3   0.540157 0.495996 0.268544 -0.249697
H1    H     H_    0.927534 0.994072 0.717455 0.185576
H2    H     H_    0.071865 0.988663 0.281953 0.184483
H3    H     H_    0.427560 0.493779 0.717484 0.185499
H4    H     H_    0.572299 0.492538 0.282384 0.184321
C17   C     C_3   0.999790 0.000521 0.811101 -0.192573
C18   C     C_3   0.000239 0.999703 0.188950 -0.189829
C19   C     C_3   0.499790 0.500517 0.811101 -0.191654
C20   C     C_3   0.500202 0.500478 0.188893 -0.190717
C21   C     C_3   0.015920 0.035635 0.785520 0.324867
C22   C     C_3   0.986414 0.036027 0.216236 0.323643
C23   C     C_3   0.515780 0.535696 0.785379 0.325058
C24   C     C_3   0.484825 0.535919 0.215253 0.326630
C25   C     C_3   0.038406 0.003545 0.767034 0.007354
C26   C     C_3   0.961828 0.005682 0.232893 0.010706
C27   C     C_3   0.538392 0.503697 0.767019 0.007051
C28   C     C_3   0.461651 0.504307 0.233020 0.003623
C29   C     C_3   0.022028 0.968029 0.792605 0.132695
C30   C     C_3   0.975877 0.968952 0.205502 0.135763
C31   C     C_3   0.522157 0.468115 0.792732 0.132684
C32   C     C_3   0.477264 0.468456 0.206658 0.123065
C33   C     C_3   0.982443 0.964470 0.712785 0.157185
C34   C     C_3   0.015124 0.963069 0.285096 0.156939
C35   C     C_3   0.482586 0.464398 0.712929 0.157362
C36   C     C_3   0.516759 0.464081 0.286389 0.159034
C37   C     C_3   0.998758 0.999921 0.687480 -0.095840
C38   C     C_3   0.001162 0.999749 0.312333 -0.106041
C39   C     C_3   0.498758 0.499915 0.687481 -0.095632
C40   C     C_3   0.501208 0.499866 0.312487 -0.093965
C41   C     C_R   0.728240 0.999298 0.171633 0.014323
C42   C     C_R   0.271751 0.998277 0.828296 0.015093
C43   C     C_R   0.228244 0.501339 0.171656 0.014387
C44   C     C_R   0.771756 0.498785 0.828340 0.015039
C45   C     C_R   0.706495 0.998840 0.207377 0.050478
C46   C     C_R   0.293501 0.998946 0.792564 0.050045
C47   C     C_R   0.206498 0.501207 0.207402 0.050563
C48   C     C_R   0.793502 0.498903 0.792595 0.050007
C49   C     C_R   0.728065 0.998065 0.286838 0.162261
C50   C     C_R   0.271934 0.999339 0.713094 0.162786
C51   C     C_R   0.228066 0.501421 0.286875 0.162248
C52   C     C_R   0.771934 0.498732 0.713122 0.162911
C53   C     C_R   0.772115 0.997877 0.330801 0.150328
C54   C     C_R   0.227884 0.999165 0.669115 0.150707
C55   C     C_R   0.272117 0.501609 0.330844 0.150736
C56   C     C_R   0.727883 0.498559 0.669152 0.150665
C57   C     C_R   0.793451 0.998618 0.294536 -0.072597
C58   C     C_R   0.206545 0.998756 0.705382 -0.072989
C59   C     C_R   0.293453 0.501405 0.294572 -0.072705
C60   C     C_R   0.706547 0.498714 0.705426 -0.073061
C61   C     C_R   0.771966 0.999421 0.215837 0.290235
C62   C     C_R   0.228025 0.998424 0.784091 0.290527
C63   C     C_R   0.271972 0.501198 0.215860 0.290351
C64   C     C_R   0.728030 0.498928 0.784136 0.290530
C65   C     C_1   0.661854 0.999388 0.162219 0.010978
C66   C     C_1   0.338143 0.999446 0.837755 0.009626
C67   C     C_1   0.161856 0.500627 0.162229 0.010535
C68   C     C_1   0.838145 0.499421 0.837770 0.009575
C69   C     C_1   0.838062 0.999415 0.338471 0.079515
C70   C     C_1   0.161936 0.999513 0.661478 0.080312
C71   C     C_1   0.338063 0.500561 0.338494 0.078912
C72   C     C_1   0.661937 0.499493 0.661508 0.080187
C73   C     C_1   0.875278 0.999853 0.375358 -0.142142
C74   C     C_1   0.124720 0.999914 0.624615 -0.141538
C75   C     C_1   0.375279 0.500105 0.375369 -0.141586
C76   C     C_1   0.624721 0.499908 0.624633 -0.141274
C77   C     C_1   0.624602 0.999745 0.124686 -0.175191
C78   C     C_1   0.375397 0.999768 0.875307 -0.178384
C79   C     C_1   0.124603 0.500249 0.124688 -0.175272
C80   C     C_1   0.875398 0.499757 0.875311 -0.178474
O17   O     O_R   0.034440 0.939060 0.034360 -0.621712
O18   O     O_R   0.965560 0.939060 0.965640 -0.608051
O19   O     O_R   0.534440 0.439060 0.034360 -0.622151
O20   O     O_R   0.465560 0.439060 0.965640 -0.608618
C81   C     C_R   0.999977 0.919412 0.999951 0.878659
C82   C     C_R   0.499977 0.419412 0.999956 0.877947
O21   O     O_R   0.034440 0.000050 0.941370 -0.598179
O22   O     O_R   0.965560 0.000050 0.058630 -0.594238
O23   O     O_R   0.534440 0.500050 0.941370 -0.598823
O24   O     O_R   0.465560 0.500050 0.058630 -0.598773
O25   O     O_R   0.965570 0.000070 0.872530 -0.634120
O26   O     O_R   0.034430 0.000070 0.127470 -0.635321
O27   O     O_R   0.465570 0.500070 0.872530 -0.635208
O28   O     O_R   0.534430 0.500070 0.127470 -0.636271
C83   C     C_R   0.999964 0.000294 0.878300 0.963865
C84   C     C_R   0.000038 0.000024 0.121714 0.935281
C85   C     C_R   0.499964 0.500291 0.878299 0.962715
C86   C     C_R   0.500035 0.500271 0.121700 0.961149
Zn5   Zn    Zn3+2 0.045990 0.000050 0.045940 1.026868
Zn6   Zn    Zn3+2 0.954010 0.000050 0.954060 1.037493
Zn7   Zn    Zn3+2 0.545990 0.500050 0.045940 1.026301
Zn8   Zn    Zn3+2 0.454010 0.500050 0.954060 1.033561
O29   O     O_R   0.034450 0.061050 0.034440 -0.597804
O30   O     O_R   0.965550 0.061050 0.965560 -0.605763
O31   O     O_R   0.534450 0.561050 0.034440 -0.601240
O32   O     O_R   0.465550 0.561050 0.965560 -0.602432
C87   C     C_R   0.000007 0.080717 0.000125 0.956691
C88   C     C_R   0.500008 0.580717 0.000000 0.978252
O33   O     O_R   0.500030 0.939050 0.052570 -0.614635
O34   O     O_R   0.499970 0.939050 0.947430 -0.614560
O35   O     O_R   0.000030 0.439050 0.052570 -0.614633
O36   O     O_R   0.999970 0.439050 0.947430 -0.614345
C89   C     C_R   0.500000 0.919564 0.999991 0.890885
C90   C     C_R   0.999999 0.419564 0.999991 0.891142
O37   O     O_R   0.561000 0.000050 0.113470 -0.612235
O38   O     O_R   0.439000 0.000050 0.886530 -0.613922
O39   O     O_R   0.061000 0.500050 0.113470 -0.612156
O40   O     O_R   0.939000 0.500050 0.886530 -0.613908
O41   O     O_R   0.561000 0.999980 0.008430 -0.608503
O42   O     O_R   0.439000 0.999980 0.991570 -0.610165
O43   O     O_R   0.061000 0.499980 0.008430 -0.608573
O44   O     O_R   0.939000 0.499980 0.991570 -0.610255
C91   C     C_R   0.580459 0.000011 0.080438 0.901237
C92   C     C_R   0.419540 0.000008 0.919561 0.896791
C93   C     C_R   0.080460 0.499982 0.080438 0.901128
C94   C     C_R   0.919541 0.500008 0.919562 0.896789
Zn9   Zn    Zn3+2 0.500020 0.000060 0.070120 1.023837
Zn10  Zn    Zn3+2 0.499980 0.000060 0.929880 1.022098
Zn11  Zn    Zn3+2 0.000020 0.500060 0.070120 1.023712
Zn12  Zn    Zn3+2 0.999980 0.500060 0.929880 1.022009
O45   O     O_R   0.500000 0.061040 0.052440 -0.593367
O46   O     O_R   0.500000 0.061040 0.947560 -0.596099
O47   O     O_R   0.000000 0.561040 0.052440 -0.593421
O48   O     O_R   0.000000 0.561040 0.947560 -0.596246
C95   C     C_R   0.500078 0.080541 0.000090 0.885658
C96   C     C_R   0.000079 0.580541 0.000091 0.885437
C97   C     C_R   0.496106 0.228171 0.052958 0.197494
C98   C     C_R   0.508213 0.228152 0.951818 0.196963
C99   C     C_R   0.996412 0.728171 0.053319 0.197435
C100  C     C_R   0.007936 0.728150 0.951459 0.197051
C101  C     C_R   0.503250 0.206597 0.003746 -0.202291
C102  C     C_R   0.003265 0.706597 0.003735 -0.202320
C103  C     C_R   0.005581 0.771883 0.948557 0.205207
C104  C     C_R   0.994047 0.771897 0.050408 0.204923
C105  C     C_R   0.505861 0.271884 0.948893 0.205248
C106  C     C_R   0.493743 0.271896 0.050022 0.204846
C107  C     C_R   0.998606 0.793427 0.997998 -0.199147
C108  C     C_R   0.498598 0.293428 0.997965 -0.199097
C109  C     C_1   0.502049 0.161998 0.002281 0.175038
C110  C     C_1   0.002059 0.661998 0.002278 0.174992
C111  C     C_1   0.999329 0.838002 0.998917 0.175403
C112  C     C_1   0.499325 0.338003 0.998900 0.175219
C113  C     C_1   0.999815 0.875260 0.999600 -0.104008
C114  C     C_1   0.499814 0.375261 0.999596 -0.103842
C115  C     C_1   0.501006 0.124728 0.001077 -0.088023
C116  C     C_1   0.001011 0.624728 0.001080 -0.088272
H5    H     H_    0.000753 0.210730 0.900578 0.172306
H6    H     H_    0.999341 0.210840 0.099717 0.176338
H7    H     H_    0.501883 0.710762 0.901617 0.172535
H8    H     H_    0.498200 0.710808 0.098416 0.173060
C117  C     C_R   0.501083 0.771600 0.943729 0.148233
C118  C     C_R   0.498985 0.771626 0.056280 0.147898
C119  C     C_R   0.000440 0.271581 0.943147 0.148122
C120  C     C_R   0.999640 0.271645 0.057035 0.147487
C121  C     C_R   0.500030 0.793420 0.999998 0.122773
C122  C     C_R   0.000034 0.293420 0.000067 0.122822
C123  C     C_R   0.999648 0.228087 0.056431 -0.155710
C124  C     C_R   0.000445 0.228025 0.943834 -0.155609
C125  C     C_R   0.499001 0.728069 0.055651 -0.156174
C126  C     C_R   0.501081 0.728043 0.944377 -0.156617
C127  C     C_R   0.000047 0.206584 0.000150 0.055592
C128  C     C_R   0.500043 0.706584 0.000018 0.055777
C129  C     C_1   0.500018 0.838076 0.999985 -0.028368
C130  C     C_1   0.000020 0.338076 0.000018 -0.028152
C131  C     C_1   0.000037 0.162192 0.000170 0.002460
C132  C     C_1   0.500038 0.662192 0.000016 -0.000633
C133  C     C_1   0.000024 0.124918 0.000163 -0.096145
C134  C     C_1   0.500027 0.624918 0.000011 -0.088954
C135  C     C_1   0.500008 0.875356 0.999981 -0.164961
C136  C     C_1   0.000009 0.375356 0.999991 -0.164727
C137  C     C_3   0.797329 0.997056 0.416222 -0.855108
H9    H     H_    0.778532 0.996299 0.440669 0.248816
H10   H     H_    0.817513 0.968983 0.436917 0.240399
H11   H     H_    0.817326 0.025234 0.438717 0.237711
C138  C     C_3   0.202673 0.999556 0.583684 -0.856475
H12   H     H_    0.221471 0.999677 0.559226 0.248725
H13   H     H_    0.182467 0.971505 0.561660 0.239958
H14   H     H_    0.182696 0.027769 0.562515 0.238125
C139  C     C_3   0.297329 0.501868 0.416278 -0.855287
H15   H     H_    0.278532 0.502254 0.440735 0.248757
H16   H     H_    0.317276 0.473653 0.438124 0.238400
H17   H     H_    0.317563 0.529916 0.437624 0.239756
C140  C     C_3   0.702670 0.498363 0.583718 -0.856643
H18   H     H_    0.721468 0.498053 0.559259 0.248618
H19   H     H_    0.682459 0.470302 0.562312 0.240116
H20   H     H_    0.682701 0.526566 0.561933 0.237901
N1    N     N_R   0.988688 0.794434 0.102657 0.244131
O49   O     O_R   0.960512 0.823376 0.079058 -0.376959
O50   O     O_R   0.012123 0.786171 0.174171 -0.318240
N2    N     N_R   0.011947 0.794407 0.897548 0.245186
O51   O     O_R   0.986064 0.823445 0.854642 -0.385559
O52   O     O_R   0.043830 0.786068 0.894112 -0.310187
N3    N     N_R   0.488084 0.294433 0.101905 0.243967
O53   O     O_R   0.459878 0.323368 0.077948 -0.376474
O54   O     O_R   0.511273 0.286175 0.173445 -0.318218
N4    N     N_R   0.512520 0.294409 0.898254 0.245226
O55   O     O_R   0.486725 0.323449 0.855141 -0.385622
O56   O     O_R   0.544581 0.286070 0.895363 -0.309965
N5    N     N_R   0.489559 0.205676 0.103744 0.248809
O57   O     O_R   0.457637 0.214107 0.107013 -0.299963
O58   O     O_R   0.515400 0.176650 0.146785 -0.349747
N6    N     N_R   0.513935 0.205633 0.900013 0.249469
O59   O     O_R   0.490979 0.214073 0.828527 -0.303306
O60   O     O_R   0.542012 0.176563 0.924012 -0.348932
N7    N     N_R   0.990160 0.705676 0.104476 0.248833
O61   O     O_R   0.958421 0.714109 0.108297 -0.300030
O62   O     O_R   0.016088 0.676650 0.147303 -0.349917
N8    N     N_R   0.013363 0.705631 0.899294 0.249436
O63   O     O_R   0.990160 0.714071 0.827827 -0.303449
O64   O     O_R   0.041417 0.676560 0.922947 -0.349600
C141  C     C_3   0.502204 0.794299 0.883167 -0.850838
H21   H     H_    0.502941 0.772387 0.843708 0.246439
H22   H     H_    0.474104 0.814177 0.850350 0.246545
H23   H     H_    0.530425 0.814213 0.909077 0.249945
C142  C     C_3   0.497857 0.794353 0.116832 -0.850606
H24   H     H_    0.497130 0.772459 0.156304 0.246607
H25   H     H_    0.525950 0.814269 0.149637 0.246565
H26   H     H_    0.469629 0.814232 0.090913 0.249869
C143  C     C_3   0.000863 0.294259 0.881849 -0.850599
H27   H     H_    0.001145 0.272334 0.841938 0.246251
H28   H     H_    0.972713 0.314136 0.849686 0.246336
H29   H     H_    0.029053 0.314173 0.906994 0.250365
C144  C     C_3   0.999210 0.294392 0.118289 -0.849023
H30   H     H_    0.998939 0.272511 0.158247 0.247510
H31   H     H_    0.027352 0.314309 0.150410 0.246685
H32   H     H_    0.971012 0.314272 0.093108 0.249366
C145  C     C_3   0.950387 0.068823 0.657122 -0.786696
H33   H     H_    0.937516 0.085901 0.684992 0.245063
H34   H     H_    0.969952 0.090335 0.648710 0.272753
H35   H     H_    0.924393 0.057113 0.601760 0.224022
C146  C     C_3   0.054519 0.064587 0.348209 -0.763709
H36   H     H_    0.069145 0.080673 0.322538 0.254169
H37   H     H_    0.036649 0.087497 0.358375 0.269470
H38   H     H_    0.079225 0.050622 0.402543 0.215386
C147  C     C_3   0.450112 0.568618 0.656834 -0.786177
H39   H     H_    0.437177 0.585653 0.684632 0.244946
H40   H     H_    0.469591 0.590201 0.648321 0.272862
H41   H     H_    0.424164 0.556800 0.601524 0.224141
C148  C     C_3   0.551043 0.567739 0.344446 -0.788196
H42   H     H_    0.564272 0.584586 0.316984 0.245393
H43   H     H_    0.531936 0.589617 0.353383 0.273002
H44   H     H_    0.576782 0.555480 0.399522 0.223497
N9    N     N_R   0.034099 0.074960 0.824290 0.214570
O65   O     O_R   0.047093 0.101732 0.796077 -0.367435
O66   O     O_R   0.036538 0.084027 0.885865 -0.403527
N10   N     N_R   0.970028 0.075152 0.175464 0.206282
O67   O     O_R   0.988847 0.110166 0.205913 -0.393474
O68   O     O_R   0.936348 0.075132 0.108021 -0.368902
N11   N     N_R   0.533805 0.575089 0.824000 0.214530
O69   O     O_R   0.546676 0.601924 0.795668 -0.367554
O70   O     O_R   0.536252 0.584142 0.885588 -0.406188
N12   N     N_R   0.467486 0.575595 0.177325 0.214137
O71   O     O_R   0.455133 0.602678 0.206177 -0.366476
O72   O     O_R   0.465064 0.584603 0.115753 -0.407385
C149  C     C_3   0.082490 0.007384 0.785784 -0.700271
H45   H     H_    0.104799 0.009927 0.847549 0.266650
H46   H     H_    0.090124 0.979446 0.765097 0.247635
H47   H     H_    0.084961 0.035532 0.758386 0.258117
C150  C     C_3   0.918142 0.012618 0.214587 -0.702542
H48   H     H_    0.895821 0.015403 0.152872 0.277744
H49   H     H_    0.909053 0.985883 0.235407 0.247466
H50   H     H_    0.917429 0.041611 0.242119 0.246630
C151  C     C_3   0.582460 0.507711 0.785751 -0.699877
H51   H     H_    0.604760 0.510335 0.847507 0.266577
H52   H     H_    0.590200 0.479807 0.765163 0.247578
H53   H     H_    0.584821 0.535872 0.758252 0.258242
C152  C     C_3   0.417654 0.509090 0.214324 -0.690968
H54   H     H_    0.395425 0.512116 0.152620 0.266118
H55   H     H_    0.409365 0.481335 0.234336 0.237327
H56   H     H_    0.415810 0.537294 0.242357 0.265835
C153  C     C_3   0.047559 0.931482 0.842306 -0.765518
H57   H     H_    0.059137 0.912828 0.813834 0.257664
H58   H     H_    0.074457 0.943217 0.896618 0.248049
H59   H     H_    0.027882 0.911511 0.852952 0.253597
C154  C     C_3   0.948029 0.934038 0.153734 -0.746664
H60   H     H_    0.935266 0.916313 0.181150 0.254726
H61   H     H_    0.921940 0.947371 0.100149 0.252462
H62   H     H_    0.966372 0.912747 0.141902 0.253406
C155  C     C_3   0.547835 0.431668 0.842571 -0.765183
H63   H     H_    0.559478 0.413059 0.814158 0.257480
H64   H     H_    0.574694 0.443508 0.896829 0.248070
H65   H     H_    0.528243 0.411621 0.853311 0.253742
C156  C     C_3   0.450951 0.432438 0.156168 -0.750138
H66   H     H_    0.439033 0.413997 0.184291 0.255314
H67   H     H_    0.424270 0.444715 0.102166 0.249998
H68   H     H_    0.470181 0.412102 0.144988 0.253543
C157  C     C_3   0.962899 0.923837 0.671285 -0.784657
H69   H     H_    0.952859 0.905347 0.702392 0.257969
H70   H     H_    0.935461 0.930619 0.613980 0.229535
H71   H     H_    0.985966 0.905571 0.667215 0.259914
C158  C     C_3   0.031990 0.921316 0.324114 -0.785246
H72   H     H_    0.040792 0.902113 0.291854 0.252162
H73   H     H_    0.059828 0.926386 0.381764 0.232783
H74   H     H_    0.007786 0.904632 0.327124 0.260112
C159  C     C_3   0.463205 0.423684 0.671605 -0.784836
H75   H     H_    0.453244 0.405158 0.702798 0.257988
H76   H     H_    0.435736 0.430351 0.614274 0.229472
H77   H     H_    0.486343 0.405508 0.667606 0.259878
C160  C     C_3   0.535429 0.423045 0.326934 -0.790986
H78   H     H_    0.545056 0.404364 0.295378 0.251663
H79   H     H_    0.563018 0.429245 0.384379 0.231689
H80   H     H_    0.511980 0.405250 0.330606 0.260371
N13   N     N_R   0.794756 0.999858 0.180762 0.214444
O73   O     O_R   0.821096 0.970271 0.194420 -0.392078
O74   O     O_R   0.790727 0.030848 0.138029 -0.369294
N14   N     N_R   0.205231 0.997733 0.819154 0.214583
O75   O     O_R   0.178844 0.967927 0.804095 -0.392164
O76   O     O_R   0.209296 0.027949 0.863305 -0.369601
N15   N     N_R   0.294765 0.501353 0.180785 0.214212
O77   O     O_R   0.321211 0.531008 0.195332 -0.382947
O78   O     O_R   0.290626 0.470818 0.137126 -0.377760
N16   N     N_R   0.705239 0.498784 0.819212 0.214645
O79   O     O_R   0.678860 0.469082 0.804806 -0.392554
O80   O     O_R   0.709303 0.529377 0.862714 -0.369613
C161  C     C_3   0.705738 0.998684 0.086698 -0.724431
H81   H     H_    0.671732 0.993719 0.056590 0.226811
H82   H     H_    0.710616 0.028751 0.067084 0.271249
H83   H     H_    0.718034 0.972964 0.069602 0.253563
C162  C     C_3   0.294247 0.996417 0.913172 -0.728508
H84   H     H_    0.328248 0.991523 0.943056 0.226726
H85   H     H_    0.289402 0.025986 0.934181 0.270442
H86   H     H_    0.281917 0.970129 0.929044 0.253860
C163  C     C_3   0.205739 0.502609 0.086745 -0.723352
H87   H     H_    0.171746 0.507595 0.056776 0.228556
H88   H     H_    0.218095 0.528599 0.070308 0.259183
H89   H     H_    0.210538 0.472780 0.066354 0.264720
C164  C     C_3   0.794255 0.497525 0.913251 -0.728619
H90   H     H_    0.828255 0.492591 0.943238 0.226784
H91   H     H_    0.789411 0.527339 0.933619 0.270361
H92   H     H_    0.781926 0.471511 0.929692 0.253886
C165  C     C_3   0.704633 0.997452 0.325089 -0.842432
H93   H     H_    0.670340 0.997702 0.285883 0.246008
H94   H     H_    0.712692 0.968783 0.359534 0.243314
H95   H     H_    0.713053 0.025359 0.361482 0.248031
C166  C     C_3   0.295370 0.999949 0.674850 -0.845218
H96   H     H_    0.329663 0.000086 0.714070 0.245811
H97   H     H_    0.287273 0.971825 0.639059 0.243673
H98   H     H_    0.286990 0.028407 0.639794 0.247404
C167  C     C_3   0.204633 0.501434 0.325130 -0.841743
H99   H     H_    0.170340 0.501216 0.285917 0.246158
H100  H     H_    0.213041 0.473266 0.360881 0.243302
H101  H     H_    0.212704 0.529851 0.360229 0.248038
C168  C     C_3   0.795367 0.498742 0.674866 -0.845647
H102  H     H_    0.829660 0.498927 0.714080 0.245809
H103  H     H_    0.787271 0.470351 0.639698 0.243678
H104  H     H_    0.786984 0.526936 0.639186 0.247275

loop_
_geom_bond_atom_site_label_1
_geom_bond_atom_site_label_2
_geom_bond_distance
_ccdc_geom_bond_type
C126  C128  1.394830 A    
O33   C89   1.286002 A    
C163  H87   1.107346 S    
C58   C70   1.433637 S    
C31   C35   1.539011 S    
C159  H76   1.109800 S    
C118  C125  1.398456 A    
C14   C18   1.544817 S    
N13   O73   1.301174 A    
C111  C113  1.196256 T    
C160  H78   1.109713 S    
C120  C123  1.398469 A    
O22   Zn6   2.023232 S    
O42   Zn9   1.995732 S    
C71   C75   1.195886 T    
C152  H56   1.109686 S    
C82   C114  1.417491 S    
H8    C125  1.084485 S    
C9    C13   1.548192 S    
C148  H44   1.109886 S    
O17   Zn5   1.992763 S    
C80   C94   1.418349 S    
C168  H104  1.110357 S    
O44   C94   1.285447 A    
C90   C136  1.419283 S    
Zn10  O46   1.993729 S    
O33   Zn9   1.994269 S    
C120  C144  1.507690 S    
C46   C50   1.418438 A    
N8    O64   1.301271 A    
C34   C158  1.521662 S    
Zn9   O45   1.993962 S    
C119  C143  1.507690 S    
O27   Zn8   2.025517 S    
O38   Zn10  1.995637 S    
C159  H75   1.109730 S    
C166  H98   1.110356 S    
C137  H10   1.110611 S    
C41   C161  1.517810 S    
C141  H21   1.110881 S    
C162  H85   1.109545 S    
C139  H16   1.110595 S    
C164  H92   1.110626 S    
C102  C110  1.432358 S    
C124  C127  1.394834 A    
N14   O75   1.301172 A    
C167  H101  1.110338 S    
O22   C84   1.264937 A    
C103  C107  1.408712 A    
O16   Zn4   2.022827 S    
C152  H54   1.109550 S    
O13   C5    1.263174 A    
O7    Zn4   1.993933 S    
C9    C21   1.531749 S    
C156  H68   1.109905 S    
O15   C7    1.263140 A    
C53   C137  1.520761 S    
C98   C101  1.409015 A    
C54   C58   1.410533 A    
N3    O53   1.301320 A    
C44   C48   1.414810 A    
O9    C5    1.264728 A    
N4    O56   1.301265 A    
C12   C40   1.536204 S    
C52   C168  1.519659 S    
O47   C96   1.284346 A    
C21   N9    1.458568 S    
C147  H40   1.109399 S    
C130  C136  1.196887 T    
O8    Zn4   1.993607 S    
O19   C82   1.274116 A    
C16   C20   1.545126 S    
C99   N7    1.438782 S    
C145  H34   1.109401 S    
C160  H80   1.109551 S    
C121  C129  1.433650 S    
C137  H9    1.105329 S    
C65   C77   1.196999 T    
C28   C152  1.521989 S    
O3    Zn2   1.994242 S    
C60   C64   1.404479 A    
C67   C79   1.197008 T    
O11   Zn2   2.023672 S    
C33   C37   1.537337 S    
C35   C39   1.537360 S    
C36   C40   1.537430 S    
C30   C154  1.522007 S    
C165  H93   1.106764 S    
N12   O72   1.299929 A    
C42   C46   1.414816 A    
C98   C105  1.406155 A    
C118  C121  1.412185 A    
C25   C29   1.543678 S    
C27   C31   1.543681 S    
O29   C87   1.274377 A    
C36   C160  1.521463 S    
O3    C3    1.272463 A    
C68   C80   1.197003 T    
Zn7   O31   1.993342 S    
C24   C28   1.533688 S    
C97   N5    1.438784 S    
C49   C53   1.415367 A    
C132  C134  1.196666 T    
C157  H69   1.109729 S    
C141  H23   1.110399 S    
O18   Zn6   1.993087 S    
C14   C34   1.547168 S    
Zn12  O48   1.993729 S    
Zn8   O32   1.993019 S    
C105  C108  1.408709 A    
O20   Zn8   1.993087 S    
C50   C166  1.519655 S    
C19   C23   1.528495 S    
C97   C101  1.408931 A    
C20   C24   1.528467 S    
C61   N13   1.438602 S    
C161  H81   1.107339 S    
O26   Zn5   2.025520 S    
C104  N1    1.439063 S    
C138  H14   1.110626 S    
C142  H24   1.110884 S    
C150  H48   1.109467 S    
C12   C16   1.548173 S    
C64   N16   1.438606 S    
C145  H33   1.109641 S    
O24   Zn8   2.023232 S    
H5    C124  1.084484 S    
C155  H64   1.109540 S    
H7    C126  1.084480 S    
N6    O59   1.301282 A    
C120  C122  1.412201 A    
C144  H30   1.110885 S    
O28   C86   1.263898 A    
C158  H73   1.109784 S    
C96   C116  1.418912 S    
C118  C142  1.507690 S    
O5    Zn3   1.993933 S    
Zn5   O29   1.993342 S    
C104  C107  1.408666 A    
C33   C157  1.521437 S    
C153  H58   1.109541 S    
C49   C165  1.519662 S    
C15   C19   1.545147 S    
N5    O57   1.301281 A    
C125  C128  1.394826 A    
C112  C114  1.196255 T    
N9    O65   1.300231 A    
C151  H52   1.109768 S    
C158  H72   1.109735 S    
C45   C65   1.434484 S    
C138  H12   1.105327 S    
C160  H79   1.109802 S    
C127  C131  1.425191 S    
C154  H61   1.109546 S    
C103  N2    1.439160 S    
C9    C37   1.536272 S    
C10   C14   1.548367 S    
O45   C95   1.284342 A    
O13   Zn3   2.022602 S    
C11   C39   1.536254 S    
N10   O67   1.300035 A    
O19   Zn7   1.992763 S    
C165  H95   1.110358 S    
C56   C140  1.520766 S    
C32   C156  1.522196 S    
C140  H18   1.105326 S    
O26   C84   1.263918 A    
C29   C153  1.522222 S    
O5    C1    1.272596 A    
N1    O49   1.301319 A    
N16   O80   1.300831 A    
C51   C167  1.519664 S    
O8    C4    1.272576 A    
C157  H71   1.109546 S    
C149  H45   1.109550 S    
N7    O62   1.301265 A    
C10   C146  1.521700 S    
O40   Zn12  1.995637 S    
O15   Zn4   2.022602 S    
C146  H37   1.109467 S    
C17   C29   1.535901 S    
C119  C124  1.398451 A    
C23   N11   1.458559 S    
O43   Zn12  1.995728 S    
C19   C31   1.535894 S    
N3    O54   1.301270 A    
C161  H83   1.110630 S    
O25   C83   1.263868 A    
N15   O78   1.300829 A    
O4    C4    1.272999 A    
O30   C87   1.274265 A    
C69   C73   1.195891 T    
O17   C81   1.274116 A    
C77   C91   1.418337 S    
C142  H26   1.110399 S    
C17   C21   1.528495 S    
C25   C149  1.521996 S    
O14   C6    1.262988 A    
C10   C22   1.534457 S    
C52   C56   1.415369 A    
C42   C62   1.404969 A    
C145  H35   1.109875 S    
C117  C121  1.412183 A    
C35   C159  1.521439 S    
C88   C134  1.419055 S    
C144  H32   1.110400 S    
O10   C6    1.265462 A    
C99   C104  1.405955 A    
C18   C84   1.433625 S    
C51   C55   1.415361 A    
C44   C64   1.404965 A    
C72   C76   1.195880 T    
C20   C86   1.433404 S    
C148  H43   1.109406 S    
O20   C82   1.273333 A    
C123  C127  1.394829 A    
C168  H103  1.110338 S    
O23   C85   1.264784 A    
C8    C40   1.435070 S    
N11   O69   1.300221 A    
C106  N3    1.439058 S    
C57   C61   1.404479 A    
C108  C112  1.431267 S    
C166  H97   1.110341 S    
O18   C81   1.273339 A    
C34   C38   1.537826 S    
C59   C63   1.404510 A    
C110  C116  1.196986 T    
N7    O61   1.301288 A    
C117  C126  1.398460 A    
C56   C60   1.410539 A    
C100  N8    1.438771 S    
N2    O51   1.301349 A    
O34   C89   1.286020 A    
C162  H84   1.107339 S    
C139  H15   1.105327 S    
C140  H20   1.110621 S    
C164  H91   1.109539 S    
C26   C30   1.542840 S    
N14   O76   1.300831 A    
C150  H50   1.109715 S    
C167  H100  1.110357 S    
C48   C68   1.434488 S    
C154  H62   1.109917 S    
C70   C74   1.195867 T    
C149  H47   1.109680 S    
C105  N4    1.439160 S    
C15   C35   1.547296 S    
C18   C22   1.526719 S    
C156  H67   1.109529 S    
C63   N15   1.438663 S    
C119  C122  1.412172 A    
C12   C148  1.521180 S    
C24   N12   1.458536 S    
C22   N10   1.458543 S    
C45   C49   1.418425 A    
O28   Zn7   2.025520 S    
C19   C85   1.433391 S    
C5    C37   1.435112 S    
C128  C132  1.425187 S    
Zn6   O30   1.993019 S    
O31   C88   1.274326 A    
C98   N6    1.438772 S    
C7    C39   1.435111 S    
C163  H88   1.110626 S    
C11   C23   1.531775 S    
C147  H39   1.109645 S    
O48   C96   1.284441 A    
C12   C24   1.531814 S    
N13   O74   1.300830 A    
C152  H55   1.109836 S    
O12   Zn2   2.023442 S    
C25   C37   1.536954 S    
O21   Zn5   2.023233 S    
C99   C102  1.408930 A    
O1    C1    1.272990 A    
C28   C40   1.536928 S    
C29   C33   1.539037 S    
C23   C27   1.533765 S    
C89   C135  1.419283 S    
C58   C62   1.404482 A    
C13   H1    1.110389 S    
C32   C36   1.538977 S    
O32   C88   1.274315 A    
C143  H29   1.110402 S    
O36   Zn12  1.994500 S    
C20   C32   1.535913 S    
C21   C25   1.533788 S    
O34   Zn10  1.994500 S    
N8    O63   1.301285 A    
C27   C39   1.536946 S    
C17   C83   1.433387 S    
C42   C162  1.517807 S    
O41   Zn10  1.995728 S    
C141  H22   1.110411 S    
C11   C15   1.548196 S    
H6    C123  1.084492 S    
C27   C151  1.521982 S    
C162  H86   1.110633 S    
C122  C130  1.433651 S    
C139  H17   1.110636 S    
C1    C73   1.417047 S    
O25   Zn6   2.025517 S    
C100  C103  1.406148 A    
C95   C115  1.418916 S    
O6    C2    1.272589 A    
O4    Zn2   1.994559 S    
C163  H89   1.109539 S    
C13   C17   1.545143 S    
O40   C94   1.285492 A    
C26   C150  1.521897 S    
C165  H94   1.110338 S    
C18   C30   1.534352 S    
C55   C59   1.410543 A    
C155  H63   1.109584 S    
C143  H27   1.110885 S    
O44   Zn11  1.995732 S    
C106  C108  1.408650 A    
C41   C45   1.414806 A    
C100  C102  1.409017 A    
C62   N14   1.438623 S    
O2    Zn1   1.994559 S    
C43   C47   1.414811 A    
O10   Zn1   2.023442 S    
Zn11  O47   1.993962 S    
N4    O55   1.301353 A    
C87   C133  1.419042 S    
C4    C76   1.417028 S    
C79   C93   1.418358 S    
C81   C113  1.417497 S    
C47   C67   1.434512 S    
C150  H49   1.109777 S    
C153  H57   1.109582 S    
C50   C54   1.415376 A    
C147  H41   1.109883 S    
C131  C133  1.196675 T    
O43   C93   1.285451 A    
O35   C90   1.285987 A    
N15   O77   1.301192 A    
N11   O70   1.299932 A    
C151  H51   1.109550 S    
C15   H3    1.110390 S    
O42   C92   1.285457 A    
O39   Zn11  1.995634 S    
O38   C92   1.285491 A    
O39   C93   1.285499 A    
C154  H60   1.109561 S    
O41   C91   1.285444 A    
O37   C91   1.285492 A    
C3    C75   1.417038 S    
N10   O68   1.300299 A    
C31   C155  1.522229 S    
N12   O71   1.300219 A    
O23   Zn7   2.023233 S    
C44   C164  1.517811 S    
C101  C109  1.432361 S    
N6    O60   1.301268 A    
C43   C163  1.517812 S    
C60   C72   1.433653 S    
O37   Zn9   1.995634 S    
C2    C74   1.417007 S    
O27   C85   1.263869 A    
C78   C92   1.418363 S    
C66   C78   1.197010 T    
O16   C8    1.263049 A    
C157  H70   1.109807 S    
C11   C147  1.521203 S    
C9    C145  1.521201 S    
C53   C57   1.410546 A    
C146  H36   1.109574 S    
O11   C7    1.264756 A    
O12   C8    1.264814 A    
O1    Zn1   1.994242 S    
O9    Zn1   2.023672 S    
C46   C66   1.434504 S    
C142  H25   1.110413 S    
C16   H4    1.110389 S    
O36   C90   1.286035 A    
C143  H28   1.110409 S    
C155  H65   1.109971 S    
C151  H53   1.109680 S    
C107  C111  1.431268 S    
C144  H31   1.110409 S    
C158  H74   1.109585 S    
C109  C115  1.196989 T    
C138  H13   1.110607 S    
C6    C38   1.436597 S    
C57   C69   1.433665 S    
O7    C3    1.273117 A    
O6    Zn3   1.993607 S    
C153  H59   1.109968 S    
C59   C71   1.433667 S    
C148  H42   1.109640 S    
C48   C52   1.418431 A    
N5    O58   1.301262 A    
C54   C138  1.520779 S    
C168  H102  1.106765 S    
C97   C106  1.405950 A    
O21   C83   1.264783 A    
N9    O66   1.299927 A    
C26   C38   1.538561 S    
C159  H77   1.109548 S    
O2    C2    1.272973 A    
C117  C141  1.507690 S    
C166  H96   1.106762 S    
C30   C34   1.538962 S    
C137  H11   1.110619 S    
C13   C33   1.547295 S    
C14   H2    1.110374 S    
O46   C95   1.284445 A    
O14   Zn3   2.022827 S    
C16   C36   1.547344 S    
N2    O52   1.301269 A    
C41   C61   1.404965 A    
C140  H19   1.110608 S    
C164  H90   1.107340 S    
C22   C26   1.533773 S    
C43   C63   1.405016 A    
O35   Zn11  1.994269 S    
C10   C38   1.537920 S    
N1    O50   1.301273 A    
C167  H99   1.106764 S    
C47   C51   1.418420 A    
N16   O79   1.301174 A    
C149  H46   1.109772 S    
C129  C135  1.196884 T    
C156  H66   1.109577 S    
C146  H38   1.109985 S    
O24   C86   1.264758 A    
C55   C139  1.520768 S    
C161  H82   1.109541 S    
C28   C32   1.543702 S    
