data_mof_unit_54561.cif
_audit_creation_date              2012-12-10T16:48:10-0500
_audit_creation_method            fapswitch 2.2
_symmetry_space_group_name_H-M    P1
_symmetry_Int_Tables_number       1
_space_group_crystal_system       triclinic
_cell_length_a                    15.850604
_cell_length_b                    8.558652
_cell_length_c                    7.48925
_cell_angle_alpha                 103.041244
_cell_angle_beta                  94.843275
_cell_angle_gamma                 92.458945
_cell_volume                      984.240717636

loop_
_atom_site_label
_atom_site_type_symbol
_atom_type_description
_atom_site_fract_x
_atom_site_fract_y
_atom_site_fract_z
_atom_type_partial_charge
C1    C     C_R   0.507635 0.199848 0.453527 0.849642
C2    C     C_R   0.511212 0.802435 0.547162 0.771487
C3    C     C_R   0.340103 0.499583 0.501302 0.823689
C4    C     C_R   0.659884 0.501530 0.498811 0.766178
C5    C     C_2   0.539177 0.038215 0.430473 -0.059626
C6    C     C_2   0.545715 0.970155 0.576596 -0.041416
C7    C     C_3   0.972900 0.397285 0.603680 -0.402777
C8    C     C_3   0.026613 0.600173 0.394984 -0.395195
C9    C     C_3   0.021899 0.351613 0.430808 0.363173
C10   C     C_3   0.977642 0.645826 0.567852 0.360767
C11   C     C_1   0.250687 0.499809 0.503926 -0.133099
C12   C     C_1   0.749135 0.500084 0.495820 -0.155992
C13   C     C_3   0.034633 0.548442 0.670873 0.365139
C14   C     C_3   0.964876 0.449016 0.327800 0.360611
C15   C     C_3   0.083629 0.500453 0.500503 0.010699
C16   C     C_3   0.915940 0.497027 0.498189 0.012822
C17   C     C_1   0.175208 0.500002 0.503492 0.114701
C18   C     C_1   0.824492 0.498543 0.495705 0.104512
Cu1   Cu    Cu3+1 0.509330 0.517380 0.684380 1.026121
Cu2   Cu    Cu3+1 0.490670 0.482620 0.315620 1.030007
H1    H     H_    0.951229 0.314900 0.688133 0.193755
H2    H     H_    0.048171 0.682577 0.310456 0.196936
N1    N     N_2   0.476600 0.456420 0.038510 0.139541
N2    N     N_2   0.523400 0.543580 0.961490 0.132121
O1    O     O_R   0.506070 0.286130 0.619780 -0.546945
O2    O     O_R   0.493930 0.713870 0.380220 -0.557902
O3    O     O_R   0.490300 0.256770 0.308360 -0.597709
O4    O     O_R   0.509700 0.743230 0.691640 -0.596519
O5    O     O_R   0.386960 0.514660 0.655680 -0.514101
O6    O     O_R   0.613040 0.485340 0.344320 -0.532296
O7    O     O_R   0.371190 0.485310 0.344260 -0.587853
O8    O     O_R   0.628810 0.514690 0.655740 -0.611238
O9    O     O_3   0.046812 0.197928 0.354960 -0.697154
H3    H     H_    0.993703 0.127847 0.326532 0.343277
O10   O     O_3   0.952622 0.799451 0.643655 -0.705027
H4    H     H_    0.005668 0.869705 0.671865 0.346063
O11   O     O_3   0.926334 0.393226 0.148331 -0.712741
H5    H     H_    0.973711 0.373081 0.069486 0.339978
O12   O     O_3   0.073025 0.604225 0.850456 -0.701285
H6    H     H_    0.025566 0.624057 0.929124 0.339183
C19   C     C_3   0.586324 0.971289 0.263997 -0.379508
C20   C     C_3   0.659626 0.084530 0.240446 -0.837366
H7    H     H_    0.635556 0.189570 0.193828 0.278607
H8    H     H_    0.701208 0.125525 0.371006 0.248972
H9    H     H_    0.698649 0.020022 0.134446 0.247700
H10   H     H_    0.615554 0.860045 0.281764 0.256653
H11   H     H_    0.541287 0.942616 0.137408 0.231106
C21   C     C_3   0.628348 0.001617 0.704903 -0.430649
C22   C     C_3   0.656925 0.177385 0.786222 -0.690288
H12   H     H_    0.670626 0.238292 0.675679 0.244746
H13   H     H_    0.608384 0.238770 0.870097 0.279385
H14   H     H_    0.716521 0.184568 0.877806 0.237324
H15   H     H_    0.622188 0.945780 0.823735 0.218448
H16   H     H_    0.680072 0.942522 0.628813 0.208013
O13   O     O_3   0.411338 0.371252 0.929705 -0.593053
H17   H     H_    0.380900 0.316954 0.011141 0.340587
O14   O     O_3   0.594934 0.609597 0.062228 -0.635523
H18   H     H_    0.625775 0.662652 0.980378 0.333314

loop_
_geom_bond_atom_site_label_1
_geom_bond_atom_site_label_2
_ccdc_geom_bond_type
C21   H16   S    
C9    O9    S    
C9    C14   S    
C20   H9    S    
N1    O13   S    
C10   O10   S    
Cu2   O3    S    
C4    C12   S    
C2    O4    A    
C19   C20   S    
C8    H2    S    
O10   H4    S    
Cu2   N1    S    
O13   H17   S    
C22   H14   S    
C1    O3    A    
Cu1   Cu2   S    
Cu1   N2    S    
C19   H11   S    
C4    O6    A    
C2    O2    A    
Cu2   O6    S    
C14   O11   S    
C1    O1    A    
Cu1   O4    S    
O14   H18   S    
C4    O8    A    
C19   H10   S    
C20   H8    S    
C15   C17   S    
C1    C5    S    
C3    O7    A    
C8    C10   S    
C21   C22   S    
O11   H5    S    
O9    H3    S    
C8    C15   S    
C13   C15   S    
C9    C15   S    
C21   H15   S    
Cu1   O1    S    
C14   C16   S    
C13   O12   S    
C3    C11   S    
C20   H7    S    
Cu1   O8    S    
N1    N2    D    
Cu1   O5    S    
C7    C9    S    
C7    C13   S    
C16   C18   S    
C22   H12   S    
C5    C6    D    
C12   C18   T    
O12   H6    S    
C3    O5    A    
C5    C19   S    
C7    C16   S    
C10   C16   S    
C8    C14   S    
C22   H13   S    
C7    H1    S    
C10   C13   S    
C11   C17   T    
C2    C6    S    
N2    O14   S    
Cu2   O2    S    
Cu2   O7    S    
C6    C21   S    
