data_mof_unit_8533.cif
_audit_creation_date              2012-12-11T15:46:50-0500
_audit_creation_method            fapswitch 2.2
_symmetry_space_group_name_H-M    P1
_symmetry_Int_Tables_number       1
_space_group_crystal_system       triclinic
_cell_length_a                    11.570734
_cell_length_b                    11.531769
_cell_length_c                    19.572845
_cell_angle_alpha                 90.489592
_cell_angle_beta                  89.965866
_cell_angle_gamma                 59.879524
_cell_volume                      2258.86429571

loop_
_atom_site_label
_atom_site_type_symbol
_atom_type_description
_atom_site_fract_x
_atom_site_fract_y
_atom_site_fract_z
_atom_type_partial_charge
C1    C     C_R   0.640227 0.117407 0.599317 0.545890
C2    C     C_1   0.640851 0.704232 0.668059 0.004896
C3    C     C_1   0.126692 0.198632 0.859267 0.006581
C4    C     C_1   0.171599 0.170333 0.727735 -0.030031
C5    C     C_1   0.150175 0.182203 0.798935 -0.029532
C6    C     C_1   0.195409 0.161023 0.667432 0.004224
C7    C     C_1   0.679085 0.191050 0.860735 0.007206
C8    C     C_1   0.658354 0.167286 0.729063 -0.029960
C9    C     C_1   0.665949 0.180759 0.800343 -0.029290
C10   C     C_1   0.652535 0.149867 0.668699 0.004169
C11   C     C_R   0.674653 0.640942 0.198348 0.018282
C12   C     C_R   0.612186 0.746367 0.598712 0.544293
C13   C     C_R   0.572952 0.637208 0.233956 0.028424
C14   C     C_R   0.565273 0.645849 0.303253 0.019225
C15   C     C_R   0.776005 0.641798 0.306634 -0.158277
C16   C     C_R   0.783090 0.632014 0.235307 -0.156886
C17   C     C_3   0.426266 0.717183 0.223420 -0.279809
C18   C     C_3   0.415023 0.728294 0.300231 -0.266283
C19   C     C_R   0.659335 0.663170 0.340050 0.018636
C20   C     C_R   0.119200 0.208687 0.196956 0.024698
C21   C     C_R   0.125980 0.306927 0.235134 0.090105
C22   C     C_R   0.154129 0.289520 0.303287 -0.035035
C23   C     C_R   0.241071 0.145341 0.598235 0.546713
C24   C     C_R   0.146641 0.084270 0.301627 -0.172199
C25   C     C_R   0.121004 0.100594 0.231353 -0.166125
C26   C     C_3   0.207015 0.372764 0.222815 0.393824
C27   C     C_3   0.240544 0.352016 0.298559 -0.204509
C28   C     C_R   0.174045 0.174025 0.336925 0.010180
C29   C     C_R   0.670555 0.188843 0.193826 0.060916
C30   C     C_R   0.729403 0.058686 0.219263 0.045123
C31   C     C_R   0.725804 0.037878 0.287855 0.041388
C32   C     C_R   0.588057 0.275281 0.308279 -0.171079
C33   C     C_R   0.593273 0.297577 0.238442 -0.129470
C34   C     C_R   0.645497 0.112961 0.402969 0.544349
C35   C     C_3   0.868127 0.941072 0.212131 -0.275192
C36   C     C_3   0.864647 0.921004 0.288202 -0.272916
C37   C     C_R   0.662658 0.144644 0.333892 0.015437
C38   C     C_R   0.081792 0.231057 0.928572 0.554481
C39   C     C_R   0.684123 0.604069 0.929435 0.545779
C40   C     C_R   0.708677 0.206627 0.930068 0.556437
C41   C     C_R   0.078625 0.237894 0.126486 0.579054
C42   C     C_R   0.684886 0.607846 0.126861 0.544072
C43   C     C_R   0.709006 0.212221 0.127350 0.570193
C44   C     C_R   0.618445 0.735206 0.403982 0.547349
C45   C     C_R   0.243033 0.141532 0.401835 0.550215
C46   C     C_1   0.670647 0.646113 0.860068 0.006213
C47   C     C_1   0.654517 0.683818 0.728444 -0.030364
C48   C     C_1   0.663503 0.666490 0.799669 -0.029807
Cr1   Cr    Cr6+3 0.404720 0.198220 0.499960 1.023917
Cr2   Cr    Cr6+3 0.698290 0.897110 0.500380 1.027723
Cr3   Cr    Cr6+3 0.396970 0.904720 0.499610 1.022646
Cr4   Cr    Cr6+3 0.926290 0.152010 0.028150 1.026574
Cr5   Cr    Cr6+3 0.921440 0.451830 0.027490 1.069504
Cr6   Cr    Cr6+3 0.626370 0.446880 0.028730 1.044679
H1    H     H_    0.855211 0.644395 0.334705 0.131674
H2    H     H_    0.347393 0.279020 0.308317 0.156047
H3    H     H_    0.198496 0.446389 0.329133 0.127008
H4    H     H_    0.529083 0.359575 0.342181 0.121506
H5    H     H_    0.543501 0.399625 0.220214 0.143070
H6    H     H_    0.944244 0.968132 0.197948 0.147081
H7    H     H_    0.870496 0.858725 0.181060 0.150901
H8    H     H_    0.867982 0.826191 0.300959 0.150896
H9    H     H_    0.934971 0.941459 0.317516 0.134662
H10   H     H_    0.870217 0.621580 0.209302 0.189950
H11   H     H_    0.386436 0.656161 0.200654 0.126986
H12   H     H_    0.394624 0.814421 0.197947 0.152513
H13   H     H_    0.375290 0.832992 0.318168 0.174439
H14   H     H_    0.365921 0.675451 0.322524 0.123066
H15   H     H_    0.153718 0.997809 0.326833 0.117086
H16   H     H_    0.107214 0.026878 0.203788 0.125173
O1    O     O_R   0.267750 0.231960 0.575440 -0.504933
O2    O     O_R   0.685950 0.784660 0.430010 -0.505095
O3    O     O_R   0.502510 0.767000 0.423980 -0.524622
O4    O     O_R   0.288320 0.026340 0.429250 -0.508929
O5    O     O_3   0.499990 0.000020 0.499980 -0.252685
O6    O     O_R   0.821590 0.119350 0.952850 -0.503863
O7    O     O_R   0.037230 0.162540 0.957390 -0.495494
O8    O     O_R   0.056530 0.344750 0.951370 -0.495290
O9    O     O_R   0.798000 0.560370 0.957490 -0.495244
O10   O     O_R   0.596230 0.579400 0.952760 -0.503837
O11   O     O_R   0.639160 0.321170 0.958690 -0.486324
O12   O     O_R   0.527290 0.186640 0.570530 -0.494831
O13   O     O_R   0.821370 0.124220 0.104400 -0.530871
O14   O     O_R   0.037020 0.167050 0.097880 -0.521739
O15   O     O_R   0.056310 0.349620 0.102920 -0.452581
O16   O     O_R   0.797790 0.564880 0.097980 -0.503082
O17   O     O_R   0.596000 0.584270 0.104310 -0.519841
O18   O     O_R   0.638950 0.325690 0.099180 -0.488973
O19   O     O_3   0.824700 0.350240 0.028120 -0.272511
O20   O     O_R   0.728110 0.003450 0.576380 -0.505043
O21   O     O_R   0.682980 0.789190 0.570500 -0.495002
O22   O     O_R   0.499300 0.771880 0.575540 -0.505158
O23   O     O_R   0.285350 0.030870 0.569740 -0.493360
O24   O     O_R   0.270960 0.227070 0.423890 -0.522648
O25   O     O_R   0.530270 0.182120 0.430040 -0.509161
O26   O     O_R   0.731320 0.998570 0.424830 -0.514951
Br1   Br    Br    0.355634 0.267086 0.159612 -0.557309
O27   O     O_3   0.122905 0.508547 0.204990 -0.562014
C49   C     C_3   0.196492 0.575549 0.201269 -0.110481
H17   H     H_    0.254787 0.549448 0.152879 0.173108
H18   H     H_    0.263497 0.554721 0.245844 0.096465
H19   H     H_    0.125457 0.685033 0.201006 0.117613

loop_
_geom_bond_atom_site_label_1
_geom_bond_atom_site_label_2
_ccdc_geom_bond_type
C21   C26   S    
C1    O20   A    
C34   C37   S    
C43   O13   A    
C14   C18   S    
C12   O21   A    
C35   C36   S    
Cr3   O4    S    
C32   H4    S    
C2    C12   S    
C20   C41   S    
C15   C19   A    
C17   H12   S    
C30   C35   S    
C43   O18   A    
Cr5   O9    S    
Cr3   O5    S    
Cr6   O17   S    
C20   C25   A    
C18   H14   S    
C15   C16   A    
C29   C33   A    
C11   C42   S    
Cr4   O14   S    
Cr2   O2    S    
Cr3   O3    S    
Cr2   O20   S    
C47   C48   S    
C3    C38   S    
C8    C9    S    
C7    C40   S    
Cr1   O5    S    
Cr5   O16   S    
C42   O16   A    
Cr1   O24   S    
C36   H9    S    
C33   H5    S    
C22   C28   A    
C21   C22   A    
C29   C43   S    
Cr4   O19   S    
C36   H8    S    
C45   O24   A    
C14   C19   A    
C24   H15   S    
Cr6   O10   S    
C46   C48   T    
C28   C45   S    
C23   O1    A    
C24   C25   A    
Cr6   O19   S    
C4    C6    T    
C27   H3    S    
C27   H2    S    
C38   O8    A    
Cr4   O6    S    
C18   H13   S    
C41   O14   A    
Cr1   O25   S    
C23   O23   A    
C31   C37   A    
C35   H6    S    
C15   H1    S    
Cr1   O12   S    
Cr4   O13   S    
C29   C30   A    
Cr3   O22   S    
C11   C16   A    
C49   H17   S    
C17   C18   S    
C26   C27   S    
C35   H7    S    
C32   C37   A    
C34   O25   A    
Cr3   O23   S    
C39   C46   S    
C49   H18   S    
C26   O27   S    
C22   C27   S    
Cr5   O19   S    
Cr4   O7    S    
C19   C44   S    
C7    C9    T    
C40   O11   A    
C12   O22   A    
C1    C10   S    
C24   C28   A    
C34   O26   A    
C4    C5    S    
C3    C5    T    
C42   O17   A    
C38   O7    A    
C2    C47   T    
C41   O15   A    
C17   H11   S    
C13   C17   S    
C32   C33   A    
Cr5   O8    S    
C1    O12   A    
Cr2   O5    S    
C39   O10   A    
Cr6   O18   S    
C11   C13   A    
Cr2   O26   S    
C30   C31   A    
C6    C23   S    
C44   O2    A    
C44   O3    A    
C26   Br1   S    
C40   O6    A    
Cr2   O21   S    
C49   H19   S    
C20   C21   A    
C8    C10   T    
O27   C49   S    
Cr1   O1    S    
C31   C36   S    
C45   O4    A    
Cr5   O15   S    
C25   H16   S    
C16   H10   S    
C13   C14   A    
Cr6   O11   S    
C39   O9    A    
