data_mof_unit_63291.cif
_audit_creation_date              2012-12-10T19:29:56-0500
_audit_creation_method            fapswitch 2.2
_symmetry_space_group_name_H-M    P1
_symmetry_Int_Tables_number       1
_space_group_crystal_system       triclinic
_cell_length_a                    23.554397
_cell_length_b                    30.468528
_cell_length_c                    30.747228
_cell_angle_alpha                 89.993725
_cell_angle_beta                  90.302757
_cell_angle_gamma                 89.995687
_cell_volume                      22065.9873535

loop_
_atom_site_label
_atom_site_type_symbol
_atom_type_description
_atom_site_fract_x
_atom_site_fract_y
_atom_site_fract_z
_atom_type_partial_charge
C1    C     C_R   0.500537 0.689773 0.309855 0.866139
C2    C     C_R   0.499428 0.689766 0.690137 0.866742
C3    C     C_R   0.000554 0.189803 0.309800 0.865660
C4    C     C_R   0.000614 0.189746 0.690133 0.866024
C5    C     C_R   0.999361 0.689813 0.809793 0.863829
C6    C     C_R   0.999441 0.689741 0.190126 0.865072
C7    C     C_R   0.500578 0.189768 0.809859 0.865150
C8    C     C_R   0.499424 0.189769 0.190140 0.866466
C9    C     C_R   0.498609 0.591461 0.405195 -0.102385
C10   C     C_R   0.501372 0.591506 0.594727 -0.099873
C11   C     C_R   0.998803 0.090977 0.404470 -0.108042
C12   C     C_R   0.999144 0.091844 0.594309 -0.094699
C13   C     C_R   0.000668 0.591172 0.904645 -0.109166
C14   C     C_R   0.001405 0.591674 0.094472 -0.095239
C15   C     C_R   0.498620 0.091476 0.905235 -0.099029
C16   C     C_R   0.501364 0.091483 0.094766 -0.100793
C17   C     C_R   0.456104 0.623240 0.404122 0.151268
C18   C     C_R   0.543245 0.623779 0.595297 0.151473
C19   C     C_R   0.952114 0.118645 0.399160 0.158534
C20   C     C_R   0.959575 0.125764 0.592844 0.151053
C21   C     C_R   0.047712 0.618393 0.899294 0.160922
C22   C     C_R   0.040807 0.625702 0.093239 0.152065
C23   C     C_R   0.456564 0.123612 0.904517 0.151295
C24   C     C_R   0.543550 0.123512 0.095589 0.149974
C25   C     C_3   0.438136 0.654509 0.438839 -0.497555
C26   C     C_3   0.559844 0.655268 0.560367 -0.503293
C27   C     C_3   0.923652 0.147680 0.431554 -0.493315
C28   C     C_3   0.948498 0.158124 0.557320 -0.523588
C29   C     C_3   0.077038 0.647223 0.931652 -0.491571
C30   C     C_3   0.051770 0.658004 0.057733 -0.523865
C31   C     C_3   0.439550 0.155032 0.939385 -0.501332
C32   C     C_3   0.560845 0.154895 0.060765 -0.500680
C33   C     C_3   0.439298 0.690231 0.404418 -0.463724
C34   C     C_3   0.558666 0.690962 0.594807 -0.463761
C35   C     C_3   0.924543 0.183493 0.397228 -0.478594
C36   C     C_3   0.949001 0.193519 0.592022 -0.450985
C37   C     C_3   0.076289 0.682959 0.897241 -0.479279
C38   C     C_3   0.051046 0.693483 0.092353 -0.448935
C39   C     C_3   0.440735 0.190741 0.904952 -0.463984
C40   C     C_3   0.559669 0.190601 0.095195 -0.462003
C41   C     C_R   0.461118 0.875701 0.156662 0.050296
C42   C     C_R   0.533200 0.879261 0.840214 0.048484
C43   C     C_R   0.961830 0.376195 0.157092 0.051998
C44   C     C_R   0.960294 0.375180 0.843504 0.050530
C45   C     C_R   0.038303 0.876138 0.657380 0.048369
C46   C     C_R   0.037886 0.876319 0.342751 0.047614
C47   C     C_R   0.461875 0.376224 0.657117 0.051649
C48   C     C_R   0.468888 0.380407 0.339010 0.055398
C49   C     C_R   0.501341 0.842706 0.157597 -0.059131
C50   C     C_R   0.497557 0.843207 0.842095 -0.063222
C51   C     C_R   0.001404 0.342721 0.157574 -0.059979
C52   C     C_R   0.001134 0.342655 0.842454 -0.057381
C53   C     C_R   0.998692 0.842693 0.657528 -0.063670
C54   C     C_R   0.998489 0.842728 0.342417 -0.063785
C55   C     C_R   0.501409 0.342720 0.657571 -0.059106
C56   C     C_R   0.502362 0.343170 0.342281 -0.062767
C57   C     C_R   0.542829 0.841536 0.124914 -0.201830
C58   C     C_R   0.459709 0.839616 0.877164 -0.186270
C59   C     C_R   0.042231 0.341085 0.124414 -0.198533
C60   C     C_R   0.043012 0.341794 0.875178 -0.197852
C61   C     C_R   0.958160 0.840900 0.623843 -0.194522
C62   C     C_R   0.957947 0.840919 0.375776 -0.198038
C63   C     C_R   0.542188 0.341052 0.624378 -0.197345
C64   C     C_R   0.537531 0.338165 0.379108 -0.186635
C65   C     C_R   0.543070 0.873999 0.092679 -0.199099
C66   C     C_R   0.459598 0.871930 0.909558 -0.201737
C67   C     C_R   0.042467 0.373543 0.092170 -0.199080
C68   C     C_R   0.043111 0.374172 0.907483 -0.198927
C69   C     C_R   0.958117 0.873261 0.591513 -0.199468
C70   C     C_R   0.957769 0.873354 0.408039 -0.202225
C71   C     C_R   0.542422 0.373507 0.592131 -0.200471
C72   C     C_R   0.537441 0.370376 0.411589 -0.205462
C73   C     C_R   0.500839 0.906744 0.092639 -0.073999
C74   C     C_R   0.498997 0.906613 0.907643 -0.067343
C75   C     C_R   0.000856 0.406745 0.092602 -0.070434
C76   C     C_R   0.000376 0.406537 0.907556 -0.072007
C77   C     C_R   0.999708 0.906474 0.592331 -0.069366
C78   C     C_R   0.999239 0.906652 0.407480 -0.069241
C79   C     C_R   0.500855 0.406741 0.592595 -0.069277
C80   C     C_R   0.500412 0.406445 0.407944 -0.061772
C81   C     C_R   0.460463 0.906163 0.125113 0.099001
C82   C     C_R   0.535501 0.908666 0.872698 0.099665
C83   C     C_R   0.961132 0.406643 0.125533 0.100729
C84   C     C_R   0.959525 0.405573 0.875115 0.101402
C85   C     C_R   0.039386 0.906362 0.625621 0.102379
C86   C     C_R   0.038836 0.906612 0.374442 0.102895
C87   C     C_R   0.461173 0.406669 0.625556 0.101146
C88   C     C_R   0.466271 0.409817 0.371475 0.092785
C89   C     C_R   0.390640 0.749930 0.249979 0.937333
C90   C     C_R   0.390634 0.750066 0.749966 0.891110
C91   C     C_R   0.609360 0.750049 0.250038 0.887819
C92   C     C_R   0.609360 0.749996 0.750105 0.904006
C93   C     C_R   0.890643 0.249902 0.249996 0.935896
C94   C     C_R   0.890641 0.250027 0.749924 0.935872
C95   C     C_R   0.109363 0.250056 0.250035 0.887611
C96   C     C_R   0.109366 0.249943 0.750055 0.889066
C97   C     C_R   0.890636 0.749943 0.749954 0.887526
C98   C     C_R   0.890638 0.750051 0.249961 0.888155
C99   C     C_R   0.109357 0.750050 0.750048 0.933867
C100  C     C_R   0.109363 0.749962 0.250062 0.935366
C101  C     C_R   0.390643 0.249907 0.749992 0.936528
C102  C     C_R   0.390640 0.250081 0.249990 0.905572
C103  C     C_R   0.609364 0.250060 0.750032 0.888175
C104  C     C_R   0.609365 0.249930 0.250040 0.895174
C105  C     C_3   0.409379 0.929163 0.142374 -0.554653
C106  C     C_3   0.584811 0.932962 0.854335 -0.548394
C107  C     C_3   0.910851 0.430247 0.143347 -0.560889
C108  C     C_3   0.907950 0.428173 0.857772 -0.556607
C109  C     C_3   0.089379 0.930101 0.644132 -0.549785
C110  C     C_3   0.088826 0.930367 0.356329 -0.547599
C111  C     C_3   0.410942 0.430311 0.643403 -0.559342
C112  C     C_3   0.420696 0.436566 0.350600 -0.556563
C113  C     C_3   0.409524 0.893654 0.178600 -0.147754
C114  C     C_3   0.582674 0.899014 0.816777 -0.130629
C115  C     C_3   0.911018 0.394761 0.179592 -0.143748
C116  C     C_3   0.908198 0.392700 0.821520 -0.146680
C117  C     C_3   0.088713 0.894946 0.680641 -0.137956
C118  C     C_3   0.088251 0.895172 0.319860 -0.142970
C119  C     C_3   0.411112 0.394827 0.679650 -0.145555
C120  C     C_3   0.423169 0.402642 0.313014 -0.137819
C121  C     C_R   0.499853 0.939583 0.940148 0.887197
C122  C     C_R   0.500148 0.939859 0.060179 0.889590
C123  C     C_R   0.999972 0.439806 0.939868 0.891233
C124  C     C_R   0.000152 0.439858 0.060165 0.890182
C125  C     C_R   0.999867 0.939835 0.439854 0.889906
C126  C     C_R   0.000043 0.939798 0.560106 0.889827
C127  C     C_R   0.499965 0.439601 0.440177 0.886875
C128  C     C_R   0.500151 0.439856 0.560162 0.889288
C129  C     C_R   0.499810 0.560265 0.439800 0.879584
C130  C     C_R   0.500182 0.560272 0.560180 0.882031
C131  C     C_R   0.999825 0.060162 0.439598 0.882560
C132  C     C_R   0.999999 0.060317 0.560096 0.884264
C133  C     C_R   0.999989 0.560204 0.939638 0.882430
C134  C     C_R   0.000183 0.560294 0.060121 0.883477
C135  C     C_R   0.499815 0.060262 0.939807 0.880574
C136  C     C_R   0.500182 0.060269 0.060189 0.882001
C137  C     C_R   0.500029 0.810010 0.190180 0.912239
C138  C     C_R   0.499826 0.810107 0.809803 0.872039
C139  C     C_R   0.000069 0.310016 0.190174 0.913120
C140  C     C_R   0.999973 0.310004 0.809823 0.911748
C141  C     C_R   0.999897 0.810016 0.690171 0.904474
C142  C     C_R   0.999842 0.810019 0.309824 0.903981
C143  C     C_R   0.500073 0.310016 0.690173 0.913567
C144  C     C_R   0.500263 0.310122 0.309831 0.877404
C145  C     C_1   0.330415 0.749852 0.249967 -0.157537
C146  C     C_1   0.330403 0.750279 0.749930 -0.172073
C147  C     C_1   0.669585 0.750208 0.250069 -0.177374
C148  C     C_1   0.669580 0.749901 0.750195 -0.142781
C149  C     C_1   0.830423 0.249754 0.249983 -0.161663
C150  C     C_1   0.830421 0.250216 0.749866 -0.158089
C151  C     C_1   0.169594 0.250232 0.250071 -0.170239
C152  C     C_1   0.169598 0.249808 0.750104 -0.169222
C153  C     C_1   0.830406 0.749821 0.749937 -0.172650
C154  C     C_1   0.830413 0.750211 0.249926 -0.177510
C155  C     C_1   0.169578 0.750285 0.750048 -0.130302
C156  C     C_1   0.169592 0.749916 0.250153 -0.127112
C157  C     C_1   0.330424 0.249763 0.749981 -0.160108
C158  C     C_1   0.330421 0.250232 0.249954 -0.157986
C159  C     C_1   0.669596 0.250255 0.750054 -0.168936
C160  C     C_1   0.669597 0.249791 0.250083 -0.171405
C161  C     C_1   0.279644 0.749890 0.250031 0.017569
C162  C     C_1   0.279628 0.750406 0.749940 0.013522
C163  C     C_1   0.720358 0.750280 0.250031 0.010717
C164  C     C_1   0.720350 0.749856 0.750158 0.029980
C165  C     C_1   0.779653 0.249722 0.250003 0.015899
C166  C     C_1   0.779651 0.250337 0.749917 0.019057
C167  C     C_1   0.220369 0.250318 0.250047 0.017984
C168  C     C_1   0.220373 0.249754 0.750071 0.024042
C169  C     C_1   0.779631 0.749814 0.750030 0.017677
C170  C     C_1   0.779640 0.750281 0.249961 0.010762
C171  C     C_1   0.220347 0.750414 0.749995 0.024179
C172  C     C_1   0.220364 0.749924 0.250126 0.033719
C173  C     C_1   0.279654 0.249736 0.750011 0.017521
C174  C     C_1   0.279649 0.250310 0.249987 0.010763
C175  C     C_1   0.720371 0.250352 0.750010 0.024749
C176  C     C_1   0.720372 0.249737 0.250052 0.022887
C177  C     C_R   0.456969 0.655544 0.372986 0.108404
C178  C     C_R   0.542367 0.656057 0.626452 0.109219
C179  C     C_R   0.952881 0.151076 0.368163 0.102313
C180  C     C_R   0.960155 0.157837 0.624228 0.110659
C181  C     C_R   0.047087 0.650743 0.868226 0.102848
C182  C     C_R   0.040060 0.657848 0.124556 0.111340
C183  C     C_R   0.457448 0.155902 0.873372 0.107455
C184  C     C_R   0.542672 0.155801 0.126732 0.108999
C185  C     C_R   0.499500 0.655951 0.341798 -0.082966
C186  C     C_R   0.500506 0.655939 0.658177 -0.087068
C187  C     C_R   0.999953 0.155975 0.341586 -0.075528
C188  C     C_R   0.999407 0.155899 0.658129 -0.089957
C189  C     C_R   0.999773 0.656030 0.841611 -0.074898
C190  C     C_R   0.000813 0.655870 0.158152 -0.091300
C191  C     C_R   0.499514 0.155937 0.841810 -0.084147
C192  C     C_R   0.500472 0.155944 0.158189 -0.086733
C193  C     C_R   0.537347 0.620562 0.338735 -0.200234
C194  C     C_R   0.463411 0.620106 0.661654 -0.194837
C195  C     C_R   0.043100 0.124312 0.342041 -0.200471
C196  C     C_R   0.033936 0.118679 0.663182 -0.195231
C197  C     C_R   0.956045 0.624857 0.842171 -0.199886
C198  C     C_R   0.966553 0.618525 0.163041 -0.193519
C199  C     C_R   0.536814 0.120219 0.838444 -0.198467
C200  C     C_R   0.463003 0.120330 0.161460 -0.197303
C201  C     C_R   0.537530 0.588512 0.370996 -0.208974
C202  C     C_R   0.463204 0.588076 0.629375 -0.199684
C203  C     C_R   0.042990 0.091992 0.374048 -0.198905
C204  C     C_R   0.034455 0.086800 0.630760 -0.200859
C205  C     C_R   0.956040 0.592602 0.874258 -0.198900
C206  C     C_R   0.966191 0.586582 0.130688 -0.201090
C207  C     C_R   0.537002 0.088173 0.870713 -0.207538
C208  C     C_R   0.462815 0.088287 0.129191 -0.200324
H1    H     H_    0.568426 0.619058 0.312918 0.160662
H2    H     H_    0.432887 0.618216 0.687830 0.162483
H3    H     H_    0.078008 0.126022 0.319288 0.156468
H4    H     H_    0.062390 0.115506 0.690809 0.164428
H5    H     H_    0.920857 0.626892 0.819413 0.155094
H6    H     H_    0.938138 0.615308 0.190457 0.164864
H7    H     H_    0.567496 0.118436 0.812368 0.162314
H8    H     H_    0.432201 0.118627 0.187458 0.162279
H9    H     H_    0.568626 0.562336 0.369904 0.167742
H10   H     H_    0.432682 0.561514 0.630821 0.163047
H11   H     H_    0.077897 0.068894 0.375851 0.168844
H12   H     H_    0.062956 0.059012 0.633583 0.160634
H13   H     H_    0.920796 0.569845 0.876100 0.168418
H14   H     H_    0.937789 0.558742 0.133334 0.160471
H15   H     H_    0.567678 0.061710 0.869365 0.163118
H16   H     H_    0.432016 0.061908 0.130466 0.163884
H17   H     H_    0.394718 0.647257 0.450870 0.216313
H18   H     H_    0.526429 0.659172 0.534989 0.192347
H19   H     H_    0.470936 0.658806 0.464620 0.191415
H20   H     H_    0.603144 0.648546 0.547804 0.214157
H21   H     H_    0.880140 0.136182 0.439499 0.211429
H22   H     H_    0.906120 0.153340 0.541961 0.211761
H23   H     H_    0.951188 0.154994 0.460060 0.195423
H24   H     H_    0.984579 0.160750 0.534291 0.196903
H25   H     H_    0.049990 0.654866 0.960133 0.194950
H26   H     H_    0.015726 0.660470 0.034358 0.195900
H27   H     H_    0.120465 0.635323 0.939651 0.212933
H28   H     H_    0.094197 0.653303 0.042770 0.213289
H29   H     H_    0.396210 0.148155 0.951784 0.214273
H30   H     H_    0.527741 0.159003 0.035183 0.191855
H31   H     H_    0.472780 0.159045 0.964885 0.192138
H32   H     H_    0.604209 0.147906 0.048473 0.215451
H33   H     H_    0.396554 0.703645 0.396620 0.208652
H34   H     H_    0.524464 0.715570 0.589439 0.220120
H35   H     H_    0.472877 0.715251 0.410198 0.219140
H36   H     H_    0.601283 0.704892 0.602082 0.205624
H37   H     H_    0.881537 0.192593 0.385211 0.204977
H38   H     H_    0.906829 0.209089 0.596876 0.204478
H39   H     H_    0.952482 0.211607 0.405943 0.221801
H40   H     H_    0.985149 0.216766 0.588881 0.220083
H41   H     H_    0.048902 0.711358 0.905863 0.221812
H42   H     H_    0.014774 0.716608 0.088852 0.218970
H43   H     H_    0.119289 0.691621 0.885242 0.205809
H44   H     H_    0.093129 0.709198 0.097530 0.207116
H45   H     H_    0.398080 0.204524 0.897516 0.205461
H46   H     H_    0.525779 0.215419 0.089614 0.219578
H47   H     H_    0.474753 0.215467 0.910450 0.220299
H48   H     H_    0.602351 0.204268 0.102737 0.207495
H49   H     H_    0.574942 0.816075 0.124613 0.153784
H50   H     H_    0.430506 0.812243 0.879362 0.157270
H51   H     H_    0.073849 0.315266 0.123747 0.153527
H52   H     H_    0.075559 0.316660 0.875439 0.152288
H53   H     H_    0.926557 0.815074 0.622870 0.153319
H54   H     H_    0.926471 0.815003 0.376564 0.152747
H55   H     H_    0.573773 0.315209 0.623686 0.153062
H56   H     H_    0.564953 0.309814 0.382563 0.157828
H57   H     H_    0.575338 0.873157 0.067715 0.165610
H58   H     H_    0.430113 0.869280 0.936357 0.161423
H59   H     H_    0.074222 0.372349 0.066835 0.159898
H60   H     H_    0.075762 0.373609 0.932428 0.160656
H61   H     H_    0.926433 0.872047 0.565868 0.158643
H62   H     H_    0.926161 0.872080 0.433479 0.158396
H63   H     H_    0.574139 0.372288 0.566768 0.158778
H64   H     H_    0.565030 0.366719 0.439666 0.153898
H65   H     H_    0.419593 0.962956 0.153619 0.218238
H66   H     H_    0.622951 0.930561 0.875670 0.235920
H67   H     H_    0.372952 0.927186 0.119288 0.216597
H68   H     H_    0.572992 0.967051 0.844978 0.194362
H69   H     H_    0.921940 0.463925 0.154447 0.216849
H70   H     H_    0.917587 0.462056 0.846567 0.220173
H71   H     H_    0.873954 0.428678 0.120673 0.217014
H72   H     H_    0.871797 0.425883 0.880788 0.216328
H73   H     H_    0.126625 0.928372 0.622110 0.216702
H74   H     H_    0.126054 0.928686 0.378675 0.216212
H75   H     H_    0.078111 0.963860 0.654803 0.217577
H76   H     H_    0.077535 0.964108 0.345517 0.220668
H77   H     H_    0.422083 0.463983 0.654492 0.217637
H78   H     H_    0.436065 0.470009 0.342142 0.200834
H79   H     H_    0.374016 0.428765 0.620754 0.217789
H80   H     H_    0.380808 0.436035 0.369771 0.237181
O1    O     O_R   0.500000 0.730040 0.321670 -0.627362
O2    O     O_R   0.500000 0.730040 0.678330 -0.626720
O3    O     O_R   0.000000 0.230040 0.321670 -0.625592
O4    O     O_R   0.000000 0.230040 0.678330 -0.627110
O5    O     O_R   1.000000 0.730040 0.821670 -0.626325
O6    O     O_R   1.000000 0.730040 0.178330 -0.627063
O7    O     O_R   0.500000 0.230040 0.821670 -0.626713
O8    O     O_R   0.500000 0.230040 0.178330 -0.626779
O9    O     O_R   0.500000 0.678330 0.269940 -0.619196
O10   O     O_R   0.500000 0.678330 0.730060 -0.617871
O11   O     O_R   0.000000 0.178330 0.269940 -0.619644
O12   O     O_R   1.000000 0.178330 0.730060 -0.621722
O13   O     O_R   1.000000 0.678330 0.769940 -0.617999
O14   O     O_R   1.000000 0.678330 0.230060 -0.620451
O15   O     O_R   0.500000 0.178330 0.769940 -0.621024
O16   O     O_R   0.500000 0.178330 0.230060 -0.618158
O17   O     O_R   0.417230 0.775850 0.275860 -0.600435
O18   O     O_R   0.417230 0.775850 0.724140 -0.604760
O19   O     O_R   0.582770 0.775850 0.275860 -0.611979
O20   O     O_R   0.582770 0.775850 0.724140 -0.598861
O21   O     O_R   0.917230 0.275850 0.275860 -0.600558
O22   O     O_R   0.917230 0.275850 0.724140 -0.601618
O23   O     O_R   0.082770 0.275850 0.275860 -0.606894
O24   O     O_R   0.082770 0.275850 0.724140 -0.604814
O25   O     O_R   0.917230 0.775850 0.775860 -0.607865
O26   O     O_R   0.917230 0.775850 0.224140 -0.612183
O27   O     O_R   0.082770 0.775850 0.775860 -0.605095
O28   O     O_R   0.082770 0.775850 0.224140 -0.600846
O29   O     O_R   0.417230 0.275850 0.775860 -0.600961
O30   O     O_R   0.417230 0.275850 0.224140 -0.598830
O31   O     O_R   0.582770 0.275850 0.775860 -0.604732
O32   O     O_R   0.582770 0.275850 0.224140 -0.603798
O33   O     O_R   0.417240 0.724130 0.224140 -0.606662
O34   O     O_R   0.417240 0.724130 0.775860 -0.620039
O35   O     O_R   0.582760 0.724130 0.224140 -0.620024
O36   O     O_R   0.582760 0.724130 0.775860 -0.616025
O37   O     O_R   0.917240 0.224130 0.224140 -0.608554
O38   O     O_R   0.917240 0.224130 0.775860 -0.607092
O39   O     O_R   0.082760 0.224130 0.224140 -0.621237
O40   O     O_R   0.082760 0.224130 0.775860 -0.622806
O41   O     O_R   0.917240 0.724130 0.724140 -0.621643
O42   O     O_R   0.917240 0.724130 0.275860 -0.620383
O43   O     O_R   0.082760 0.724130 0.724140 -0.605353
O44   O     O_R   0.082760 0.724130 0.275860 -0.606361
O45   O     O_R   0.417240 0.224130 0.724140 -0.607223
O46   O     O_R   0.417240 0.224130 0.275860 -0.614151
O47   O     O_R   0.582760 0.224130 0.724140 -0.622940
O48   O     O_R   0.582760 0.224130 0.275860 -0.618250
O49   O     O_R   0.500000 0.821650 0.230050 -0.616043
O50   O     O_R   0.500000 0.821650 0.769950 -0.580936
O51   O     O_R   0.000000 0.321650 0.230050 -0.614304
O52   O     O_R   1.000000 0.321650 0.769950 -0.613667
O53   O     O_R   0.000000 0.821650 0.730050 -0.613435
O54   O     O_R   0.000000 0.821650 0.269950 -0.615175
O55   O     O_R   0.500000 0.321650 0.730050 -0.613453
O56   O     O_R   0.500000 0.321650 0.269950 -0.578572
O57   O     O_R   0.500000 0.769940 0.178330 -0.606924
O58   O     O_R   0.500000 0.769940 0.821670 -0.621234
O59   O     O_R   0.000000 0.269940 0.178330 -0.608482
O60   O     O_R   1.000000 0.269940 0.821670 -0.607070
O61   O     O_R   0.000000 0.769940 0.678330 -0.610481
O62   O     O_R   0.000000 0.769940 0.321670 -0.609928
O63   O     O_R   0.500000 0.269940 0.678330 -0.608627
O64   O     O_R   0.500000 0.269940 0.321670 -0.623791
O65   O     O_R   0.453240 0.954180 0.954180 -0.621979
O66   O     O_R   0.453240 0.954180 0.045820 -0.622022
O67   O     O_R   0.546760 0.954180 0.954180 -0.618427
O68   O     O_R   0.546760 0.954180 0.045820 -0.622882
O69   O     O_R   0.953240 0.454180 0.954180 -0.618855
O70   O     O_R   0.953240 0.454180 0.045820 -0.619038
O71   O     O_R   0.046760 0.454180 0.954180 -0.625647
O72   O     O_R   0.046760 0.454180 0.045820 -0.624796
O73   O     O_R   0.953240 0.954180 0.454180 -0.626279
O74   O     O_R   0.953240 0.954180 0.545820 -0.624612
O75   O     O_R   0.046760 0.954180 0.454180 -0.619063
O76   O     O_R   0.046760 0.954180 0.545820 -0.619352
O77   O     O_R   0.453240 0.454180 0.454180 -0.612109
O78   O     O_R   0.453240 0.454180 0.545820 -0.618125
O79   O     O_R   0.546760 0.454180 0.454180 -0.627772
O80   O     O_R   0.546760 0.454180 0.545820 -0.625502
O81   O     O_R   0.453270 0.545790 0.454180 -0.617932
O82   O     O_R   0.453270 0.545790 0.545820 -0.624761
O83   O     O_R   0.546730 0.545790 0.454180 -0.623165
O84   O     O_R   0.546730 0.545790 0.545820 -0.615514
O85   O     O_R   0.953270 0.045790 0.454180 -0.618738
O86   O     O_R   0.953270 0.045790 0.545820 -0.617143
O87   O     O_R   0.046730 0.045790 0.454180 -0.623696
O88   O     O_R   0.046730 0.045790 0.545820 -0.621569
O89   O     O_R   0.953270 0.545790 0.954180 -0.624725
O90   O     O_R   0.953270 0.545790 0.045820 -0.622517
O91   O     O_R   0.046730 0.545790 0.954180 -0.617596
O92   O     O_R   0.046730 0.545790 0.045820 -0.616442
O93   O     O_R   0.453270 0.045790 0.954180 -0.615755
O94   O     O_R   0.453270 0.045790 0.045820 -0.625031
O95   O     O_R   0.546730 0.045790 0.954180 -0.624674
O96   O     O_R   0.546730 0.045790 0.045820 -0.615907
Zn1   Zn    Zn3+2 0.500000 0.784520 0.284530 1.002605
Zn2   Zn    Zn3+2 0.500000 0.784520 0.715470 1.029760
Zn3   Zn    Zn3+2 0.000000 0.284520 0.284530 1.010602
Zn4   Zn    Zn3+2 0.000000 0.284520 0.715470 1.009870
Zn5   Zn    Zn3+2 0.000000 0.784520 0.784530 1.014382
Zn6   Zn    Zn3+2 0.000000 0.784520 0.215470 1.011780
Zn7   Zn    Zn3+2 0.500000 0.284520 0.784530 1.011630
Zn8   Zn    Zn3+2 0.500000 0.284520 0.215470 1.023919
Zn9   Zn    Zn3+2 0.500000 0.715460 0.215460 0.997294
Zn10  Zn    Zn3+2 0.500000 0.715460 0.784540 0.987877
Zn11  Zn    Zn3+2 1.000000 0.215460 0.215460 0.994033
Zn12  Zn    Zn3+2 0.000000 0.215460 0.784540 0.993373
Zn13  Zn    Zn3+2 1.000000 0.715460 0.715460 0.999058
Zn14  Zn    Zn3+2 1.000000 0.715460 0.284540 0.997308
Zn15  Zn    Zn3+2 0.500000 0.215460 0.715460 0.993624
Zn16  Zn    Zn3+2 0.500000 0.215460 0.284540 0.988092
Zn17  Zn    Zn3+2 0.437600 0.999980 0.000000 0.974938
Zn18  Zn    Zn3+2 0.562400 0.999980 0.000000 0.975074
Zn19  Zn    Zn3+2 0.937600 0.499980 0.000000 0.973695
Zn20  Zn    Zn3+2 0.062400 0.499980 0.000000 0.975701
Zn21  Zn    Zn3+2 0.937600 0.999980 0.500000 0.971646
Zn22  Zn    Zn3+2 0.062400 0.999980 0.500000 0.975694
Zn23  Zn    Zn3+2 0.437600 0.499980 0.500000 0.980703
Zn24  Zn    Zn3+2 0.562400 0.499980 0.500000 0.971757
C209  C     C_2   0.422184 0.910841 0.223862 0.943498
O97   O     O_2   0.461544 0.936410 0.229783 -0.618562
O98   O     O_R   0.389357 0.897067 0.259103 -0.768106
H81   H     H_    0.402242 0.910584 0.287620 0.345406
C210  C     C_2   0.633233 0.868301 0.815416 0.900394
O99   O     O_2   0.658607 0.862106 0.781346 -0.600231
O100  O     O_R   0.650578 0.846509 0.853270 -0.801010
H82   H     H_    0.684402 0.826599 0.848235 0.346046
C211  C     C_2   0.358764 0.863319 0.176168 0.943294
O101  O     O_2   0.311435 0.877629 0.184126 -0.564844
O102  O     O_R   0.365688 0.819199 0.164812 -0.823642
H83   H     H_    0.328422 0.802566 0.164181 0.343761
C212  C     C_2   0.567731 0.920004 0.773530 0.953801
O103  O     O_2   0.521824 0.913019 0.756082 -0.608162
O104  O     O_R   0.606952 0.947965 0.753782 -0.770401
H84   H     H_    0.592532 0.960247 0.725138 0.345011
C213  C     C_2   0.924889 0.411827 0.224694 0.940510
O105  O     O_2   0.964776 0.437012 0.230132 -0.616277
O106  O     O_R   0.892591 0.398365 0.260337 -0.774016
H85   H     H_    0.906298 0.411750 0.288693 0.343431
C214  C     C_2   0.920117 0.410000 0.776278 0.941153
O107  O     O_2   0.958899 0.436041 0.770451 -0.613754
O108  O     O_R   0.887304 0.395769 0.740947 -0.774004
H86   H     H_    0.899690 0.409400 0.712453 0.344199
C215  C     C_2   0.859649 0.365011 0.177738 0.944669
O109  O     O_2   0.812761 0.379866 0.186217 -0.584308
O110  O     O_R   0.865501 0.320824 0.166284 -0.822124
H87   H     H_    0.827903 0.304636 0.166013 0.343606
C216  C     C_2   0.857931 0.361907 0.823897 0.942658
O111  O     O_2   0.810327 0.375741 0.815690 -0.582860
O112  O     O_R   0.865610 0.317927 0.835566 -0.821118
H88   H     H_    0.828596 0.300973 0.836219 0.344237
C217  C     C_2   0.140549 0.865511 0.680196 0.932691
O113  O     O_2   0.136118 0.826425 0.671716 -0.648189
O114  O     O_R   0.193765 0.883414 0.689875 -0.763828
H89   H     H_    0.225235 0.860734 0.688891 0.349208
C218  C     C_2   0.140185 0.865835 0.320729 0.934475
O115  O     O_2   0.135876 0.826733 0.329144 -0.648954
O116  O     O_R   0.193341 0.883840 0.311457 -0.746173
H90   H     H_    0.224883 0.861216 0.312638 0.358488
C219  C     C_2   0.073666 0.912877 0.725040 0.944635
O117  O     O_2   0.102415 0.903403 0.756942 -0.598351
O118  O     O_R   0.026265 0.940129 0.729625 -0.796225
H91   H     H_    0.020337 0.949903 0.760788 0.346950
C220  C     C_2   0.073146 0.913039 0.275320 0.948476
O119  O     O_2   0.101964 0.903638 0.243669 -0.584225
O120  O     O_R   0.025617 0.940152 0.270315 -0.798466
H92   H     H_    0.019661 0.949893 0.239094 0.346465
C221  C     C_2   0.425054 0.411887 0.724742 0.941607
O121  O     O_2   0.464979 0.437041 0.730152 -0.614680
O122  O     O_R   0.392779 0.398452 0.760408 -0.773836
H93   H     H_    0.406535 0.411829 0.788753 0.343869
C222  C     C_2   0.443868 0.422760 0.270976 0.966655
O123  O     O_2   0.412842 0.447731 0.250722 -0.585663
O124  O     O_R   0.498433 0.413706 0.255670 -0.784439
H94   H     H_    0.507019 0.429393 0.227381 0.343267
C223  C     C_2   0.359707 0.365112 0.677833 0.945739
O125  O     O_2   0.312847 0.379998 0.686345 -0.582478
O126  O     O_R   0.365495 0.320921 0.666372 -0.821448
H95   H     H_    0.327878 0.304760 0.666125 0.344623
C224  C     C_2   0.370472 0.374453 0.308110 0.902415
O127  O     O_2   0.349441 0.356946 0.340025 -0.617735
O128  O     O_R   0.346058 0.368022 0.267035 -0.769412
H96   H     H_    0.311036 0.348723 0.268072 0.345888

loop_
_geom_bond_atom_site_label_1
_geom_bond_atom_site_label_2
_ccdc_geom_bond_type
O106  H85   S    
C8    O16   A    
O63   Zn15  S    
C19   C179  A    
O10   Zn10  S    
C221  O121  D    
C98   O42   A    
C121  O67   A    
O122  H93   S    
O79   Zn24  S    
C110  C118  S    
C79   C87   A    
O61   Zn13  S    
C48   C120  S    
C224  O127  D    
C130  O82   A    
C190  C198  A    
C86   C110  S    
C126  O74   A    
C70   H62   S    
C195  C203  A    
C189  C197  A    
C139  O59   A    
C193  C201  A    
C154  C170  T    
C114  C212  S    
C213  O105  D    
C141  O53   A    
O70   Zn19  S    
C32   H30   S    
C36   H38   S    
C161  C172  S    
C197  C205  A    
C158  C174  T    
C162  C171  S    
C137  O49   A    
C94   O38   A    
C18   C26   S    
O83   Zn24  S    
O21   Zn3   S    
O50   Zn2   S    
C90   O34   A    
C40   H46   S    
C15   C23   A    
O87   Zn22  S    
C214  O108  S    
O42   Zn14  S    
C210  O100  S    
O74   Zn21  S    
C117  C217  S    
C125  O73   A    
O13   Zn13  S    
C73   C81   A    
C35   H37   S    
O124  H94   S    
C182  C190  A    
O78   Zn23  S    
C112  C120  S    
O39   Zn11  S    
C20   C28   S    
C27   C35   S    
C37   H43   S    
C21   C29   S    
C23   C31   S    
C24   C32   S    
C109  H73   S    
C119  C221  S    
C37   C181  S    
C12   C20   A    
C1    O1    A    
C98   O26   A    
C10   C202  A    
C29   H25   S    
C129  O81   A    
C167  C174  S    
O66   Zn17  S    
O67   Zn18  S    
C63   C71   A    
C14   C206  A    
O5    Zn5   S    
C198  H6    S    
O3    Zn3   S    
O84   Zn24  S    
C32   C40   S    
C123  O71   A    
C95   O39   A    
C17   C177  A    
C12   C132  S    
C13   C133  S    
C41   C113  S    
C3    C187  S    
C50   C138  S    
C39   H45   S    
C1    C185  S    
C94   C150  S    
O73   Zn21  S    
O88   Zn22  S    
C17   C25   S    
C4    C188  S    
C122  O68   A    
C80   C88   A    
C60   H52   S    
C56   C64   A    
C131  O87   A    
C8    C192  S    
C151  C167  T    
C57   H49   S    
C156  C172  T    
C192  C200  A    
C218  O115  D    
O95   Zn18  S    
C61   H53   S    
C178  C186  A    
C74   C121  S    
C39   H47   S    
C44   C116  S    
C96   O40   A    
C4    O12   A    
C209  O97   D    
C221  O122  S    
C78   C125  S    
C5    O13   A    
C140  O60   A    
C97   O41   A    
C91   O19   A    
C98   C154  S    
C207  H15   S    
C212  O103  D    
C196  H4    S    
C49   C137  S    
C43   C83   A    
O81   Zn23  S    
C69   C77   A    
O102  H83   S    
C75   C83   A    
C102  C158  S    
C91   C147  S    
C214  O107  D    
C89   C145  S    
C100  O44   A    
C46   C118  S    
C145  C161  T    
C58   H50   S    
C199  H7    S    
C105  C113  S    
C10   C18   A    
C109  H75   S    
O64   Zn16  S    
O30   Zn8   S    
C150  C166  T    
O15   Zn15  S    
C49   C57   A    
O16   Zn16  S    
C111  C119  S    
C25   H17   S    
C163  C170  S    
C29   H27   S    
C129  O83   A    
C59   C67   A    
O75   Zn22  S    
C53   C61   A    
C42   C114  S    
C38   H44   S    
O100  H82   S    
O68   Zn18  S    
C55   C63   A    
O89   Zn19  S    
O11   Zn11  S    
C180  C188  A    
C28   H24   S    
C123  O69   A    
O33   Zn9   S    
C44   C52   A    
C45   C53   A    
C103  O31   A    
O25   Zn5   S    
C181  C189  A    
C211  O102  S    
C27   H21   S    
O71   Zn20  S    
C35   C179  S    
C81   C105  S    
C55   C143  S    
C33   C177  S    
C75   C124  S    
C122  O66   A    
C28   C36   S    
C149  C165  T    
C113  C209  S    
C131  O85   A    
C219  O118  S    
C118  C220  S    
C69   H61   S    
O27   Zn5   S    
C47   C87   A    
C9    C17   A    
C23   C183  A    
C194  H2    S    
O49   Zn1   S    
O108  H86   S    
C115  C213  S    
C184  C192  A    
C95   O23   A    
C42   C50   A    
C14   C22   A    
C144  O64   A    
C67   C75   A    
C136  O96   A    
C16   C136  S    
C142  O54   A    
C45   C117  S    
C22   C30   S    
C139  O51   A    
O51   Zn3   S    
O65   Zn17  S    
C186  C194  A    
C124  O70   A    
C141  O61   A    
C110  H74   S    
C24   C184  A    
C208  H16   S    
O22   Zn4   S    
O23   Zn3   S    
C38   C182  S    
C105  H65   S    
C2    O2    A    
C99   O27   A    
C22   C182  A    
C147  C163  T    
C13   C21   A    
C87   C111  S    
C38   H42   S    
C101  O45   A    
C206  H14   S    
C223  O126  S    
C103  O47   A    
C12   C204  A    
C33   H35   S    
O118  H91   S    
C18   C178  A    
C200  C208  A    
C219  O117  D    
O53   Zn5   S    
C30   H28   S    
C216  O111  D    
C25   C33   S    
C51   C139  S    
O37   Zn11  S    
O32   Zn8   S    
O38   Zn12  S    
C210  O99   D    
C92   C148  S    
C213  O106  S    
O36   Zn10  S    
C36   C180  S    
C65   H57   S    
C116  C216  S    
C76   C84   A    
C109  C117  S    
O26   Zn6   S    
C165  C176  S    
C146  C162  T    
C11   C19   A    
C166  C175  S    
C204  H12   S    
C1    O9    A    
O77   Zn23  S    
C74   C82   A    
C85   C109  S    
C104  O48   A    
C217  O114  S    
C179  C187  A    
C2    C186  S    
C194  C202  A    
C177  C185  A    
C138  O58   A    
C41   C49   A    
C220  O120  S    
C133  O91   A    
C6    O14   A    
C135  O95   A    
C33   H33   S    
O54   Zn6   S    
O47   Zn15  S    
C26   H20   S    
C215  O110  S    
C99   C155  S    
C48   C88   A    
O2    Zn2   S    
C97   C153  S    
C91   O35   A    
C25   H19   S    
C40   C184  S    
C100  C156  S    
C224  O128  S    
C101  C157  S    
O120  H92   S    
C102  O46   A    
C59   H51   S    
C124  O72   A    
C104  C160  S    
C71   C79   A    
C100  O28   A    
C101  O29   A    
C216  O112  S    
C143  O63   A    
C96   C152  S    
C117  C219  S    
C34   H36   S    
O116  H90   S    
C105  H67   S    
C133  O89   A    
C106  H68   S    
C20   C180  A    
O1    Zn1   S    
C8    O8    A    
C222  O123  D    
C93   O21   A    
C183  C191  A    
C50   C58   A    
O86   Zn21  S    
C16   C24   A    
O112  H88   S    
C10   C130  S    
C89   O17   A    
O92   Zn20  S    
O34   Zn10  S    
C41   C81   A    
C46   C54   A    
C6    O6    A    
C93   C149  S    
C11   C203  A    
C30   H26   S    
C132  O86   A    
C9    C201  A    
C96   O24   A    
O76   Zn22  S    
C88   C112  S    
C54   C142  S    
C118  C218  S    
C13   C205  A    
C34   C178  S    
C68   C76   A    
C152  C168  T    
O28   Zn6   S    
C197  H5    S    
O29   Zn7   S    
C157  C173  T    
O12   Zn12  S    
C137  O57   A    
C31   H31   S    
C5    C189  S    
C57   C65   A    
C44   C84   A    
C63   H55   S    
C32   H32   S    
C64   H56   S    
C127  O79   A    
C125  O75   A    
C40   H48   S    
C54   C62   A    
C108  C116  S    
O20   Zn2   S    
C135  O93   A    
C43   C51   A    
O17   Zn1   S    
C26   H18   S    
C84   C108  S    
C126  O76   A    
C53   C141  S    
C68   H60   S    
C128  O78   A    
C56   C144  S    
O40   Zn12  S    
C110  H76   S    
O91   Zn20  S    
C60   C68   A    
C72   C80   A    
C73   C122  S    
C29   C37   S    
O98   H81   S    
C111  H79   S    
O85   Zn21  S    
C120  C224  S    
C92   O20   A    
C39   C183  S    
C77   C126  S    
O31   Zn7   S    
C92   O36   A    
C66   C74   A    
C79   C128  S    
C114  C210  S    
C70   C78   A    
C153  C169  T    
O72   Zn20  S    
C42   C82   A    
C3    O3    A    
O128  H96   S    
C107  H71   S    
C62   H54   S    
C4    O4    A    
C211  O101  D    
O19   Zn1   S    
O14   Zn14  S    
C143  O55   A    
O41   Zn13  S    
C7    C191  S    
C21   C181  A    
O8    Zn8   S    
C115  C215  S    
C52   C60   A    
C106  C114  S    
O48   Zn16  S    
C34   H34   S    
C136  O94   A    
C191  C199  A    
C5    O5    A    
O4    Zn4   S    
O7    Zn7   S    
C15   C135  S    
C65   C73   A    
C218  O116  S    
C144  O56   A    
C132  O88   A    
O43   Zn13  S    
C43   C115  S    
C200  H8    S    
C26   C34   S    
C7    O15   A    
C82   C106  S    
C31   C39   S    
C58   C66   A    
O80   Zn24  S    
C202  H10   S    
C209  O98   S    
O18   Zn2   S    
O9    Zn9   S    
C66   H58   S    
C134  O92   A    
C78   C86   A    
O6    Zn6   S    
C31   H29   S    
O56   Zn8   S    
C212  O104  S    
C159  C175  T    
C97   O25   A    
C160  C176  T    
C62   C70   A    
C164  C169  S    
C112  H78   S    
O82   Zn23  S    
C2    O10   A    
C108  H70   S    
O94   Zn17  S    
C142  O62   A    
C127  O77   A    
C222  O124  S    
C168  C173  S    
O58   Zn10  S    
C148  C164  T    
C113  C211  S    
C104  O32   A    
O55   Zn7   S    
C121  O65   A    
C140  O52   A    
O104  H84   S    
C7    O7    A    
C14   C134  S    
C99   O43   A    
C130  O84   A    
O52   Zn4   S    
C45   C85   A    
O45   Zn15  S    
C195  H3    S    
O46   Zn16  S    
C198  C206  A    
C128  O80   A    
C67   H59   S    
C196  C204  A    
C193  H1    S    
O126  H95   S    
C52   C140  S    
C3    O11   A    
C6    C190  S    
C199  C207  A    
C223  O125  D    
C111  H77   S    
O90   Zn19  S    
C107  C115  S    
O24   Zn4   S    
C116  C214  S    
O59   Zn11  S    
C120  C222  S    
C27   H23   S    
C102  O30   A    
O57   Zn9   S    
O96   Zn18  S    
C36   H40   S    
C51   C59   A    
C107  H69   S    
C19   C27   S    
C47   C119  S    
C47   C55   A    
C61   C69   A    
C48   C56   A    
O69   Zn19  S    
C94   O22   A    
C187  C195  A    
C76   C123  S    
C138  O50   A    
C185  C193  A    
C16   C208  A    
C11   C131  S    
C93   O37   A    
C90   O18   A    
C80   C127  S    
C9    C129  S    
C35   H39   S    
C203  H11   S    
C89   O33   A    
C201  H9    S    
O114  H89   S    
C90   C146  S    
O93   Zn17  S    
C106  H66   S    
C103  C159  S    
C217  O113  D    
C37   H41   S    
C205  H13   S    
C83   C107  S    
C28   H22   S    
C64   C72   A    
C220  O119  D    
O35   Zn9   S    
C15   C207  A    
C119  C223  S    
C134  O90   A    
C77   C85   A    
O110  H87   S    
C155  C171  T    
C95   C151  S    
C188  C196  A    
C71   H63   S    
C215  O109  D    
C72   H64   S    
O62   Zn14  S    
C112  H80   S    
C30   C38   S    
C108  H72   S    
O44   Zn14  S    
C46   C86   A    
O60   Zn12  S    
