data_mof_unit_59061.cif
_audit_creation_date              2012-12-10T20:49:43-0500
_audit_creation_method            fapswitch 2.2
_symmetry_space_group_name_H-M    P1
_symmetry_Int_Tables_number       1
_space_group_crystal_system       triclinic
_cell_length_a                    8.104488
_cell_length_b                    8.936104
_cell_length_c                    16.995873
_cell_angle_alpha                 90.006587
_cell_angle_beta                  85.980737
_cell_angle_gamma                 89.999052
_cell_volume                      1227.85710437

loop_
_atom_site_label
_atom_site_type_symbol
_atom_type_description
_atom_site_fract_x
_atom_site_fract_y
_atom_site_fract_z
_atom_type_partial_charge
C1    C     C_R   0.500001 0.782026 0.499986 0.942835
C2    C     C_R   0.499999 0.217974 0.500014 0.942868
C3    C     C_1   0.499999 0.934819 0.499997 -0.187359
C4    C     C_1   0.500000 0.065181 0.500004 -0.187373
C5    C     C_R   0.478445 0.504777 0.653011 0.872452
C6    C     C_R   0.521556 0.495266 0.346987 0.872461
C7    C     C_R   0.467132 0.527388 0.737698 -0.026303
C8    C     C_R   0.532882 0.472945 0.262281 -0.026334
C9    C     C_R   0.611279 0.554966 0.775964 -0.187562
C10   C     C_R   0.388732 0.445654 0.223968 -0.187554
C11   C     C_R   0.601945 0.576474 0.856458 -0.124342
C12   C     C_R   0.398082 0.424533 0.143444 -0.124272
C13   C     C_R   0.449074 0.567734 0.899967 0.129996
C14   C     C_R   0.550978 0.433347 0.099961 0.129897
C15   C     C_R   0.301389 0.551335 0.861471 -0.089584
C16   C     C_R   0.698651 0.449486 0.138491 -0.089552
C17   C     C_R   0.312433 0.530333 0.779960 -0.294291
C18   C     C_R   0.687591 0.470125 0.220025 -0.294273
C19   C     C_2   0.450296 0.551539 0.985021 -0.217237
C20   C     C_2   0.549836 0.449678 0.014913 -0.217205
H1    H     H_    0.284831 0.408216 0.114237 0.203101
H2    H     H_    0.715203 0.592974 0.885636 0.203051
H3    H     H_    0.731704 0.557968 0.744024 0.170463
H4    H     H_    0.268296 0.442588 0.255895 0.170460
H5    H     H_    0.799606 0.483954 0.250558 0.163983
H6    H     H_    0.200418 0.516327 0.749448 0.163969
H7    H     H_    0.633874 0.382977 0.976681 0.219079
H8    H     H_    0.366243 0.618229 0.023251 0.219048
N1    N     N_1   0.926360 0.500000 0.499990 -0.035993
N2    N     N_1   0.073640 0.500000 0.500010 -0.035991
O1    O     O_R   0.363150 0.714660 0.500000 -0.612943
O2    O     O_R   0.636850 0.285340 0.500000 -0.612931
O3    O     O_R   0.636850 0.714660 0.500000 -0.614398
O4    O     O_R   0.363150 0.285340 0.500000 -0.614379
O5    O     O_R   0.346950 0.500000 0.615800 -0.622392
O6    O     O_R   0.653050 0.500000 0.384200 -0.622399
O7    O     O_R   0.620700 0.500000 0.615800 -0.626807
O8    O     O_R   0.379300 0.500000 0.384200 -0.626804
Zn1   Zn    Zn3+2 0.317220 0.500000 0.500010 0.991280
Zn2   Zn    Zn3+2 0.682780 0.500000 0.499990 0.991271
C21   C     C_2   0.135402 0.552112 0.904443 0.960766
O9    O     O_2   0.102386 0.646434 0.955023 -0.553930
O10   O     O_R   0.013029 0.449837 0.886324 -0.767687
H9    H     H_    0.054214 0.369924 0.847513 0.306904
C22   C     C_2   0.864649 0.448816 0.095535 0.960767
O11   O     O_2   0.897721 0.354577 0.044919 -0.553878
O12   O     O_R   0.986968 0.551099 0.113712 -0.767762
H10   H     H_    0.945742 0.630894 0.152585 0.306886

loop_
_geom_bond_atom_site_label_1
_geom_bond_atom_site_label_2
_ccdc_geom_bond_type
C16   C22   S    
C2    C4    S    
O10   H9    S    
C6    O8    A    
C15   C17   A    
N1    N2    T    
C20   H7    S    
C5    O7    A    
C11   C13   A    
C21   O9    D    
C21   O10   S    
C11   H2    S    
O5    Zn1   S    
C19   C20   D    
O1    Zn1   S    
O6    Zn2   S    
C2    O4    A    
C13   C15   A    
C1    O3    A    
C22   O11   D    
C19   H8    S    
C9    C11   A    
C18   H5    S    
C10   C12   A    
C17   H6    S    
C5    O5    A    
N1    Zn2   S    
C16   C18   A    
C6    O6    A    
N2    Zn1   S    
O7    Zn2   S    
C5    C7    S    
O2    Zn2   S    
O8    Zn1   S    
C14   C16   A    
O3    Zn2   S    
C13   C19   S    
O4    Zn1   S    
O12   H10   S    
C14   C20   S    
C1    O1    A    
C15   C21   S    
C2    O2    A    
C22   O12   S    
C7    C9    A    
C9    H3    S    
C6    C8    S    
C10   H4    S    
C12   H1    S    
C8    C10   A    
C8    C18   A    
C3    C4    T    
C12   C14   A    
C1    C3    S    
C7    C17   A    
