data_mof_unit_6396.cif
_audit_creation_date              2012-12-10T17:35:46-0500
_audit_creation_method            fapswitch 2.2
_symmetry_space_group_name_H-M    P1
_symmetry_Int_Tables_number       1
_space_group_crystal_system       triclinic
_cell_length_a                    10.497563
_cell_length_b                    11.997939
_cell_length_c                    12.895564
_cell_angle_alpha                 93.101657
_cell_angle_beta                  90.002857
_cell_angle_gamma                 86.726448
_cell_volume                      1619.15182852

loop_
_atom_site_label
_atom_site_type_symbol
_atom_type_description
_atom_site_fract_x
_atom_site_fract_y
_atom_site_fract_z
_atom_type_partial_charge
C1    C     C_R   0.498334 0.521795 0.700419 0.880927
C2    C     C_R   0.501668 0.478205 0.299581 0.880926
C3    C     C_R   0.503085 0.437818 0.867639 -0.286480
C4    C     C_R   0.496928 0.562184 0.132361 -0.286479
C5    C     C_R   0.502906 0.446472 0.974279 0.186868
C6    C     C_R   0.497111 0.553530 0.025721 0.186872
C7    C     C_R   0.392469 0.952247 0.392549 0.086673
C8    C     C_R   0.607525 0.047753 0.607457 0.086688
C9    C     C_R   0.401975 0.836337 0.405427 -0.033426
C10   C     C_R   0.598017 0.163663 0.594580 -0.033392
C11   C     C_R   0.544016 0.858577 0.546617 -0.077693
C12   C     C_R   0.455988 0.141422 0.453381 -0.077649
C13   C     C_R   0.538457 0.976227 0.539315 0.016498
C14   C     C_R   0.461543 0.023772 0.460686 0.016580
C15   C     C_R   0.742675 0.500710 0.500046 0.866465
C16   C     C_R   0.257325 0.499290 0.499954 0.866468
C17   C     C_3   0.960076 0.458506 0.588357 -0.179961
C18   C     C_3   0.039924 0.541494 0.411643 -0.179961
C19   C     C_3   0.038646 0.562869 0.582249 -0.176520
C20   C     C_3   0.961354 0.437131 0.417751 -0.176517
C21   C     C_3   0.122385 0.498189 0.500048 0.029354
C22   C     C_3   0.877615 0.501811 0.499952 0.029355
C23   C     C_3   0.046533 0.393721 0.506159 -0.140626
C24   C     C_3   0.953467 0.606279 0.493841 -0.140628
C25   C     C_R   0.502435 0.465500 0.188280 -0.054060
C26   C     C_R   0.497575 0.534501 0.811719 -0.054055
C27   C     C_R   0.491571 0.650348 0.969877 -0.224855
C28   C     C_R   0.508446 0.349654 0.030123 -0.224842
C29   C     C_R   0.491803 0.640833 0.862497 -0.206281
C30   C     C_R   0.508212 0.359169 0.137502 -0.206263
H1    H     H_    0.075049 0.613735 0.649173 0.135196
H2    H     H_    0.924951 0.386265 0.350827 0.135198
H3    H     H_    0.922592 0.425021 0.660202 0.131620
H4    H     H_    0.077408 0.574978 0.339798 0.131620
H5    H     H_    0.088570 0.307130 0.511116 0.140689
H6    H     H_    0.911430 0.692870 0.488884 0.140688
H7    H     H_    0.492457 0.644721 0.171432 0.161049
H8    H     H_    0.507555 0.355281 0.828569 0.161048
H9    H     H_    0.512403 0.283962 0.180479 0.159412
H10   H     H_    0.487613 0.716041 0.819521 0.159442
H11   H     H_    0.487128 0.732744 0.009060 0.138000
H12   H     H_    0.512890 0.267259 0.990939 0.137987
H13   H     H_    0.397931 0.181818 0.395694 0.148716
H14   H     H_    0.602075 0.818180 0.604305 0.148755
H15   H     H_    0.649253 0.219725 0.645837 0.131918
H16   H     H_    0.350732 0.780275 0.354174 0.131926
N1    N     N_R   0.523490 0.207800 0.519350 -0.113938
N2    N     N_R   0.476510 0.792200 0.480650 -0.113927
O1    O     O_R   0.506270 0.421700 0.658830 -0.629316
O2    O     O_R   0.493730 0.578300 0.341170 -0.629315
O3    O     O_R   0.491200 0.609310 0.646410 -0.628629
O4    O     O_R   0.508800 0.390690 0.353590 -0.628633
O5    O     O_R   0.693580 0.406210 0.506230 -0.622360
O6    O     O_R   0.306420 0.593790 0.493770 -0.622361
O7    O     O_R   0.678510 0.593830 0.493810 -0.626247
O8    O     O_R   0.321490 0.406170 0.506190 -0.626246
Zn1   Zn    Zn3+2 0.510060 0.374730 0.508290 0.934122
Zn2   Zn    Zn3+2 0.489940 0.625270 0.491710 0.934119
C31   C     C_3   0.309636 0.995083 0.305374 -0.435187
C32   C     C_3   0.390485 0.021281 0.212234 -0.869502
H17   H     H_    0.459225 0.085344 0.234076 0.252913
H18   H     H_    0.444206 0.944183 0.181149 0.255942
H19   H     H_    0.327479 0.053514 0.150124 0.248972
H20   H     H_    0.242283 0.931293 0.278749 0.200612
H21   H     H_    0.249116 0.069751 0.332836 0.198993
C33   C     C_3   0.690361 0.004908 0.694628 -0.435163
C34   C     C_3   0.609517 0.978697 0.787768 -0.869533
H22   H     H_    0.556061 0.055853 0.819029 0.255907
H23   H     H_    0.540541 0.914852 0.765865 0.252963
H24   H     H_    0.672500 0.946177 0.849765 0.248972
H25   H     H_    0.750872 0.930240 0.667154 0.198980
H26   H     H_    0.757726 0.068687 0.721255 0.200610

loop_
_geom_bond_atom_site_label_1
_geom_bond_atom_site_label_2
_ccdc_geom_bond_type
C8    C33   S    
C16   C21   S    
C27   C29   A    
C18   C21   S    
C19   H1    S    
C4    C25   A    
C31   H20   S    
C24   H6    S    
C32   H19   S    
C18   C24   S    
C15   O5    A    
C19   C21   S    
C12   H13   S    
O6    Zn2   S    
C5    C6    A    
O1    Zn1   S    
O8    Zn1   S    
C32   H18   S    
C2    O2    A    
C15   C22   S    
C33   H26   S    
C33   H25   S    
C3    H8    S    
C33   C34   S    
C31   C32   S    
C13   C14   A    
C11   N2    A    
C17   H3    S    
C12   N1    A    
C7    C31   S    
C7    C14   A    
C34   H22   S    
O2    Zn2   S    
C4    C6    A    
O5    Zn1   S    
C32   H17   S    
C34   H23   S    
C15   O7    A    
C16   O8    A    
N1    Zn1   S    
C5    C28   A    
C18   H4    S    
C27   H11   S    
C6    C27   A    
C20   C23   S    
C10   H15   S    
C11   H14   S    
O3    Zn2   S    
C17   C23   S    
C1    O3    A    
C2    O4    A    
C9    N2    A    
C12   C14   A    
C23   H5    S    
C21   C23   S    
C1    C26   S    
C22   C24   S    
C20   H2    S    
C25   C30   A    
C7    C9    A    
C3    C26   A    
C20   C22   S    
C3    C5    A    
N2    Zn2   S    
C17   C22   S    
C34   H24   S    
C28   C30   A    
C19   C24   S    
C31   H21   S    
C11   C13   A    
C29   H10   S    
C28   H12   S    
C17   C19   S    
C30   H9    S    
C2    C25   S    
C18   C20   S    
C16   O6    A    
O4    Zn1   S    
C8    C13   A    
C9    H16   S    
C4    H7    S    
C26   C29   A    
C8    C10   A    
O7    Zn2   S    
C10   N1    A    
C1    O1    A    
