data_mof_unit_37752.cif
_audit_creation_date              2012-12-10T18:49:53-0500
_audit_creation_method            fapswitch 2.2
_symmetry_space_group_name_H-M    P1
_symmetry_Int_Tables_number       1
_space_group_crystal_system       triclinic
_cell_length_a                    10.786159
_cell_length_b                    10.085391
_cell_length_c                    11.166142
_cell_angle_alpha                 91.585915
_cell_angle_beta                  98.923918
_cell_angle_gamma                 94.702243
_cell_volume                      1194.93303578

loop_
_atom_site_label
_atom_site_type_symbol
_atom_type_description
_atom_site_fract_x
_atom_site_fract_y
_atom_site_fract_z
_atom_type_partial_charge
C1    C     C_R   0.264665 0.498108 0.517640 0.933120
C2    C     C_3   0.624733 0.452000 0.944865 -0.416287
C3    C     C_R   0.058701 0.382022 0.531258 0.208238
C4    C     C_R   0.085988 0.620157 0.574891 0.180962
C5    C     C_R   0.935337 0.391940 0.479800 0.083574
C6    C     C_R   0.956137 0.620785 0.559555 0.073169
C7    C     C_R   0.877842 0.508961 0.505393 -0.194300
C8    C     C_R   0.137566 0.499525 0.547307 -0.196251
C9    C     C_R   0.595231 0.083197 0.565868 0.129467
C10   C     C_R   0.596456 0.941091 0.564000 0.102783
C11   C     C_R   0.400902 0.917409 0.429831 0.264629
C12   C     C_R   0.402837 0.062700 0.428427 0.257619
C13   C     C_R   0.501363 0.497802 0.257723 0.865462
C14   C     C_R   0.740769 0.503849 0.498257 0.846087
C15   C     C_R   0.500881 0.500868 0.742278 0.883228
C16   C     C_3   0.508080 0.644987 0.077358 0.103864
C17   C     C_3   0.377100 0.404784 0.049875 0.031287
C18   C     C_3   0.486026 0.648445 0.933354 0.401418
C19   C     C_3   0.383423 0.391241 0.905627 0.429286
C20   C     C_3   0.625102 0.431104 0.084185 0.144087
C21   C     C_3   0.501312 0.493337 0.119697 -0.019115
C22   C     C_3   0.497744 0.499121 0.878566 -0.189993
H1    H     H_    0.703073 0.525737 0.933891 0.222739
H2    H     H_    0.649958 0.362319 0.898228 0.230163
N1    N     N_R   0.499970 0.857200 0.499970 -0.170919
N2    N     N_R   0.499970 0.142800 0.499970 -0.141946
O1    O     O_R   0.316750 0.614620 0.499990 -0.598619
O2    O     O_R   0.316750 0.385380 0.499990 -0.517720
O3    O     O_R   0.499970 0.614670 0.314790 -0.607033
O4    O     O_R   0.499970 0.385330 0.314790 -0.583354
O5    O     O_R   0.683220 0.614710 0.500010 -0.643401
O6    O     O_R   0.683220 0.385290 0.500010 -0.622194
O7    O     O_R   0.500010 0.614660 0.685200 -0.582355
O8    O     O_R   0.500010 0.385340 0.685200 -0.548759
Zn1   Zn    Zn3+2 0.499980 0.653120 0.500000 1.009237
Zn2   Zn    Zn3+2 0.499980 0.346880 0.500000 1.066077
N3    N     N_3   0.632634 0.709125 0.136438 -0.387271
H3    H     H_    0.704734 0.710652 0.084157 0.265759
H4    H     H_    0.630535 0.802972 0.178125 0.245368
N4    N     N_3   0.365254 0.273745 0.105311 -0.343357
H5    H     H_    0.425220 0.203385 0.087556 0.294709
H6    H     H_    0.273326 0.229057 0.083317 0.271319
S1    S     S_3+6 0.263284 0.827374 0.333540 0.077353
O9    O     O_2   0.147573 0.874688 0.373976 -0.251961
O10   O     O_2   0.267031 0.872212 0.207740 -0.283554
O11   O     O_3   0.223736 0.664443 0.309258 -0.512813
H7    H     H_    0.291756 0.631303 0.273131 0.366731
S2    S     S_3+6 0.264824 0.140208 0.351586 0.116872
O12   O     O_2   0.293689 0.276959 0.313563 -0.278707
O13   O     O_2   0.189260 0.076444 0.238146 -0.174461
O14   O     O_3   0.163827 0.143045 0.450138 -0.523381
H8    H     H_    0.191299 0.078848 0.512268 0.347087
N5    N     N_3   0.415012 0.722286 0.123395 -0.404707
H9    H     H_    0.431426 0.821749 0.101412 0.259886
H10   H     H_    0.322174 0.692074 0.087359 0.250126
N6    N     N_3   0.263777 0.468587 0.070751 -0.487114
H11   H     H_    0.182100 0.412711 0.028348 0.194856
H12   H     H_    0.254808 0.460306 0.161690 0.229772
N7    N     N_3   0.357742 0.684016 0.889763 -0.488128
H13   H     H_    0.347755 0.785250 0.904641 0.262823
H14   H     H_    0.337526 0.666750 0.796940 0.204302
N8    N     N_3   0.263018 0.419752 0.831237 -0.492785
H15   H     H_    0.195033 0.341425 0.837731 0.225609
H16   H     H_    0.220478 0.500940 0.859429 0.194517
S3    S     S_3+6 0.587583 0.787539 0.885757 -0.060982
O15   O     O_2   0.516851 0.845927 0.776182 -0.320160
O16   O     O_2   0.614926 0.899564 0.980334 -0.341669
O17   O     O_3   0.724788 0.737245 0.855294 -0.649865
H17   H     H_    0.791765 0.798712 0.903223 0.381463
S4    S     S_3+6 0.395718 0.213326 0.854672 -0.001555
O18   O     O_2   0.296984 0.122241 0.899557 -0.309315
O19   O     O_2   0.367743 0.192190 0.719355 -0.309453
O20   O     O_3   0.535398 0.156009 0.902148 -0.549016
H18   H     H_    0.542321 0.084669 0.842006 0.425609
N9    N     N_3   0.743083 0.496830 0.152701 -0.465245
H19   H     H_    0.821050 0.451202 0.131377 0.201834
H20   H     H_    0.742769 0.491156 0.245726 0.173665
N10   N     N_3   0.626963 0.288816 0.107552 -0.387575
H21   H     H_    0.635657 0.274012 0.200446 0.191302
H22   H     H_    0.706341 0.252089 0.079632 0.227839
N11   N     N_3   0.077434 0.285226 0.622436 -0.456581
H23   H     H_    0.171518 0.266333 0.636643 0.270926
H24   H     H_    0.023438 0.195762 0.594223 0.225988
N12   N     N_3   0.158367 0.739173 0.631193 -0.418850
H25   H     H_    0.254813 0.741003 0.636559 0.224718
H26   H     H_    0.132613 0.821091 0.581139 0.248972
N13   N     N_3   0.873559 0.280486 0.404802 -0.401925
H27   H     H_    0.808347 0.225467 0.446997 0.216229
H28   H     H_    0.830398 0.313841 0.322714 0.173598
N14   N     N_3   0.908018 0.736848 0.602782 -0.435386
H29   H     H_    0.857595 0.780437 0.528907 0.244158
H30   H     H_    0.855107 0.708065 0.669759 0.230568
N15   N     N_3   0.694241 0.166438 0.638932 -0.390699
H31   H     H_    0.689502 0.152015 0.730201 0.195692
H32   H     H_    0.781146 0.137814 0.622486 0.167562
N16   N     N_3   0.702277 0.885555 0.629158 -0.453266
H33   H     H_    0.672742 0.787719 0.643788 0.303447
H34   H     H_    0.725708 0.932118 0.715216 0.234876

loop_
_geom_bond_atom_site_label_1
_geom_bond_atom_site_label_2
_ccdc_geom_bond_type
N13   H27   S    
N15   H31   S    
C1    C8    S    
O20   H18   S    
N5    H10   S    
C14   O5    A    
C4    C8    A    
N11   H23   S    
N5    H9    S    
C18   S3    S    
C16   C21   S    
O6    Zn2   S    
C13   O3    A    
C15   C22   S    
N3    H3    S    
N12   H26   S    
N10   H22   S    
C11   N1    A    
C19   N8    S    
N6    H11   S    
C16   N5    S    
N8    H16   S    
C17   C19   S    
C7    C14   S    
O17   H17   S    
S3    O16   D    
N16   H34   S    
C2    C22   S    
C1    O2    A    
C11   S1    S    
S4    O18   D    
C9    C10   A    
C15   O8    A    
C12   S2    S    
C16   N3    S    
N4    H6    S    
N7    H13   S    
N15   H32   S    
N11   H24   S    
C9    N2    A    
S2    O14   S    
N7    H14   S    
C2    C20   S    
O14   H8    S    
C13   O4    A    
C19   C22   S    
N12   H25   S    
C4    C6    A    
C3    C8    A    
C5    C7    A    
N10   H21   S    
O1    Zn1   S    
C6    N14   S    
C17   C21   S    
C20   N9    S    
C12   N2    A    
C17   N4    S    
N9    H19   S    
C3    N11   S    
N8    H15   S    
S1    O10   D    
N14   H30   S    
C4    N12   S    
C10   N16   S    
S3    O17   S    
N16   H33   S    
S4    O20   S    
C13   C21   S    
N9    H20   S    
C17   N6    S    
N1    Zn1   S    
C10   N1    A    
N2    Zn2   S    
S2    O12   D    
N13   H28   S    
S1    O9    D    
C2    H2    S    
O5    Zn1   S    
C9    N15   S    
O11   H7    S    
N4    H5    S    
C18   C22   S    
C14   O6    A    
C3    C5    A    
C11   C12   A    
C6    C7    A    
C20   N10   S    
O3    Zn1   S    
O4    Zn2   S    
N3    H4    S    
N14   H29   S    
S2    O13   D    
O7    Zn1   S    
N6    H12   S    
O8    Zn2   S    
S1    O11   S    
C5    N13   S    
C18   N7    S    
C20   C21   S    
O2    Zn2   S    
C16   C18   S    
S3    O15   D    
C2    H1    S    
C1    O1    A    
C19   S4    S    
S4    O19   D    
C15   O7    A    
