data_mof_unit_26684.cif
_audit_creation_date              2012-12-11T15:47:05-0500
_audit_creation_method            fapswitch 2.2
_symmetry_space_group_name_H-M    P1
_symmetry_Int_Tables_number       1
_space_group_crystal_system       triclinic
_cell_length_a                    11.583242
_cell_length_b                    11.585962
_cell_length_c                    19.448812
_cell_angle_alpha                 90.899433
_cell_angle_beta                  90.278591
_cell_angle_gamma                 60.507496
_cell_volume                      2271.58167913

loop_
_atom_site_label
_atom_site_type_symbol
_atom_type_description
_atom_site_fract_x
_atom_site_fract_y
_atom_site_fract_z
_atom_type_partial_charge
C1    C     C_R   0.640661 0.117395 0.598886 0.538912
C2    C     C_1   0.653457 0.150080 0.668308 0.003217
C3    C     C_R   0.713140 0.554741 0.208093 -0.026667
C4    C     C_R   0.612386 0.745992 0.598378 0.540484
C5    C     C_R   0.615805 0.547661 0.247334 -0.000387
C6    C     C_R   0.595052 0.590633 0.315219 -0.009805
C7    C     C_R   0.796170 0.604156 0.314535 0.118962
C8    C     C_R   0.811681 0.569323 0.243769 -0.142652
C9    C     C_3   0.470212 0.609353 0.234628 -0.252674
C10   C     C_3   0.447252 0.658448 0.308363 -0.119276
C11   C     C_R   0.674247 0.636490 0.346704 0.018003
C12   C     C_1   0.641408 0.703705 0.667728 0.003458
C13   C     C_R   0.143295 0.201682 0.190672 0.017608
C14   C     C_R   0.118862 0.307252 0.234049 0.020616
C15   C     C_R   0.144825 0.287255 0.303277 0.017286
C16   C     C_R   0.240755 0.145389 0.597870 0.542818
C17   C     C_R   0.210085 0.055884 0.287714 -0.124235
C18   C     C_R   0.198027 0.072750 0.215961 -0.037777
C19   C     C_3   0.187880 0.386261 0.226989 -0.277485
C20   C     C_3   0.222510 0.359294 0.301191 -0.268851
C21   C     C_R   0.187002 0.162730 0.331970 0.001393
C22   C     C_R   0.676181 0.177245 0.193075 0.014863
C23   C     C_1   0.127056 0.198342 0.859533 0.003258
C24   C     C_R   0.771688 0.064010 0.227336 -0.001134
C25   C     C_R   0.765535 0.051976 0.296984 0.052872
C26   C     C_R   0.562315 0.257917 0.301666 -0.170126
C27   C     C_R   0.564234 0.267354 0.229963 -0.167722
C28   C     C_R   0.645104 0.113108 0.403359 0.535140
C29   C     C_3   0.919496 0.001621 0.230423 -0.236371
C30   C     C_3   0.911181 0.991388 0.307397 0.005579
C31   C     C_R   0.664493 0.149543 0.335639 0.021719
C32   C     C_R   0.081995 0.231071 0.928879 0.544968
C33   C     C_R   0.684082 0.604353 0.929748 0.555356
C34   C     C_1   0.171044 0.170457 0.727541 -0.032611
C35   C     C_R   0.708596 0.206382 0.930467 0.549644
C36   C     C_R   0.085536 0.235630 0.123621 0.531280
C37   C     C_R   0.711906 0.545101 0.132502 0.574618
C38   C     C_R   0.708991 0.210097 0.126671 0.540357
C39   C     C_R   0.619602 0.732555 0.404280 0.549875
C40   C     C_R   0.246285 0.138900 0.400378 0.534061
C41   C     C_1   0.670509 0.646546 0.860382 0.002669
C42   C     C_1   0.655034 0.683506 0.728325 -0.032454
C43   C     C_1   0.663633 0.666696 0.799785 -0.032655
C44   C     C_3   0.939737 0.556608 0.415866 -0.260993
C45   C     C_1   0.150241 0.181954 0.798970 -0.032047
C46   C     C_3   0.961886 0.065114 0.418200 -0.279259
C47   C     C_3   0.379791 0.601879 0.354948 -0.240189
C48   C     C_3   0.259144 0.711971 0.392959 -0.305334
C49   C     C_3   0.207795 0.654645 0.447326 -0.450444
C50   C     C_3   0.274491 0.956844 0.166719 -0.242552
C51   C     C_3   0.201253 0.880778 0.147443 -0.309030
C52   C     C_3   0.256117 0.796845 0.082017 -0.437584
C53   C     C_1   0.194678 0.161350 0.667043 0.001521
C54   C     C_1   0.678783 0.190378 0.861078 0.004625
C55   C     C_1   0.658938 0.167397 0.728928 -0.032479
C56   C     C_1   0.665856 0.180351 0.800423 -0.032077
Cr1   Cr    Cr6+3 0.404720 0.198220 0.499960 1.001194
Cr2   Cr    Cr6+3 0.698290 0.897110 0.500380 1.012372
Cr3   Cr    Cr6+3 0.396970 0.904720 0.499610 0.993083
Cr4   Cr    Cr6+3 0.926290 0.152010 0.028150 0.997246
Cr5   Cr    Cr6+3 0.921440 0.451830 0.027490 1.020506
Cr6   Cr    Cr6+3 0.626370 0.446880 0.028730 1.000451
H1    H     H_    0.275512 0.338559 0.192181 0.136641
H2    H     H_    0.434976 0.539749 0.221800 0.126144
H3    H     H_    0.436785 0.689029 0.197594 0.149244
H4    H     H_    0.404520 0.766562 0.311373 0.149421
H5    H     H_    0.248217 0.958939 0.308450 0.129156
H6    H     H_    0.119047 0.492488 0.216536 0.125749
H7    H     H_    0.967699 0.622744 0.320018 0.230165
H8    H     H_    0.035916 0.464532 0.410742 0.141355
H9    H     H_    0.869124 0.528905 0.438548 0.140060
H10   H     H_    0.951436 0.624711 0.452331 0.150872
H11   H     H_    0.906432 0.174384 0.327862 0.259744
H12   H     H_    0.328138 0.287889 0.308694 0.164349
H13   H     H_    0.026693 0.104046 0.437041 0.148192
H14   H     H_    0.006327 0.960017 0.433445 0.153055
H15   H     H_    0.863720 0.124830 0.443132 0.150225
H16   H     H_    0.182703 0.582380 0.423630 0.142812
H17   H     H_    0.284165 0.604221 0.487491 0.159882
H18   H     H_    0.117410 0.735209 0.472200 0.133328
H19   H     H_    0.283957 0.782768 0.418835 0.210813
H20   H     H_    0.179800 0.767788 0.355076 0.147501
H21   H     H_    0.342864 0.545984 0.323737 0.128602
H22   H     H_    0.452095 0.533625 0.393131 0.165937
H23   H     H_    0.182905 0.450300 0.333262 0.123274
H24   H     H_    0.239053 0.861712 0.037238 0.162616
H25   H     H_    0.363181 0.727568 0.086293 0.195984
H26   H     H_    0.204698 0.738684 0.072512 0.131333
H27   H     H_    0.204868 0.818010 0.190885 0.141221
H28   H     H_    0.097133 0.950695 0.135560 0.207486
H29   H     H_    0.297560 0.992869 0.118816 0.153437
H30   H     H_    0.372677 0.891768 0.189510 0.129010
H31   H     H_    0.481150 0.332950 0.330987 0.117205
H32   H     H_    0.482130 0.345504 0.203425 0.112933
H33   H     H_    0.953685 0.071990 0.215399 0.171412
H34   H     H_    0.967628 0.902962 0.204227 0.102412
H35   H     H_    0.958585 0.887865 0.326023 0.142666
H36   H     H_    0.894882 0.563325 0.215935 0.134999
N1    N     N_2   0.895287 0.621007 0.349805 -0.500245
N2    N     N_2   0.949681 0.077618 0.344312 -0.530324
O1    O     O_R   0.267750 0.231960 0.575440 -0.507471
O2    O     O_R   0.596230 0.579400 0.952760 -0.506919
O3    O     O_R   0.639160 0.321170 0.958690 -0.492721
O4    O     O_R   0.527290 0.186640 0.570530 -0.494412
O5    O     O_R   0.821370 0.124220 0.104400 -0.528740
O6    O     O_R   0.037020 0.167050 0.097880 -0.517935
O7    O     O_R   0.056310 0.349620 0.102920 -0.526921
O8    O     O_R   0.797790 0.564880 0.097980 -0.502300
O9    O     O_R   0.596000 0.584270 0.104310 -0.540435
O10   O     O_R   0.638950 0.325690 0.099180 -0.517658
O11   O     O_3   0.824700 0.350240 0.028120 -0.274276
O12   O     O_R   0.685950 0.784660 0.430010 -0.467552
O13   O     O_R   0.728110 0.003450 0.576380 -0.513220
O14   O     O_R   0.682980 0.789190 0.570500 -0.501035
O15   O     O_R   0.499300 0.771880 0.575540 -0.508662
O16   O     O_R   0.285350 0.030870 0.569740 -0.496715
O17   O     O_R   0.270960 0.227070 0.423890 -0.528961
O18   O     O_R   0.530270 0.182120 0.430040 -0.515050
O19   O     O_R   0.731320 0.998570 0.424830 -0.512380
O20   O     O_R   0.502510 0.767000 0.423980 -0.543833
O21   O     O_R   0.288320 0.026340 0.429250 -0.519627
O22   O     O_3   0.499990 0.000020 0.499980 -0.246382
O23   O     O_R   0.821590 0.119350 0.952850 -0.501917
O24   O     O_R   0.037230 0.162540 0.957390 -0.495897
O25   O     O_R   0.056530 0.344750 0.951370 -0.505053
O26   O     O_R   0.798000 0.560370 0.957490 -0.487740

loop_
_geom_bond_atom_site_label_1
_geom_bond_atom_site_label_2
_ccdc_geom_bond_type
C25   C31   A    
H11   N2    S    
C55   C56   S    
Cr3   O21   S    
Cr3   O20   S    
C23   C45   T    
C9    H2    S    
C32   O24   A    
C4    O15   A    
C19   C20   S    
C46   H14   S    
C7    C8    A    
C49   H16   S    
C7    C11   A    
C40   O21   A    
Cr6   O9    S    
C30   H35   S    
C26   C27   A    
C7    N1    S    
C13   C18   A    
Cr2   O12   S    
C4    O14   A    
C35   O3    A    
C2    C55   T    
C51   H28   S    
C5    C6    A    
C44   N1    S    
C39   O20   A    
C22   C38   S    
C30   N2    S    
C48   H19   S    
C44   H9    S    
C1    C2    S    
Cr4   O24   S    
Cr5   O8    S    
C8    H36   S    
C16   C53   S    
Cr2   O19   S    
C12   C42   T    
Cr1   O22   S    
C24   C29   S    
Cr6   O11   S    
C19   H1    S    
Cr3   O16   S    
Cr2   O13   S    
C44   H8    S    
Cr5   O26   S    
C47   H21   S    
C38   O10   A    
C9    C10   S    
C37   O9    A    
C26   H31   S    
C40   O17   A    
C33   O2    A    
C13   C14   A    
C35   C54   S    
C41   C43   T    
C1    O13   A    
C16   O16   A    
C46   H13   S    
C50   C51   S    
C10   H4    S    
C15   C20   S    
C54   C56   T    
Cr2   O22   S    
C17   H5    S    
C36   O6    A    
C51   C52   S    
C52   H26   S    
C24   C25   A    
C13   C36   S    
C3    C8    A    
C6    C11   A    
C29   H33   S    
C17   C21   A    
C49   H17   S    
C32   O25   A    
Cr4   O23   S    
C5    C9    S    
C29   C30   S    
C46   H15   S    
C50   H29   S    
C47   C48   S    
Cr6   O10   S    
C20   H23   S    
C17   C18   A    
C20   H12   S    
C19   H6    S    
C34   C45   S    
C47   H22   S    
C11   C39   S    
C1    O4    A    
C37   O8    A    
H7    N1    S    
C50   H30   S    
C48   C49   S    
C22   C27   A    
C22   C24   A    
C4    C12   S    
C42   C43   S    
Cr5   O11   S    
Cr4   O6    S    
C18   C50   S    
Cr1   O17   S    
Cr6   O3    S    
C25   C30   S    
Cr1   O4    S    
C46   N2    S    
C39   O12   A    
C26   C31   A    
C14   C19   S    
C28   C31   S    
C3    C5    A    
C28   O19   A    
C6    C10   S    
C29   H34   S    
Cr1   O1    S    
C49   H18   S    
C52   H25   S    
C33   C41   S    
C23   C32   S    
C38   O5    A    
C52   H24   S    
Cr4   O11   S    
C28   O18   A    
C51   H27   S    
C21   C40   S    
Cr3   O22   S    
C35   O23   A    
C33   O26   A    
C48   H20   S    
C44   H10   S    
Cr5   O7    S    
C9    H3    S    
C16   O1    A    
C15   C21   A    
C3    C37   S    
C34   C53   T    
Cr3   O15   S    
C10   C47   S    
Cr2   O14   S    
C14   C15   A    
C27   H32   S    
Cr5   O25   S    
Cr6   O2    S    
Cr4   O5    S    
Cr1   O18   S    
C36   O7    A    
