data_mof_unit_14158.cif
_audit_creation_date              2012-12-11T14:52:43-0500
_audit_creation_method            fapswitch 2.2
_symmetry_space_group_name_H-M    P1
_symmetry_Int_Tables_number       1
_space_group_crystal_system       monoclinic
_cell_length_a                    20.590342
_cell_length_b                    7.256665
_cell_length_c                    20.425103
_cell_angle_alpha                 90.0
_cell_angle_beta                  101.231619
_cell_angle_gamma                 90.0
_cell_volume                      2993.41216822

loop_
_atom_site_label
_atom_site_type_symbol
_atom_type_description
_atom_site_fract_x
_atom_site_fract_y
_atom_site_fract_z
_atom_type_partial_charge
O1    O     O_R   0.673670 0.377510 0.185950 -0.528784
O2    O     O_R   0.326330 0.622490 0.814050 -0.517497
O3    O     O_R   0.826330 0.877510 0.314050 -0.528785
O4    O     O_R   0.173670 0.122490 0.685950 -0.517497
O5    O     O_R   0.806260 0.705340 0.185590 -0.540583
O6    O     O_R   0.193740 0.294660 0.814410 -0.539955
O7    O     O_R   0.693740 0.205340 0.314410 -0.540583
O8    O     O_R   0.306260 0.794660 0.685590 -0.539956
C1    C     C_R   0.825579 0.539005 0.170806 0.741768
C2    C     C_R   0.174415 0.460993 0.829190 0.716920
C3    C     C_R   0.674421 0.039005 0.329194 0.741768
C4    C     C_R   0.325585 0.960993 0.670810 0.716919
O9    O     O_R   0.672940 0.707120 0.178050 -0.536851
O10   O     O_R   0.327060 0.292880 0.821950 -0.536290
O11   O     O_R   0.827060 0.207120 0.321950 -0.536852
O12   O     O_R   0.172940 0.792880 0.678050 -0.536291
O13   O     O_R   0.692060 0.879040 0.306460 -0.528440
O14   O     O_R   0.307940 0.120960 0.693540 -0.527647
O15   O     O_R   0.807940 0.379040 0.193540 -0.528440
O16   O     O_R   0.192060 0.620960 0.806460 -0.527647
C5    C     C_R   0.649750 0.539126 0.160001 0.723725
C6    C     C_R   0.349865 0.461187 0.840011 0.703058
C7    C     C_R   0.850250 0.039126 0.339999 0.723725
C8    C     C_R   0.150135 0.961187 0.659989 0.703058
O17   O     O_3   0.756430 0.544390 0.292140 -0.378008
O18   O     O_3   0.243570 0.455610 0.707860 -0.360325
O19   O     O_3   0.743570 0.044390 0.207860 -0.378008
O20   O     O_3   0.256430 0.955610 0.792140 -0.360325
V1    V     V_3+5 0.748810 0.818610 0.242180 1.498152
V2    V     V_3+5 0.251190 0.181390 0.757820 1.558814
V3    V     V_3+5 0.751190 0.318610 0.257820 1.498152
V4    V     V_3+5 0.248810 0.681390 0.742180 1.558814
C9    C     C_R   0.089422 0.966284 0.606931 -0.104791
C10   C     C_R   0.909842 0.038672 0.395258 -0.139092
C11   C     C_R   0.410578 0.466284 0.893069 -0.104791
C12   C     C_R   0.590158 0.538672 0.104742 -0.139092
C13   C     C_R   0.011026 0.201460 0.446456 -0.085735
C14   C     C_R   0.978212 0.843853 0.567219 -0.004147
C15   C     C_R   0.488974 0.701460 0.053544 -0.085735
C16   C     C_R   0.521788 0.343854 0.932780 -0.004147
C17   C     C_R   0.955620 0.181075 0.395420 -0.117825
C18   C     C_R   0.036082 0.857357 0.615959 -0.177477
C19   C     C_R   0.544380 0.681075 0.104580 -0.117825
C20   C     C_R   0.463918 0.357357 0.884041 -0.177478
C21   C     C_R   0.918781 0.914442 0.449919 -0.048579
C22   C     C_R   0.084463 0.070243 0.547578 -0.080304
C23   C     C_R   0.581219 0.414442 0.050081 -0.048579
C24   C     C_R   0.415537 0.570243 0.952422 -0.080303
C25   C     C_R   0.972841 0.940940 0.505536 0.060535
C26   C     C_R   0.023437 0.071887 0.499764 0.010834
C27   C     C_R   0.527159 0.440940 0.994464 0.060536
C28   C     C_R   0.476563 0.571887 0.000236 0.010833
H1    H     H_    0.039340 0.783369 0.662675 0.138786
H2    H     H_    0.947294 0.281701 0.355358 0.151916
H3    H     H_    0.460660 0.283369 0.837325 0.138786
H4    H     H_    0.552706 0.781701 0.144642 0.151916
C29   C     C_3   0.553113 0.100193 0.530653 -0.202030
C30   C     C_3   0.447058 0.899745 0.469513 -0.201322
C31   C     C_3   0.946887 0.600193 0.969347 -0.202030
C32   C     C_3   0.052942 0.399745 0.030487 -0.201322
C33   C     C_3   0.529678 0.914813 0.555703 -0.084076
C34   C     C_3   0.470490 0.085129 0.444468 -0.088491
C35   C     C_3   0.970322 0.414813 0.944297 -0.084076
C36   C     C_3   0.029510 0.585129 0.055532 -0.088491
H5    H     H_    0.596300 0.182800 0.555565 0.169458
H6    H     H_    0.403870 0.817145 0.444600 0.172355
H7    H     H_    0.903700 0.682800 0.944435 0.169458
H8    H     H_    0.096130 0.317146 0.055400 0.172355
C37   C     C_1   0.371156 0.967006 0.624983 -0.131515
C38   C     C_1   0.628907 0.032976 0.375077 -0.131157
C39   C     C_1   0.128844 0.467006 0.875017 -0.131515
C40   C     C_1   0.871093 0.532976 0.124923 -0.131157
C41   C     C_3   0.479835 0.165698 0.515546 0.011815
C42   C     C_3   0.520337 0.834242 0.484623 0.013372
C43   C     C_3   0.020165 0.665698 0.984453 0.011815
C44   C     C_3   0.979663 0.334242 0.015377 0.013372
C45   C     C_3   0.457215 0.981489 0.541060 0.020026
C46   C     C_3   0.542951 0.018456 0.459105 0.021524
C47   C     C_3   0.042785 0.481489 0.958940 0.020026
C48   C     C_3   0.957049 0.518456 0.040895 0.021525
C49   C     C_1   0.409753 0.971053 0.587025 0.005406
C50   C     C_1   0.590364 0.028912 0.413091 0.007758
C51   C     C_1   0.090246 0.471053 0.912975 0.005406
C52   C     C_1   0.909636 0.528912 0.086909 0.007758
C53   C     C_2   0.145770 0.147406 0.529979 0.754601
O21   O     O_2   0.180182 0.256560 0.567030 -0.531040
O22   O     O_R   0.163229 0.096373 0.469700 -0.630979
H9    H     H_    0.205525 0.158042 0.462673 0.326659
C54   C     C_2   0.874359 0.752239 0.446003 0.786303
O23   O     O_2   0.897766 0.596856 0.449292 -0.560458
O24   O     O_R   0.805980 0.777243 0.438801 -0.644293
H10   H     H_    0.781076 0.656241 0.436945 0.307913
C55   C     C_2   0.354230 0.647406 0.970021 0.754602
O25   O     O_2   0.319818 0.756560 0.932969 -0.531040
O26   O     O_R   0.336771 0.596373 0.030300 -0.630979
H11   H     H_    0.294475 0.658042 0.037327 0.326659
C56   C     C_2   0.625641 0.252239 0.053997 0.786303
O27   O     O_2   0.602234 0.096856 0.050707 -0.560458
O28   O     O_R   0.694020 0.277243 0.061199 -0.644293
H12   H     H_    0.718924 0.156241 0.063055 0.307913
C57   C     C_2   0.049214 0.375537 0.446151 0.880356
O29   O     O_2   0.067375 0.423537 0.395303 -0.499967
O30   O     O_R   0.062671 0.489830 0.502320 -0.622999
H13   H     H_    0.041552 0.445000 0.540254 0.280588
C58   C     C_2   0.922030 0.747121 0.587709 0.791304
O31   O     O_2   0.930143 0.593945 0.612982 -0.539563
O32   O     O_R   0.860656 0.834980 0.581016 -0.641999
H14   H     H_    0.826415 0.755924 0.597286 0.324196
C59   C     C_2   0.450786 0.875537 0.053849 0.880356
O33   O     O_2   0.432625 0.923537 0.104697 -0.499967
O34   O     O_R   0.437329 0.989830 0.997680 -0.622999
H15   H     H_    0.458448 0.945000 0.959746 0.280588
C60   C     C_2   0.577970 0.247122 0.912290 0.791304
O35   O     O_2   0.569857 0.093946 0.887018 -0.539563
O36   O     O_R   0.639344 0.334981 0.918984 -0.641998
H16   H     H_    0.673585 0.255925 0.902714 0.324196
C61   C     C_1   0.562431 0.821803 0.617064 0.431337
N1    N     N_1   0.588269 0.748509 0.665474 -0.277329
C62   C     C_1   0.437727 0.178159 0.383117 0.436664
N2    N     N_1   0.411879 0.251475 0.334716 -0.259622
C63   C     C_1   0.937569 0.321803 0.882936 0.431337
N3    N     N_1   0.911731 0.248509 0.834526 -0.277329
C64   C     C_1   0.062273 0.678159 0.116883 0.436664
N4    N     N_1   0.088121 0.751475 0.165284 -0.259622
C65   C     C_2   0.545102 0.652168 0.465133 0.792898
O37   O     O_2   0.508754 0.553458 0.425556 -0.562385
O38   O     O_R   0.610241 0.598828 0.490908 -0.652458
H17   H     H_    0.621296 0.473840 0.473762 0.294670
C66   C     C_2   0.455110 0.347816 0.535039 0.791671
O39   O     O_2   0.491453 0.446368 0.574682 -0.563917
O40   O     O_R   0.390021 0.401412 0.509172 -0.648611
H18   H     H_    0.379005 0.526455 0.526302 0.301160
C67   C     C_2   0.954898 0.152168 0.034867 0.792898
O41   O     O_2   0.991246 0.053458 0.074444 -0.562385
O42   O     O_R   0.889759 0.098828 0.009092 -0.652457
H19   H     H_    0.878704 0.973840 0.026238 0.294670
C68   C     C_2   0.044890 0.847816 0.964961 0.791670
O43   O     O_2   0.008546 0.946368 0.925318 -0.563917
O44   O     O_R   0.109979 0.901412 0.990828 -0.648611
H20   H     H_    0.120995 0.026454 0.973698 0.301160

loop_
_geom_bond_atom_site_label_1
_geom_bond_atom_site_label_2
_ccdc_geom_bond_type
O17   V3    S    
C13   C57   S    
C4    C37   S    
C32   C47   S    
O1    C5    A    
C55   O25   D    
O19   V1    S    
O13   V1    S    
O12   C8    A    
O3    C7    A    
O26   H11   S    
C1    C40   S    
O22   H9    S    
O15   V3    S    
C56   O27   D    
C3    C38   S    
O42   H19   S    
C14   C25   A    
C35   C47   S    
C53   O21   D    
O7    C3    A    
C6    C11   S    
C68   O44   S    
C57   O29   D    
C9    C18   A    
O9    V1    S    
C14   C18   A    
C24   C28   A    
C59   O34   S    
C18   H1    S    
O4    C8    A    
C42   C65   S    
C35   C44   S    
O36   H16   S    
O1    V3    S    
C12   C23   A    
O2    V4    S    
C29   C41   S    
O3    V1    S    
C30   C45   S    
C31   H7    S    
C30   H6    S    
O34   H15   S    
C33   C45   S    
O2    C6    A    
O32   H14   S    
C34   C41   S    
O14   V2    S    
C45   C49   S    
C54   O24   S    
C21   C54   S    
C16   C20   A    
O5    V1    S    
C48   C52   S    
C22   C53   S    
C2    C39   S    
O11   C7    A    
C15   C28   A    
C68   O43   D    
C57   O30   S    
C9    C22   A    
C36   C48   S    
C10   C17   A    
O10   V2    S    
C11   C24   A    
C35   C63   S    
C1    O15   A    
C39   C51   T    
C53   O22   S    
C41   C66   S    
O7    V3    S    
C24   C55   S    
C33   C61   S    
C27   C28   A    
O8    V4    S    
C64   N4    T    
C43   C68   S    
C2    O16   A    
O24   H10   S    
C5    C12   S    
O18   V4    S    
C15   C19   A    
C32   C44   S    
O5    C1    A    
C58   O32   S    
C46   C50   S    
C16   C60   S    
C21   C25   A    
O8    C4    A    
C7    C10   S    
C63   N3    T    
O9    C5    A    
C10   C21   A    
C62   N2    T    
O11   V3    S    
C11   C20   A    
C34   C62   S    
C40   C52   T    
C30   C34   S    
O6    V2    S    
C65   O37   D    
C44   C67   S    
O40   H18   S    
C36   C64   S    
C31   C43   S    
C30   C42   S    
C67   O42   S    
C60   O35   D    
O16   V4    S    
C3    O13   A    
C56   O28   S    
C29   C46   S    
C34   C46   S    
C44   C48   S    
C29   H5    S    
C31   C48   S    
O6    C2    A    
C23   C27   A    
O44   H20   S    
C29   C33   S    
C33   C42   S    
O12   V4    S    
C16   C27   A    
C58   O31   D    
C22   C26   A    
C31   C35   S    
C8    C9    S    
C23   C56   S    
O28   H12   S    
C32   C36   S    
O10   C6    A    
C14   C58   S    
O20   V2    S    
C66   O39   D    
C59   O33   D    
C47   C51   S    
C13   C26   A    
C20   H3    S    
C67   O41   D    
C36   C43   S    
C13   C17   A    
C38   C50   T    
C17   H2    S    
C37   C49   T    
C19   H4    S    
C15   C59   S    
C32   H8    S    
C55   O26   S    
C25   C26   A    
C42   C46   S    
C4    O14   A    
O30   H13   S    
C65   O38   S    
C41   C45   S    
C12   C19   A    
C60   O36   S    
C54   O23   D    
C61   N1    T    
C43   C47   S    
O4    V2    S    
O38   H17   S    
C66   O40   S    
