data_mof_unit_10730.cif
_audit_creation_date              2012-12-10T17:44:38-0500
_audit_creation_method            fapswitch 2.2
_symmetry_space_group_name_H-M    P1
_symmetry_Int_Tables_number       1
_space_group_crystal_system       triclinic
_cell_length_a                    9.910381
_cell_length_b                    10.675405
_cell_length_c                    15.432331
_cell_angle_alpha                 92.228961
_cell_angle_beta                  67.717711
_cell_angle_gamma                 90.690096
_cell_volume                      1509.63128606

loop_
_atom_site_label
_atom_site_type_symbol
_atom_type_description
_atom_site_fract_x
_atom_site_fract_y
_atom_site_fract_z
_atom_type_partial_charge
C1    C     C_R   0.503590 0.739073 0.495061 0.867653
C2    C     C_R   0.745682 0.494904 0.026245 0.106907
C3    C     C_R   0.606826 0.444440 0.078895 0.126179
C4    C     C_R   0.408685 0.499514 0.676141 0.864740
C5    C     C_R   0.838562 0.536937 0.070668 -0.295458
C6    C     C_R   0.792227 0.536783 0.168406 0.535338
C7    C     C_R   0.563234 0.442316 0.176288 -0.344416
C8    C     C_R   0.407160 0.858847 0.361297 -0.249618
C9    C     C_R   0.338504 0.918357 0.310492 -0.222934
C10   C     C_R   0.324139 0.048474 0.317173 0.590296
C11   C     C_R   0.389859 0.118927 0.368426 -0.291065
C12   C     C_R   0.433565 0.440931 0.903720 0.066008
C13   C     C_R   0.450744 0.059842 0.425893 0.030688
C14   C     C_R   0.456098 0.928313 0.423864 0.105899
C15   C     C_R   0.512071 0.870539 0.484121 -0.063782
C16   C     C_R   0.502275 0.260223 0.494748 0.873179
C17   C     C_R   0.572382 0.939193 0.538876 -0.210024
C18   C     C_R   0.570415 0.066876 0.539333 -0.200071
C19   C     C_R   0.506882 0.127147 0.485737 -0.076314
C20   C     C_R   0.790986 0.665671 0.623139 -0.252726
C21   C     C_R   0.825150 0.743738 0.686128 -0.355063
C22   C     C_R   0.963986 0.739048 0.690408 0.561191
C23   C     C_R   0.302280 0.374789 0.950048 0.100128
C24   C     C_R   0.068229 0.658990 0.626932 -0.233464
C25   C     C_R   0.036808 0.578942 0.562355 0.082486
C26   C     C_R   0.893018 0.580394 0.561454 0.193323
C27   C     C_R   0.962633 0.424251 0.440385 -0.121921
C28   C     C_R   0.591714 0.499059 0.323724 0.892328
C29   C     C_R   0.105969 0.424853 0.439981 -0.110135
C30   C     C_R   0.354433 0.478347 0.776314 -0.049625
C31   C     C_R   0.651652 0.492202 0.221208 -0.167698
C32   C     C_R   0.196797 0.365229 0.909196 -0.177778
C33   C     C_R   0.224290 0.414421 0.821729 -0.202311
C34   C     C_R   0.543660 0.447450 0.941183 0.072747
C35   C     C_R   0.451112 0.499919 0.821036 -0.232829
C36   C     C_3   0.096234 0.099663 0.332007 -0.288495
C37   C     C_3   0.893301 0.850071 0.834458 -0.287482
C38   C     C_3   0.998568 0.526792 0.199794 -0.246714
C39   C     C_R   0.510101 0.409887 0.033774 0.043664
C40   C     C_R   0.381225 0.340228 0.077732 -0.260931
C41   C     C_R   0.281369 0.318461 0.034828 0.115906
C42   C     C_R   0.686827 0.488788 0.888605 -0.220630
C43   C     C_R   0.787184 0.509288 0.930378 -0.225504
H1    H     H_    0.943115 0.577909 0.030087 0.162991
H2    H     H_    0.455764 0.410334 0.219341 0.175933
H3    H     H_    0.173506 0.661870 0.630337 0.223681
H4    H     H_    0.187802 0.363869 0.390628 0.152705
H5    H     H_    0.894887 0.543447 0.888475 0.157234
H6    H     H_    0.094886 0.316670 0.942453 0.181401
H7    H     H_    0.147511 0.397389 0.787967 0.162562
H8    H     H_    0.543333 0.559847 0.787691 0.146509
H9    H     H_    0.359218 0.296562 0.143590 0.209693
H10   H     H_    0.725066 0.503777 0.814373 0.156118
H11   H     H_    0.074367 0.133679 0.405328 0.146450
H12   H     H_    0.616165 0.893944 0.584331 0.153897
H13   H     H_    0.056152 0.001978 0.331328 0.188412
H14   H     H_    0.032230 0.160191 0.305011 0.208026
H15   H     H_    0.821509 0.769250 0.865506 0.158149
H16   H     H_    0.829470 0.928896 0.824084 0.174086
H17   H     H_    0.940611 0.883659 0.885757 0.208377
H18   H     H_    0.968838 0.430862 0.226349 0.173250
H19   H     H_    0.057369 0.572604 0.240907 0.188926
H20   H     H_    0.074477 0.522696 0.125133 0.164624
H21   H     H_    0.420198 0.758424 0.351054 0.188296
H22   H     H_    0.294970 0.863320 0.266679 0.167135
H23   H     H_    0.388873 0.219231 0.363261 0.168326
H24   H     H_    0.613837 0.118955 0.584696 0.166290
H25   H     H_    0.936592 0.362486 0.391781 0.136240
H26   H     H_    0.683627 0.676222 0.624528 0.219395
H27   H     H_    0.742288 0.808368 0.730487 0.160166
I1    I     I_    0.104759 0.195131 0.100048 -0.432824
N1    N     N_R   0.856800 0.501200 0.500850 -0.103288
N2    N     N_R   0.142390 0.501280 0.500880 -0.105112
O1    O     O_R   0.385310 0.683220 0.500000 -0.636529
O2    O     O_3   0.008651 0.816059 0.749556 -0.609817
O3    O     O_3   0.873346 0.598288 0.212824 -0.597550
O4    O     O_R   0.614640 0.683250 0.500010 -0.625199
O5    O     O_R   0.319840 0.499980 0.632240 -0.628084
O6    O     O_R   0.549160 0.500000 0.632250 -0.629099
O7    O     O_R   0.385360 0.316750 0.499990 -0.617833
O8    O     O_R   0.614690 0.316780 0.500000 -0.617615
O9    O     O_R   0.450840 0.500000 0.367750 -0.638990
O10   O     O_R   0.680160 0.500020 0.367760 -0.566966
O11   O     O_3   0.245402 0.108155 0.273896 -0.615269
Zn1   Zn    Zn3+2 0.346880 0.499980 0.499990 0.928485
Zn2   Zn    Zn3+2 0.653120 0.500020 0.500010 0.955146

loop_
_geom_bond_atom_site_label_1
_geom_bond_atom_site_label_2
_ccdc_geom_bond_type
C27   C29   A    
C26   N1    A    
C34   C42   A    
C38   O3    S    
C12   C23   A    
C30   C35   A    
C29   H4    S    
C1    O1    A    
C7    H2    S    
C3    C7    A    
C42   H10   S    
C5    C6    A    
C29   N2    A    
C1    O4    A    
C18   C19   A    
C27   H25   S    
C8    C9    A    
C1    C15   S    
C43   H5    S    
C17   H12   S    
O8    Zn2   S    
C11   H23   S    
C41   I1    S    
C38   H18   S    
C6    C31   A    
C37   O2    S    
C3    C39   A    
C13   C14   A    
C28   O10   A    
C22   O2    S    
C7    C31   A    
C13   C19   A    
C28   O9    A    
C34   C39   A    
C24   C25   A    
C18   H24   S    
C4    O6    A    
C36   H14   S    
C39   C40   A    
C25   C26   A    
C40   H9    S    
C16   O7    A    
C4    O5    A    
O7    Zn1   S    
C36   H13   S    
C2    C43   A    
C17   C18   A    
C12   C35   A    
N2    Zn1   S    
C37   H16   S    
C8    H21   S    
O5    Zn1   S    
C40   C41   A    
C5    H1    S    
O4    Zn2   S    
C35   H8    S    
C22   C24   A    
C20   H26   S    
C2    C5    A    
C42   C43   A    
C12   C34   A    
C38   H20   S    
C9    C10   A    
C15   C17   A    
C8    C14   A    
C30   C33   A    
C28   C31   S    
C37   H15   S    
N1    Zn2   S    
C6    O3    S    
O9    Zn1   S    
C23   C41   A    
C21   H27   S    
C24   H3    S    
C23   C32   A    
C2    C3    A    
C33   H7    S    
C32   C33   A    
C11   C13   A    
C20   C26   A    
C36   O11   S    
C16   C19   S    
C10   O11   S    
C16   O8    A    
C25   N2    A    
O1    Zn1   S    
C9    H22   S    
C32   H6    S    
C37   H17   S    
C36   H11   S    
C10   C11   A    
O10   Zn2   S    
C20   C21   A    
C14   C15   A    
C21   C22   A    
O6    Zn2   S    
C4    C30   S    
C27   N1    A    
C38   H19   S    
