data_mof_unit_5097.cif
_audit_creation_date              2012-12-11T14:36:20-0500
_audit_creation_method            fapswitch 2.2
_symmetry_space_group_name_H-M    P1
_symmetry_Int_Tables_number       1
_space_group_crystal_system       triclinic
_cell_length_a                    13.476826
_cell_length_b                    13.494433
_cell_length_c                    27.489841
_cell_angle_alpha                 90.870699
_cell_angle_beta                  90.088705
_cell_angle_gamma                 60.065323
_cell_volume                      4331.81532127

loop_
_atom_site_label
_atom_site_type_symbol
_atom_type_description
_atom_site_fract_x
_atom_site_fract_y
_atom_site_fract_z
_atom_type_partial_charge
Br1   Br    Br    0.096968 0.388997 0.411306 -0.531171
C1    C     C_R   0.620197 0.101514 0.570200 0.543922
C2    C     C_1   0.649117 0.705741 0.658555 -0.055865
C3    C     C_3   0.090283 0.134158 0.738088 -0.101040
C4    C     C_R   0.599558 0.779759 0.568820 0.549243
C5    C     C_3   0.182132 0.060370 0.776004 -0.100431
C6    C     C_1   0.097060 0.201000 0.901825 -0.016303
C7    C     C_1   0.229595 0.138427 0.617622 -0.010625
C8    C     C_3   0.055165 0.242439 0.770006 -0.101314
C9    C     C_3   0.147445 0.168480 0.807071 0.052452
C10   C     C_3   0.144203 0.263070 0.743368 -0.098477
C11   C     C_3   0.178925 0.155077 0.712220 0.052503
C12   C     C_1   0.630857 0.732811 0.616512 -0.010811
C13   C     C_3   0.236014 0.189374 0.781134 -0.102179
C14   C     C_3   0.271236 0.081074 0.749262 -0.103752
C15   C     C_1   0.124839 0.181719 0.859572 -0.058766
C16   C     C_R   0.277722 0.121962 0.569705 0.551716
C17   C     C_1   0.201618 0.147431 0.659790 -0.056313
C18   C     C_3   0.628881 0.277361 0.740213 -0.101080
C19   C     C_3   0.554794 0.258887 0.778155 -0.099896
C20   C     C_1   0.691432 0.207527 0.902994 -0.015670
C21   C     C_1   0.635210 0.133918 0.618352 -0.013428
C22   C     C_3   0.736977 0.204698 0.771102 -0.101536
C23   C     C_3   0.699208 0.561490 0.767673 -0.101600
C24   C     C_3   0.662733 0.185952 0.808205 0.052571
C25   C     C_3   0.758408 0.095006 0.743349 -0.098971
C26   C     C_3   0.650560 0.167819 0.713232 0.052595
C27   C     C_3   0.684405 0.076479 0.781173 -0.102218
C28   C     C_R   0.622345 0.099155 0.431134 0.544176
C29   C     C_3   0.576281 0.149075 0.750311 -0.103399
C30   C     C_1   0.674487 0.196491 0.860736 -0.058554
C31   C     C_1   0.643500 0.152958 0.660681 -0.056961
C32   C     C_R   0.735690 0.705905 0.359740 -0.117631
C33   C     C_R   0.747124 0.688361 0.309391 0.018726
C34   C     C_3   0.679279 0.654862 0.805574 0.052440
C35   C     C_R   0.759462 0.668485 0.207472 0.017387
C36   C     C_R   0.846160 0.673700 0.233627 -0.138896
C37   C     C_R   0.839973 0.683710 0.284349 -0.133477
C38   C     C_R   0.769243 0.647911 0.157227 -0.138417
C39   C     C_R   0.683027 0.638668 0.132420 -0.004814
C40   C     C_R   0.602543 0.774880 0.430629 0.550256
C41   C     C_R   0.560824 0.695081 0.358059 -0.128994
C42   C     C_R   0.567696 0.683716 0.307908 0.013746
C43   C     C_R   0.660030 0.682391 0.283272 0.064860
C44   C     C_R   0.479596 0.681159 0.281939 -0.134793
C45   C     C_3   0.589830 0.649013 0.740853 -0.099211
C46   C     C_R   0.481481 0.679894 0.231457 -0.135343
C47   C     C_R   0.573897 0.676360 0.206685 0.014121
C48   C     C_R   0.664261 0.676412 0.232462 0.066615
C49   C     C_R   0.581073 0.664420 0.156603 -0.129392
C50   C     C_R   0.638809 0.716078 0.383556 0.001528
C51   C     C_R   0.226599 0.051871 0.357155 -0.163630
C52   C     C_R   0.275463 0.121541 0.431820 0.575765
C53   C     C_R   0.197862 0.066850 0.308079 0.003654
C54   C     C_R   0.156685 0.094743 0.207626 0.019195
C55   C     C_R   0.194838 0.987651 0.228484 -0.123829
C56   C     C_3   0.663061 0.684156 0.710884 0.052634
C57   C     C_R   0.216595 0.973522 0.278329 -0.117101
C58   C     C_R   0.132864 0.110919 0.157808 -0.134345
C59   C     C_R   0.095416 0.218804 0.137740 -0.001311
C60   C     C_R   0.152081 0.256946 0.367993 0.148197
C61   C     C_R   0.132226 0.271529 0.317802 0.030796
C62   C     C_R   0.156063 0.175704 0.287839 0.033807
C63   C     C_R   0.094550 0.378344 0.296388 -0.100786
C64   C     C_3   0.772319 0.597023 0.736926 -0.100363
C65   C     C_R   0.083096 0.389432 0.246290 -0.138275
C66   C     C_R   0.103708 0.295776 0.216843 0.010539
C67   C     C_3   0.570112 0.741930 0.779473 -0.102193
C68   C     C_R   0.138885 0.188631 0.237427 0.064692
C69   C     C_R   0.085755 0.309152 0.167185 -0.124224
C70   C     C_R   0.210769 0.145017 0.386424 0.010855
C71   C     C_R   0.569234 0.238278 0.363562 -0.127857
C72   C     C_R   0.575121 0.256869 0.313916 0.015789
C73   C     C_R   0.584884 0.288973 0.213498 0.013724
C74   C     C_R   0.508204 0.380124 0.243644 -0.125253
C75   C     C_R   0.502417 0.363826 0.293476 -0.122631
C76   C     C_3   0.752630 0.689984 0.775676 -0.100277
C77   C     C_R   0.596762 0.305327 0.164152 -0.134308
C78   C     C_3   0.643146 0.777541 0.748776 -0.103536
C79   C     C_R   0.677998 0.213732 0.135344 -0.004925
C80   C     C_R   0.726070 0.042796 0.353332 -0.125620
C81   C     C_R   0.729439 0.058303 0.303838 0.011043
C82   C     C_R   0.653352 0.165329 0.283819 0.062073
C83   C     C_R   0.805327 0.966822 0.273912 -0.123856
C84   C     C_R   0.805303 0.980642 0.223979 -0.124795
C85   C     C_R   0.731979 0.087266 0.203783 0.013755
C86   C     C_R   0.655949 0.180427 0.233634 0.062660
C87   C     C_R   0.739006 0.103755 0.154594 -0.127692
C88   C     C_1   0.697191 0.607859 0.900145 -0.016491
C89   C     C_1   0.688205 0.633849 0.857961 -0.059066
C90   C     C_R   0.643003 0.130319 0.383041 -0.001893
C91   C     C_R   0.049345 0.236093 0.949773 0.545540
C92   C     C_R   0.711621 0.562860 0.948167 0.544832
C93   C     C_R   0.722176 0.225343 0.950931 0.544435
C94   C     C_R   0.046496 0.246536 0.088974 0.546383
C95   C     C_R   0.707211 0.576005 0.086172 0.546019
C96   C     C_R   0.718191 0.234337 0.089327 0.547782
Cr1   Cr    Cr6+3 0.417550 0.169090 0.500530 1.065271
Cr2   Cr    Cr6+3 0.669180 0.913420 0.499920 1.037847
Cr3   Cr    Cr6+3 0.413260 0.917540 0.499520 1.026977
Cr4   Cr    Cr6+3 0.909170 0.177380 0.020380 1.022004
Cr5   Cr    Cr6+3 0.912710 0.429210 0.018220 1.020132
Cr6   Cr    Cr6+3 0.657170 0.432570 0.019030 1.020205
H1    H     H_    0.819204 0.707260 0.790595 0.104483
H2    H     H_    0.803452 0.227555 0.780236 0.099669
H3    H     H_    0.847124 0.630319 0.138384 0.115970
H4    H     H_    0.855207 0.537224 0.718969 0.105944
H5    H     H_    0.797066 0.720336 0.379583 0.136012
H6    H     H_    0.918884 0.669414 0.214883 0.091724
H7    H     H_    0.907668 0.687729 0.303982 0.102727
H8    H     H_    0.512347 0.661207 0.137380 0.128786
H9    H     H_    0.412303 0.678632 0.211822 0.093057
H10   H     H_    0.408180 0.682541 0.300650 0.095480
H11   H     H_    0.487193 0.700215 0.376445 0.130407
H12   H     H_    0.296165 0.211641 0.799251 0.103462
H13   H     H_    0.140114 0.041196 0.135087 0.115288
H14   H     H_    0.268581 0.966171 0.371642 0.134063
H15   H     H_    0.208948 0.914729 0.206224 0.101656
H16   H     H_    0.620007 0.866772 0.740406 0.100287
H17   H     H_    0.248174 0.889651 0.293642 0.106117
H18   H     H_    0.055583 0.393298 0.152216 0.131544
H19   H     H_    0.057600 0.471583 0.230504 0.104997
H20   H     H_    0.077708 0.453280 0.317616 0.162552
H21   H     H_    0.549092 0.390369 0.149225 0.124976
H22   H     H_    0.505091 0.305911 0.386524 0.130207
H23   H     H_    0.128146 0.346556 0.729426 0.106301
H24   H     H_    0.453128 0.463936 0.228725 0.105284
H25   H     H_    0.441973 0.434999 0.316062 0.111888
H26   H     H_    0.800221 0.032439 0.132191 0.128221
H27   H     H_    0.487164 0.801728 0.797392 0.103424
H28   H     H_    0.783009 0.958889 0.367890 0.133838
H29   H     H_    0.523211 0.631710 0.726001 0.105410
H30   H     H_    0.722257 0.472281 0.776035 0.098883
H31   H     H_    0.198148 0.976969 0.790020 0.104376
H32   H     H_    0.030128 0.111964 0.719929 0.104615
H33   H     H_    0.360505 0.014429 0.740123 0.100384
H34   H     H_    0.965912 0.309173 0.779114 0.099612
H35   H     H_    0.864741 0.908919 0.201346 0.103286
H36   H     H_    0.864365 0.884607 0.289142 0.104719
H37   H     H_    0.470991 0.325903 0.793066 0.104724
H38   H     H_    0.606546 0.359676 0.722909 0.103928
H39   H     H_    0.509888 0.126125 0.741144 0.100359
H40   H     H_    0.706807 0.994105 0.798439 0.103210
H41   H     H_    0.842281 0.027959 0.728499 0.105520
O1    O     O_R   0.301710 0.195650 0.554160 -0.494777
O2    O     O_R   0.635520 0.542770 0.964420 -0.507837
O3    O     O_R   0.665950 0.325030 0.970100 -0.494833
O4    O     O_R   0.522390 0.158990 0.550460 -0.496383
O5    O     O_R   0.816620 0.158530 0.074540 -0.519228
O6    O     O_R   0.004460 0.188870 0.069750 -0.497570
O7    O     O_R   0.025800 0.341780 0.072300 -0.523091
O8    O     O_R   0.807650 0.528950 0.067500 -0.502399
O9    O     O_R   0.633420 0.550490 0.071810 -0.523877
O10   O     O_R   0.664000 0.332180 0.069640 -0.501541
O11   O     O_3   0.826350 0.346390 0.019210 -0.243820
O12   O     O_R   0.658900 0.818120 0.449760 -0.498402
O13   O     O_R   0.694390 0.003530 0.554040 -0.504634
O14   O     O_R   0.657700 0.819660 0.549320 -0.490867
O15   O     O_R   0.501930 0.803280 0.552920 -0.506765
O16   O     O_R   0.318170 0.023580 0.549580 -0.496840
O17   O     O_R   0.303010 0.193990 0.446760 -0.455738
O18   O     O_R   0.523600 0.157450 0.450900 -0.496657
O19   O     O_R   0.695690 0.001860 0.446640 -0.520993
O20   O     O_R   0.503220 0.801620 0.445520 -0.523727
O21   O     O_R   0.319370 0.022040 0.450020 -0.514133
O22   O     O_3   0.499990 0.000010 0.499990 -0.257061
O23   O     O_R   0.818720 0.150820 0.967160 -0.508576
O24   O     O_R   0.006410 0.181720 0.970200 -0.495484
O25   O     O_R   0.027890 0.334070 0.964920 -0.506434
O26   O     O_R   0.809600 0.521790 0.967960 -0.495592

loop_
_geom_bond_atom_site_label_1
_geom_bond_atom_site_label_2
_ccdc_geom_bond_type
C23   H30   S    
C24   C30   S    
C38   H3    S    
C82   C86   A    
C54   C55   A    
Cr5   O26   S    
C54   C58   A    
C79   C96   S    
C56   C78   S    
C18   C22   S    
C18   C19   S    
Cr3   O15   S    
C74   C75   A    
C80   C81   A    
Cr6   O3    S    
C19   C29   S    
C84   C85   A    
C24   C27   S    
C20   C30   T    
C25   C26   S    
C36   C37   A    
C21   C31   T    
C35   C36   A    
C45   H29   S    
C10   C13   S    
C85   C87   A    
C80   H28   S    
C19   C24   S    
Cr4   O11   S    
C1    O4    A    
C46   H9    S    
C95   O8    A    
Cr4   O6    S    
Cr3   O22   S    
C22   C25   S    
Cr4   O23   S    
C16   O16   A    
C28   O19   A    
C53   C62   A    
C61   C63   A    
C5    C14   S    
C8    H34   S    
Cr6   O9    S    
C62   C68   A    
C83   H36   S    
C55   C57   A    
C58   H13   S    
C4    O15   A    
C78   H16   S    
C1    C21   S    
C65   H19   S    
C73   C86   A    
C3    C11   S    
C77   H21   S    
C8    C9    S    
C4    C12   S    
C2    C12   T    
C41   C50   A    
C40   O12   A    
C51   H14   S    
C60   C70   A    
C67   C78   S    
C47   C49   A    
C65   C66   A    
C58   C59   A    
C18   H38   S    
C26   C29   S    
C32   H5    S    
C55   H15   S    
C87   H26   S    
C39   C95   S    
C25   H41   S    
Cr1   O18   S    
C51   C53   A    
C44   C46   A    
C92   O26   A    
C23   C34   S    
C64   C76   S    
C73   C74   A    
C46   C47   A    
C10   H23   S    
C33   C43   A    
C83   C84   A    
C3    C5    S    
C9    C13   S    
C38   C39   A    
C27   H40   S    
C71   C90   A    
C85   C86   A    
C14   H33   S    
C34   C76   S    
C43   C48   A    
C7    C17   T    
Cr3   O21   S    
C66   C68   A    
C63   C65   A    
Cr4   O24   S    
C16   O1    A    
C42   C43   A    
C59   C94   S    
C45   C67   S    
C61   C62   A    
C8    C10   S    
Cr3   O16   S    
Cr6   O10   S    
C95   O9    A    
C11   C14   S    
C59   C69   A    
C91   O25   A    
Cr2   O12   S    
C57   H17   S    
C32   C33   A    
C76   C78   S    
C92   O2    A    
Cr3   O20   S    
C94   O6    A    
C54   C68   A    
C96   O10   A    
C67   H27   S    
C42   C44   A    
Cr1   O22   S    
C23   C64   S    
C3    H32   S    
Cr2   O19   S    
C2    C56   S    
Cr6   O11   S    
C6    C15   T    
C81   C82   A    
C81   C83   A    
Cr2   O13   S    
C45   C56   S    
C73   C77   A    
C75   H25   S    
C72   C75   A    
C41   H11   S    
Cr2   O14   S    
C37   H7    S    
C41   C42   A    
C52   C70   S    
C28   C90   S    
Cr1   O17   S    
C18   C26   S    
C53   C57   A    
C52   O21   A    
C93   O3    A    
C47   C48   A    
C26   C31   S    
C33   C37   A    
C36   H6    S    
C28   O18   A    
C35   C38   A    
C56   C64   S    
C71   C72   A    
Br1   C60   S    
C93   O23   A    
C5    C9    S    
C10   C11   S    
C72   C82   A    
Cr1   O1    S    
C32   C50   A    
C63   H20   S    
Cr5   O7    S    
C25   C27   S    
C7    C16   S    
C29   H39   S    
C71   H22   S    
C66   C69   A    
C23   C45   S    
C19   H37   S    
C27   C29   S    
C3    C8    S    
C79   C87   A    
C51   C70   A    
C9    C15   S    
C69   H18   S    
C52   O17   A    
Cr1   O4    S    
C34   C67   S    
Cr5   O25   S    
C1    O13   A    
C39   C49   A    
C6    C91   S    
Cr5   O11   S    
Cr4   O5    S    
C49   H8    S    
C40   C50   S    
C77   C79   A    
C22   C24   S    
Cr2   O22   S    
C88   C92   S    
C60   C61   A    
C91   O24   A    
C80   C90   A    
C34   C89   S    
C44   H10   S    
C94   O7    A    
C5    H31   S    
C4    O14   A    
C20   C93   S    
C40   O20   A    
C11   C17   S    
C96   O5    A    
C13   C14   S    
C76   H1    S    
C88   C89   T    
C84   H35   S    
C64   H4    S    
C35   C48   A    
C13   H12   S    
Cr6   O2    S    
Cr5   O8    S    
C74   H24   S    
C22   H2    S    
