data_mof_unit_37032.cif
_audit_creation_date              2012-12-10T18:09:46-0500
_audit_creation_method            fapswitch 2.2
_symmetry_space_group_name_H-M    P1
_symmetry_Int_Tables_number       1
_space_group_crystal_system       triclinic
_cell_length_a                    10.644213
_cell_length_b                    12.593991
_cell_length_c                    13.073583
_cell_angle_alpha                 82.34502
_cell_angle_beta                  90.704851
_cell_angle_gamma                 102.499704
_cell_volume                      1695.51833997

loop_
_atom_site_label
_atom_site_type_symbol
_atom_type_description
_atom_site_fract_x
_atom_site_fract_y
_atom_site_fract_z
_atom_type_partial_charge
C1    C     C_R   0.488762 0.438907 0.691460 0.877792
C2    C     C_3   0.120221 0.492357 0.514753 0.115480
C3    C     C_3   0.079940 0.528079 0.402956 -0.537092
C4    C     C_3   0.093146 0.580808 0.581885 -0.105071
C5    C     C_R   0.716672 0.692595 0.074906 0.102914
C6    C     C_R   0.552837 0.596607 0.201142 -0.100989
C7    C     C_R   0.390919 0.303939 0.837881 -0.202072
C8    C     C_R   0.364390 0.276470 0.942883 -0.148313
C9    C     C_R   0.421039 0.348064 0.011020 -0.180666
C10   C     C_R   0.510461 0.446793 0.974907 0.086475
C11   C     C_R   0.551691 0.464714 0.871460 0.079274
C12   C     C_R   0.740972 0.498461 0.505760 0.953961
C13   C     C_R   0.559394 0.528415 0.038106 0.022180
C14   C     C_R   0.668793 0.614303 0.006110 0.114888
C15   C     C_R   0.724371 0.617213 0.907665 0.043971
C16   C     C_R   0.662488 0.545933 0.840524 -0.215196
C17   C     C_R   0.498576 0.527048 0.131930 -0.248347
C18   C     C_R   0.659120 0.681246 0.172241 -0.187201
C19   C     C_R   0.481429 0.399735 0.801507 -0.054891
C20   C     C_R   0.320355 0.089105 0.344184 0.011140
C21   C     C_R   0.654061 0.800275 0.628870 0.016691
C22   C     C_R   0.685612 0.904979 0.657296 -0.255989
C23   C     C_R   0.517297 0.561010 0.308720 0.879579
C24   C     C_R   0.626499 0.986006 0.608639 -0.193747
C25   C     C_R   0.535726 0.962550 0.530255 0.030791
C26   C     C_R   0.507377 0.854412 0.504289 0.238488
C27   C     C_R   0.472706 0.041614 0.476671 -0.051347
C28   C     C_R   0.383067 0.011296 0.398099 0.172681
C29   C     C_R   0.357774 0.903927 0.374628 -0.282332
C30   C     C_R   0.419516 0.827423 0.426445 -0.234125
C31   C     C_R   0.495350 0.150377 0.497715 -0.070388
C32   C     C_R   0.347589 0.195301 0.370128 -0.024671
C33   C     C_R   0.258033 0.496438 0.507811 0.838363
C34   C     C_3   0.893069 0.375394 0.552817 -0.220895
C35   C     C_3   0.039642 0.372387 0.557357 0.181704
C36   C     C_3   0.935493 0.528135 0.400810 -0.114529
C37   C     C_3   0.947749 0.575463 0.585798 -0.418890
C38   C     C_3   0.876873 0.495399 0.512433 0.078812
H1    H     H_    0.848034 0.323301 0.494018 0.101211
H2    H     H_    0.139836 0.664259 0.543037 0.171327
H3    H     H_    0.137891 0.611226 0.373704 0.173215
H4    H     H_    0.701838 0.735313 0.227219 0.177294
H5    H     H_    0.410198 0.468734 0.155503 0.141230
H6    H     H_    0.338131 0.252053 0.784944 0.153976
H7    H     H_    0.396247 0.322748 0.091738 0.127957
H8    H     H_    0.295823 0.201728 0.971212 0.140468
H9    H     H_    0.705260 0.552104 0.764715 0.178405
H10   H     H_    0.301778 0.257546 0.330526 0.128470
H11   H     H_    0.290092 0.878017 0.315572 0.171297
H12   H     H_    0.561552 0.181089 0.555212 0.137139
H13   H     H_    0.699591 0.736763 0.665411 0.123712
H14   H     H_    0.654166 0.065628 0.633826 0.129657
H15   H     H_    0.755568 0.923346 0.716789 0.145880
H16   H     H_    0.396991 0.747575 0.403154 0.216455
H17   H     H_    0.887680 0.464964 0.352363 0.156192
H18   H     H_    0.102061 0.473839 0.348346 0.169859
H19   H     H_    0.931171 0.659718 0.564124 0.167066
H20   H     H_    0.909159 0.549047 0.665808 0.212681
N1    N     N_R   0.433240 0.222190 0.444680 -0.110042
N2    N     N_R   0.566070 0.776970 0.554790 -0.129041
O1    O     O_R   0.468120 0.366740 0.627160 -0.602856
O2    O     O_R   0.510770 0.544830 0.662520 -0.634887
O3    O     O_R   0.663880 0.410950 0.482330 -0.632725
O4    O     O_R   0.706530 0.589040 0.517700 -0.625564
O5    O     O_R   0.489230 0.455170 0.337480 -0.611737
O6    O     O_R   0.531880 0.633260 0.372840 -0.631778
O7    O     O_R   0.293470 0.410960 0.482300 -0.595843
O8    O     O_R   0.336120 0.589050 0.517670 -0.660246
Zn1   Zn    Zn3+2 0.471520 0.381090 0.476390 0.949575
Zn2   Zn    Zn3+2 0.528480 0.618910 0.523610 0.917238
N3    N     N_3   0.912339 0.634448 0.352767 -0.453722
H21   H     H_    0.940410 0.646051 0.274952 0.192435
H22   H     H_    0.969343 0.698326 0.386959 0.202981
N4    N     N_3   0.843744 0.690479 0.874671 -0.494449
H23   H     H_    0.908046 0.643910 0.855343 0.191837
H24   H     H_    0.827981 0.741673 0.808399 0.168038
N5    N     N_3   0.824047 0.783000 0.050817 -0.468913
H25   H     H_    0.907025 0.753161 0.042158 0.206904
H26   H     H_    0.805480 0.831331 0.983347 0.206874
C39   C     C_2   0.818155 0.319305 0.651037 0.375087
H27   H     H_    0.814731 0.232872 0.675091 0.073123
O9    O     O_2   0.761990 0.368073 0.703567 -0.622981
N6    N     N_3   0.230729 0.060475 0.263901 -0.472694
H28   H     H_    0.283919 0.050621 0.200458 0.181254
H29   H     H_    0.185241 0.124974 0.239418 0.173166
N7    N     N_3   0.077669 0.336665 0.663374 -0.467000
H30   H     H_    0.177611 0.347820 0.668174 0.188367
H31   H     H_    0.045782 0.378716 0.717836 0.226942
N8    N     N_3   0.062865 0.290364 0.493046 -0.423557
H32   H     H_    0.025944 0.302943 0.419089 0.161054
H33   H     H_    0.014665 0.212191 0.526467 0.185265
N9    N     N_3   0.143541 0.569240 0.687065 -0.485343
H34   H     H_    0.243906 0.586221 0.684778 0.215556
H35   H     H_    0.119463 0.629655 0.726027 0.185754

loop_
_geom_bond_atom_site_label_1
_geom_bond_atom_site_label_2
_ccdc_geom_bond_type
C2    C35   S    
C24   H14   S    
C9    H7    S    
C1    O2    A    
C7    C8    A    
C29   H11   S    
N5    H25   S    
C30   H16   S    
C11   C19   A    
C29   C30   A    
N4    H24   S    
C23   O6    A    
C28   C29   A    
C18   H4    S    
C12   O4    A    
C35   N7    S    
N7    H31   S    
C15   C16   A    
O2    Zn2   S    
C34   C35   S    
C3    H18   S    
C31   N1    A    
C34   C39   S    
C4    H2    S    
C8    C9    A    
O4    Zn2   S    
N8    H33   S    
C9    C10   A    
C37   H20   S    
C36   N3    S    
C21   C22   A    
C32   H10   S    
C16   H9    S    
C22   H15   S    
N5    H26   S    
C6    C18   A    
C1    C19   S    
N4    H23   S    
C27   C31   A    
C34   H1    S    
O3    Zn1   S    
C24   C25   A    
C21   N2    A    
C39   O9    D    
N3    H22   S    
C12   O3    A    
N7    H30   S    
C5    C18   A    
C20   C28   A    
C25   C26   A    
O7    Zn1   S    
C2    C4    S    
C17   H5    S    
C37   C38   S    
C11   C16   A    
N6    H28   S    
N2    Zn2   S    
N9    H35   S    
C7    H6    S    
C5    C14   A    
N1    Zn1   S    
C35   N8    S    
C2    C33   S    
N6    H29   S    
C26   C30   A    
C7    C19   A    
C22   C24   A    
C31   H12   S    
C5    N5    S    
C21   H13   S    
C33   O7    A    
C20   C32   A    
O1    Zn1   S    
C6    C17   A    
C3    H3    S    
C34   C38   S    
C39   H27   S    
C10   C13   A    
C1    O1    A    
C25   C27   A    
C13   C17   A    
C23   O5    A    
C36   C38   S    
C2    C3    S    
N3    H21   S    
C36   H17   S    
O6    Zn2   S    
C3    C36   S    
O5    Zn1   S    
C6    C23   S    
N9    H34   S    
C12   C38   S    
C8    H8    S    
C10   C11   A    
C15   N4    S    
C4    C37   S    
O8    Zn2   S    
C20   N6    S    
C27   C28   A    
C14   C15   A    
C32   N1    A    
N8    H32   S    
C13   C14   A    
C26   N2    A    
C37   H19   S    
C33   O8    A    
C4    N9    S    
