data_mof_unit_59239.cif
_audit_creation_date              2012-12-11T17:17:01-0500
_audit_creation_method            fapswitch 2.2
_symmetry_space_group_name_H-M    P1
_symmetry_Int_Tables_number       1
_space_group_crystal_system       triclinic
_cell_length_a                    6.989667
_cell_length_b                    13.370188
_cell_length_c                    14.725767
_cell_angle_alpha                 99.142981
_cell_angle_beta                  89.911501
_cell_angle_gamma                 90.193535
_cell_volume                      1358.67663627

loop_
_atom_site_label
_atom_site_type_symbol
_atom_type_description
_atom_site_fract_x
_atom_site_fract_y
_atom_site_fract_z
_atom_type_partial_charge
O1    O     O_R   0.354890 0.151580 0.148210 -0.545095
O2    O     O_R   0.645110 0.848420 0.851790 -0.545095
O3    O     O_R   0.682370 0.152980 0.336770 -0.521032
O4    O     O_R   0.317630 0.847020 0.663230 -0.521032
O5    O     O_R   0.854980 0.348430 0.351800 -0.532241
O6    O     O_R   0.145020 0.651570 0.648200 -0.532240
C1    C     C_R   0.513645 0.131209 0.365653 0.846144
C2    C     C_R   0.486355 0.868791 0.634347 0.846144
O7    O     O_R   0.684450 0.139580 0.148000 -0.538236
O8    O     O_R   0.315550 0.860420 0.852000 -0.538236
O9    O     O_R   0.857080 0.334940 0.161680 -0.540969
O10   O     O_R   0.142920 0.665060 0.838320 -0.540968
C3    C     C_R   0.515568 0.112814 0.114137 0.720364
C4    C     C_R   0.484432 0.887186 0.885863 0.720364
O11   O     O_R   0.352790 0.165070 0.338330 -0.556611
O12   O     O_R   0.647210 0.834930 0.661670 -0.556610
O13   O     O_3   0.522170 0.314120 0.254710 -0.369672
O14   O     O_3   0.477830 0.685880 0.745290 -0.369672
V1    V     V_3+5 0.796120 0.238110 0.249130 1.549946
V2    V     V_3+5 0.203880 0.761890 0.750870 1.549946
O15   O     O_R   0.186930 0.347040 0.163240 -0.536308
O16   O     O_R   0.813070 0.652960 0.836760 -0.536307
C5    C     C_R   0.018695 0.367062 0.132975 0.801679
C6    C     C_R   0.981305 0.632938 0.867025 0.801678
O17   O     O_R   0.184850 0.360440 0.352010 -0.537148
O18   O     O_R   0.815150 0.639560 0.647990 -0.537148
C7    C     C_R   0.015919 0.387238 0.385834 0.762187
C8    C     C_R   0.984081 0.612762 0.614166 0.762187
V3    V     V_3+5 0.296410 0.261900 0.250880 1.513058
V4    V     V_3+5 0.703590 0.738100 0.749120 1.513058
O19   O     O_3   0.020490 0.185890 0.245290 -0.383304
O20   O     O_3   0.979510 0.814110 0.754710 -0.383304
C9    C     C_1   0.005249 0.466886 0.466301 -0.095756
C10   C     C_1   0.994750 0.533114 0.533699 -0.095757
C11   C     C_3   0.117855 0.578086 0.024372 0.077968
C12   C     C_3   0.882145 0.421913 0.975627 0.077968
C13   C     C_3   0.950423 0.548870 0.082967 0.623112
C14   C     C_3   0.049576 0.451130 0.917033 0.623112
C15   C     C_3   0.010067 0.435847 0.062070 -0.287373
C16   C     C_3   0.989933 0.564153 0.937930 -0.287373
C17   C     C_3   0.177125 0.465784 0.003403 0.035233
C18   C     C_3   0.822875 0.534216 0.996597 0.035232
C19   C     C_3   0.326587 0.007501 0.465979 -0.065846
C20   C     C_3   0.673413 0.992499 0.534021 -0.065847
C21   C     C_3   0.438643 0.907973 0.461793 0.573829
C22   C     C_3   0.561357 0.092027 0.538207 0.573829
C23   C     C_3   0.494533 0.938553 0.564242 -0.478021
C24   C     C_3   0.505467 0.061447 0.435758 -0.478021
C25   C     C_3   0.380573 0.038333 0.567971 0.582700
C26   C     C_3   0.619426 0.961667 0.432029 0.582700
C27   C     C_1   0.504973 0.033143 0.033690 -0.135229
C28   C     C_1   0.495026 0.966857 0.966310 -0.135229
F1    F     F_    0.898417 0.600410 0.168353 -0.629823
F2    F     F_    0.101583 0.399590 0.831647 -0.629823
N1    N     N_3   0.232013 0.668316 0.054684 -0.597641
H1    H     H_    0.311996 0.656124 0.111684 0.280014
H2    H     H_    0.323878 0.679173 0.001285 0.238116
N2    N     N_3   0.767987 0.331684 0.945316 -0.597641
H3    H     H_    0.688004 0.343876 0.888316 0.280014
H4    H     H_    0.676122 0.320827 0.998715 0.238117
N3    N     N_3   0.365643 0.421621 0.001812 -0.625487
H5    H     H_    0.424083 0.430553 0.938387 0.283992
H6    H     H_    0.346403 0.343612 0.998672 0.236781
N4    N     N_3   0.634356 0.578379 0.998188 -0.625488
H7    H     H_    0.575917 0.569447 0.061613 0.283992
H8    H     H_    0.653597 0.656388 0.001328 0.236780
F3    F     F_    0.373453 0.813609 0.421440 -0.607753
F4    F     F_    0.626546 0.186391 0.578560 -0.607753
N5    N     N_3   0.135183 0.013429 0.428526 -0.484780
H9    H     H_    0.144454 0.992784 0.357161 0.277896
H10   H     H_    0.092565 0.089214 0.441700 0.270689
N6    N     N_3   0.864817 0.986570 0.571473 -0.484780
H11   H     H_    0.855546 0.007215 0.642839 0.277896
H12   H     H_    0.907435 0.910786 0.558300 0.270689
F5    F     F_    0.256737 0.079034 0.637270 -0.605384
F6    F     F_    0.743263 0.920966 0.362730 -0.605384

loop_
_geom_bond_atom_site_label_1
_geom_bond_atom_site_label_2
_ccdc_geom_bond_type
C14   C16   S    
N1    H1    S    
O6    C8    A    
O13   V3    S    
C12   C18   S    
C17   N3    S    
O4    C2    A    
V1    O19   S    
C23   C25   S    
C7    C9    S    
C22   C25   S    
O9    V1    S    
C11   C13   S    
O3    C1    A    
N2    H4    S    
N5    H10   S    
C13   C18   S    
N3    H6    S    
O7    C3    A    
O13   V1    S    
C3    C27   S    
O7    V1    S    
C4    C28   S    
O8    V2    S    
C21   F3    S    
C25   F5    S    
O3    V1    S    
O14   V4    S    
C19   C24   S    
C20   C23   S    
C13   F1    S    
C24   C26   S    
C8    C10   S    
C2    O12   A    
O5    C7    A    
N3    H5    S    
C11   C17   S    
C20   C22   S    
O11   V3    S    
C21   C23   S    
O15   C5    A    
O17   V3    S    
C22   C24   S    
C12   N2    S    
C11   N1    S    
C27   C28   T    
C14   C17   S    
N6    H12   S    
O8    C4    A    
C19   C25   S    
C1    O11   A    
N2    H3    S    
O15   V3    S    
N4    H8    S    
C22   F4    S    
C26   F6    S    
C16   C18   S    
C14   F2    S    
O10   V2    S    
O1    V3    S    
C9    C10   T    
C19   C21   S    
O18   V4    S    
N1    H2    S    
O16   C6    A    
O1    C3    A    
C18   N4    S    
V2    O20   S    
C20   C26   S    
O16   V4    S    
C12   C15   S    
N6    H11   S    
O5    V1    S    
O17   C7    A    
O6    V2    S    
O10   C6    A    
O18   C8    A    
O2    V4    S    
C1    C24   S    
C12   C14   S    
C11   C16   S    
C2    C23   S    
V3    O19   S    
N4    H7    S    
V4    O20   S    
C21   C26   S    
C5    C15   S    
O9    C5    A    
C6    C16   S    
C20   N6    S    
O14   V2    S    
N5    H9    S    
O2    C4    A    
O4    V2    S    
C15   C17   S    
C13   C15   S    
C19   N5    S    
O12   V4    S    
