data_mof_unit_40832.cif
_audit_creation_date              2012-10-26T20:50:49-0400
_audit_creation_method            fapswitch 2.2
_symmetry_space_group_name_H-M    P1
_symmetry_Int_Tables_number       1
_space_group_crystal_system       triclinic
_cell_length_a                    11.056387
_cell_length_b                    10.832467
_cell_length_c                    9.544628
_cell_angle_alpha                 90.029509
_cell_angle_beta                  102.587164
_cell_angle_gamma                 90.205669
_cell_volume                      1115.65764327

loop_
_atom_site_label
_atom_site_type_symbol
_atom_type_description
_atom_site_fract_x
_atom_site_fract_y
_atom_site_fract_z
_atom_type_partial_charge
C1    C     C_R   0.501420 0.262351 0.500309 0.547719
C2    C     C_R   0.399548 0.460514 0.048993 -0.022009
C3    C     C_R   0.399346 0.461000 0.900292 -0.033577
C4    C     C_R   0.262830 0.499488 0.441877 0.558646
C5    C     C_R   0.605798 0.526646 0.952960 0.154254
C6    C     C_3   0.679804 0.642833 0.964620 -0.275999
C7    C     C_3   0.677540 0.645454 0.123149 -0.275929
C8    C     C_R   0.501228 0.737695 0.500242 0.551810
C9    C     C_R   0.737155 0.499555 0.558158 0.557372
C10   C     C_2   0.127967 0.497457 0.409187 -0.133414
C11   C     C_2   0.067311 0.496786 0.515849 -0.163213
C12   C     C_R   0.511893 0.129313 0.502160 -0.002451
C13   C     C_2   0.871997 0.499170 0.591057 -0.133467
C14   C     C_2   0.932784 0.494257 0.484686 -0.162825
C15   C     C_R   0.524285 0.063825 0.630388 0.032390
C16   C     C_3   0.520584 0.127909 0.889018 -0.243309
C17   C     C_3   0.661203 0.103859 0.927823 -0.283804
C18   C     C_3   0.720697 0.160677 0.072916 -0.450483
C19   C     C_R   0.515455 0.064376 0.375590 -0.169020
C20   C     C_R   0.515890 0.935810 0.375614 -0.164883
C21   C     C_R   0.511298 0.870905 0.501934 0.003388
C22   C     C_R   0.522753 0.936599 0.630004 -0.000013
C23   C     C_3   0.447765 0.929926 0.742719 -0.246913
C24   C     C_3   0.450976 0.070595 0.745167 -0.121431
C25   C     C_R   0.605454 0.527743 0.100162 0.151044
Cu1   Cu    Cu3+1 0.499990 0.499980 0.640670 0.925151
Cu2   Cu    Cu3+1 0.500010 0.500020 0.359330 0.928868
H1    H     H_    0.883208 0.488831 0.373198 0.149372
H2    H     H_    0.077996 0.496096 0.297649 0.091389
H3    H     H_    0.511409 0.112227 0.275165 0.130812
H4    H     H_    0.513298 0.888020 0.275323 0.128538
H5    H     H_    0.353402 0.891573 0.700502 0.127524
H6    H     H_    0.498315 0.885964 0.843285 0.128388
H7    H     H_    0.357592 0.111586 0.705696 0.124220
H8    H     H_    0.701761 0.261322 0.072941 0.157697
H9    H     H_    0.684304 0.115557 0.159657 0.151962
H10   H     H_    0.822550 0.146868 0.094886 0.139679
H11   H     H_    0.679909 0.003110 0.932257 0.156658
H12   H     H_    0.317666 0.429610 0.083441 0.117203
H13   H     H_    0.705580 0.145582 0.845136 0.175306
H14   H     H_    0.505683 0.229105 0.882961 0.172845
H15   H     H_    0.477588 0.092685 0.976257 0.129658
H16   H     H_    0.317356 0.430152 0.824677 0.111137
H17   H     H_    0.773893 0.626937 0.944671 0.122136
H18   H     H_    0.628416 0.719901 0.902540 0.144124
H19   H     H_    0.770708 0.633317 0.194002 0.120217
H20   H     H_    0.623004 0.723491 0.152730 0.142519
H21   H     H_    0.116978 0.498737 0.627532 0.147178
H22   H     H_    0.921838 0.503636 0.702534 0.091121
N1    N     N_R   0.500780 0.500930 0.148120 -0.229724
N2    N     N_R   0.500790 0.500890 0.852210 -0.233244
O1    O     O_R   0.500000 0.319640 0.618810 -0.504063
O2    O     O_R   0.500010 0.319680 0.381230 -0.506096
O3    O     O_R   0.320680 0.500000 0.575130 -0.507438
O4    O     O_R   0.320690 0.500040 0.337550 -0.506136
O5    O     O_R   0.499990 0.680320 0.618770 -0.498371
O6    O     O_R   0.500000 0.680360 0.381190 -0.504773
O7    O     O_R   0.679310 0.499960 0.662450 -0.499501
O8    O     O_R   0.679320 0.500000 0.424870 -0.498240

loop_
_geom_bond_atom_site_label_1
_geom_bond_atom_site_label_2
_ccdc_geom_bond_type
C23   H6    S    
C23   C24   S    
Cu2   N1    S    
C6    C7    S    
C25   N1    A    
C6    H18   S    
Cu1   O1    S    
C8    O6    A    
C18   H8    S    
C2    H12   S    
C19   C20   A    
C7    C25   S    
C12   C15   A    
C4    O3    A    
C23   H5    S    
C8    O5    A    
Cu2   O2    S    
C2    C3    A    
Cu1   Cu2   S    
C16   C24   S    
Cu2   O8    S    
Cu1   N2    S    
Cu1   O7    S    
C10   H2    S    
C3    H16   S    
C11   H21   S    
C13   H22   S    
C1    C12   S    
C5    C25   A    
Cu1   O3    S    
C12   C19   A    
C15   C24   S    
C11   C14   S    
C18   H10   S    
C3    N2    A    
C8    C21   S    
C17   H11   S    
C4    O4    A    
C5    C6    S    
C1    O1    A    
Cu2   O4    S    
C10   C11   D    
C4    C10   S    
C7    H19   S    
C16   H15   S    
C20   C21   A    
C6    H17   S    
C17   C18   S    
C9    O7    A    
Cu2   O6    S    
C1    O2    A    
C22   C23   S    
C5    N2    A    
C9    C13   S    
C2    N1    A    
C13   C14   D    
C14   H1    S    
C21   C22   A    
C19   H3    S    
C18   H9    S    
C16   H14   S    
C17   H13   S    
C15   C22   A    
C24   H7    S    
Cu1   O5    S    
C16   C17   S    
C9    O8    A    
C20   H4    S    
C7    H20   S    
