data_mof_unit_15881.cif
_audit_creation_date              2013-03-05T15:47:40-0500
_audit_creation_method            fapswitch 2.2
_symmetry_space_group_name_H-M    P1
_symmetry_Int_Tables_number       1
_space_group_crystal_system       triclinic
_cell_length_a                    10.122843
_cell_length_b                    10.652694
_cell_length_c                    10.777194
_cell_angle_alpha                 90.091077
_cell_angle_beta                  95.405836
_cell_angle_gamma                 81.347034
_cell_volume                      1143.73301051

loop_
_atom_site_label
_atom_site_type_symbol
_atom_site_description
_atom_site_fract_x
_atom_site_fract_y
_atom_site_fract_z
_atom_type_partial_charge
O1    O     O_R   0.568940 0.489540 0.307530 -0.601519
O2    O     O_R   0.348880 0.522880 0.340350 -0.596843
C1    C     C_R   0.443866 0.513264 0.267218 1.002673
O3    O     O_R   0.610030 0.298130 0.483570 -0.599856
O4    O     O_R   0.389960 0.331470 0.516390 -0.616137
C2    C     C_R   0.497414 0.258814 0.491727 0.956701
Zn1   Zn    Zn3+2 0.646940 0.477740 0.478080 1.015231
Zn2   Zn    Zn3+2 0.353060 0.522260 0.521920 0.966214
O5    O     O_R   0.651120 0.477120 0.659650 -0.586608
O6    O     O_R   0.431060 0.510460 0.692470 -0.629696
O7    O     O_R   0.610040 0.668530 0.483610 -0.598120
O8    O     O_R   0.389970 0.701870 0.516430 -0.643437
C3    C     C_R   0.556220 0.495289 0.732892 0.957462
C4    C     C_R   0.500389 0.742358 0.499829 0.897240
C5    C     C_3   0.611824 0.053592 0.414606 0.176021
H1    H     H_    0.708956 0.068994 0.465892 0.161680
C6    C     C_3   0.609732 0.910091 0.416789 -0.456255
H2    H     H_    0.589977 0.872539 0.321542 0.206870
H3    H     H_    0.711298 0.861295 0.452144 0.216202
H4    H     H_    0.613896 0.110182 0.671690 0.226663
C7    C     C_3   0.522536 0.076605 0.626449 -0.583452
C8    C     C_3   0.354569 0.090275 0.437787 0.177542
C9    C     C_3   0.495869 0.122929 0.488213 -0.133383
H5    H     H_    0.281324 0.126834 0.505208 0.112642
C10   C     C_3   0.500751 0.879213 0.499973 -0.071213
C11   C     C_3   0.530973 0.929036 0.637061 0.404353
C12   C     C_3   0.362747 0.945336 0.436490 -0.489237
H6    H     H_    0.349738 0.911193 0.338932 0.222596
H7    H     H_    0.277127 0.919450 0.483320 0.190714
H8    H     H_    0.440138 0.125967 0.678396 0.175196
H9    H     H_    0.385599 0.576437 0.892796 0.182369
H10   H     H_    0.614847 0.545207 0.107464 0.197917
C13   C     C_2   0.412046 0.534127 0.135068 -0.316692
C14   C     C_2   0.512056 0.547319 0.066501 -0.141719
H11   H     H_    0.690740 0.479586 0.906491 0.167496
C15   C     C_2   0.588224 0.506847 0.865151 -0.273180
C16   C     C_2   0.488435 0.549584 0.933707 -0.161698
H12   H     H_    0.309550 0.536028 0.093652 0.165954
H13   H     H_    0.890499 0.580049 0.577220 0.203714
H14   H     H_    0.109543 0.419952 0.422769 0.195549
N1    N     N_2   0.157300 0.551950 0.551120 -0.197949
C17   C     C_2   0.072979 0.489455 0.490111 -0.112249
H15   H     H_    0.880577 0.382566 0.385814 0.206767
N2    N     N_2   0.842730 0.448000 0.448950 -0.191650
C18   C     C_2   0.927055 0.510522 0.509911 -0.125160
H16   H     H_    0.119465 0.617349 0.614292 0.180365
C19   C     C_3   0.426081 0.897868 0.726526 -0.471879
C20   C     C_3   0.459839 0.932395 0.863825 -0.295277
C21   C     C_3   0.346821 0.912339 0.942618 -0.768714
H17   H     H_    0.253765 0.978133 0.911080 0.272552
H18   H     H_    0.326333 0.812893 0.935272 0.242743
H19   H     H_    0.376108 0.931482 0.041951 0.291446
H20   H     H_    0.553261 0.871632 0.903106 0.270272
H21   H     H_    0.476021 0.032943 0.872053 0.243986
H22   H     H_    0.324712 0.948582 0.693807 0.197396
H23   H     H_    0.419866 0.794805 0.725335 0.226378
N3    N     N_R   0.609652 0.102706 0.286740 0.240031
O9    O     O_R   0.698821 0.172383 0.260847 -0.362375
O10   O     O_R   0.533778 0.063009 0.195264 -0.370321
N4    N     N_R   0.666899 0.868926 0.688826 0.207145
O11   O     O_R   0.771443 0.926228 0.685199 -0.420645
O12   O     O_R   0.686234 0.751904 0.729234 -0.432975
N5    N     N_R   0.298596 0.145989 0.315291 0.239130
O13   O     O_R   0.186778 0.114232 0.264358 -0.379981
O14   O     O_R   0.340552 0.244164 0.269541 -0.368992

loop_
_geom_bond_atom_site_label_1
_geom_bond_atom_site_label_2
_geom_bond_distance
_ccdc_geom_bond_type
O4    Zn2   2.012266 S    
C20   H21   1.109831 S    
H15   N2    1.030966 S    
N5    O14   1.300775 A    
C17   C18   1.495800 S    
C5    C6    1.532251 S    
C12   H7    1.112095 S    
C14   C16   1.428229 S    
C7    H8    1.113887 S    
C19   C20   1.543497 S    
H13   C18   1.085408 S    
Zn2   O8    2.005885 S    
C21   H19   1.110495 S    
C6    C10   1.557372 S    
H14   C17   1.085513 S    
C6    H2    1.112561 S    
C10   C11   1.587219 S    
C19   H22   1.111210 S    
Zn2   N1    2.013601 S    
Zn1   N2    2.013714 S    
H4    C7    1.111299 S    
Zn1   O7    2.012266 S    
C5    N3    1.471843 S    
N3    O9    1.301263 A    
O4    C2    1.285834 A    
N1    H16   1.030963 S    
C11   C19   1.570774 S    
N4    O11   1.302449 A    
O3    Zn1   2.005885 S    
C2    C9    1.450375 S    
C5    C9    1.570139 S    
C20   C21   1.527343 S    
C6    H3    1.112858 S    
C7    C11   1.565217 S    
O8    C4    1.284673 A    
O2    C1    1.291945 A    
C8    C12   1.533827 S    
C7    C9    1.556392 S    
C4    C10   1.458435 S    
C20   H20   1.110763 S    
O7    C4    1.286309 A    
C8    H5    1.114947 S    
N3    O10   1.301685 A    
O3    C2    1.282727 A    
C10   C12   1.562437 S    
C1    C13   1.440328 S    
N5    O13   1.301749 A    
H9    C16   1.088211 S    
C13   C14   1.332229 D    
N2    C18   1.291464 D    
C3    C15   1.440921 S    
N4    O12   1.301621 A    
C21   H17   1.111703 S    
N1    C17   1.291497 D    
C12   H6    1.114529 S    
Zn1   O5    1.953284 S    
O5    C3    1.292216 A    
C8    C9    1.570004 S    
C15   C16   1.332191 D    
C13   H12   1.087471 S    
C21   H18   1.110994 S    
C8    N5    1.475285 S    
O1    Zn1   1.927455 S    
C11   N4    1.485233 S    
O6    C3    1.286760 A    
Zn2   O6    1.927457 S    
O2    Zn2   1.953282 S    
C5    H1    1.115818 S    
C19   H23   1.109086 S    
O1    C1    1.286882 A    
H11   C15   1.087370 S    
H10   C14   1.088369 S    
