data_mof_unit_41164.cif
_audit_creation_date              2013-03-05T16:06:19-0500
_audit_creation_method            fapswitch 2.2
_symmetry_space_group_name_H-M    P1
_symmetry_Int_Tables_number       1
_space_group_crystal_system       triclinic
_cell_length_a                    10.819814
_cell_length_b                    9.645801
_cell_length_c                    27.773352
_cell_angle_alpha                 90.267044
_cell_angle_beta                  93.917078
_cell_angle_gamma                 90.011066
_cell_volume                      2891.78434044

loop_
_atom_site_label
_atom_site_type_symbol
_atom_site_description
_atom_site_fract_x
_atom_site_fract_y
_atom_site_fract_z
_atom_type_partial_charge
O1    O     O_R   0.319640 0.618740 0.500000 -0.567196
O2    O     O_R   0.680360 0.381260 0.500000 -0.567088
O3    O     O_R   0.680360 0.618740 0.500000 -0.567007
O4    O     O_R   0.319640 0.381260 0.500000 -0.566912
C1    C     C_R   0.262466 0.499993 0.500150 0.817037
C2    C     C_R   0.737534 0.500008 0.499850 0.817065
O5    O     O_R   0.500020 0.618770 0.430260 -0.563105
O6    O     O_R   0.499980 0.381230 0.569740 -0.563101
O7    O     O_R   0.499980 0.618770 0.569740 -0.563825
O8    O     O_R   0.500020 0.381230 0.430260 -0.563873
C3    C     C_R   0.500566 0.499633 0.407551 0.824481
C4    C     C_R   0.499415 0.500378 0.592448 0.824457
Cu1   Cu    Cu3+1 0.500000 0.640660 0.500000 1.010313
Cu2   Cu    Cu3+1 0.500000 0.359340 0.500000 1.010354
C5    C     C_R   0.391127 0.488664 0.175065 0.552096
C6    C     C_R   0.608705 0.511820 0.824924 0.552072
O9    O     O_2   0.283925 0.487636 0.197212 -0.506043
O10   O     O_2   0.715903 0.512638 0.802771 -0.506082
N1    N     N_R   0.501703 0.492002 0.201964 -0.473096
N2    N     N_R   0.498119 0.508629 0.798029 -0.473062
C7    C     C_R   0.612010 0.488104 0.180763 0.559361
C8    C     C_R   0.387824 0.512784 0.819236 0.559338
C9    C     C_R   0.505845 0.369758 0.279133 -0.091858
C10   C     C_R   0.491742 0.630519 0.720749 -0.091675
C11   C     C_R   0.505850 0.371519 0.329313 -0.178217
C12   C     C_R   0.491875 0.628588 0.670573 -0.178318
C13   C     C_R   0.499084 0.623011 0.328421 -0.178775
C14   C     C_R   0.502949 0.377258 0.671681 -0.178814
C15   C     C_R   0.498851 0.620878 0.278183 -0.094796
C16   C     C_R   0.503232 0.379570 0.721920 -0.094835
C17   C     C_R   0.502008 0.494294 0.253497 0.348033
C18   C     C_R   0.497803 0.506161 0.746495 0.347903
C19   C     C_R   0.501389 0.489153 0.101784 -0.046413
C20   C     C_R   0.498467 0.511646 0.898210 -0.046426
C21   C     C_R   0.388909 0.486018 0.124485 -0.026184
C22   C     C_R   0.610941 0.514597 0.875503 -0.026175
C23   C     C_R   0.277634 0.472828 0.096289 -0.115935
C24   C     C_R   0.722231 0.527757 0.903691 -0.115954
C25   C     C_R   0.613784 0.484792 0.130256 -0.061925
C26   C     C_R   0.386068 0.516137 0.869743 -0.061880
C27   C     C_R   0.501797 0.498205 0.354486 -0.044293
C28   C     C_R   0.498113 0.501905 0.645509 -0.044237
H1    H     H_    0.497102 0.722223 0.346733 0.182132
H2    H     H_    0.506631 0.278038 0.653458 0.182605
H3    H     H_    0.496321 0.717446 0.258399 0.146131
H4    H     H_    0.507508 0.283130 0.741790 0.146316
H5    H     H_    0.190532 0.458791 0.112716 0.204835
H6    H     H_    0.809336 0.541691 0.887257 0.204811
C29   C     C_R   0.384520 0.514023 0.971792 -0.005073
C30   C     C_R   0.615361 0.486867 0.028206 -0.005061
C31   C     C_R   0.613486 0.503233 0.977361 0.056937
C32   C     C_R   0.386390 0.497589 0.022632 0.056936
C33   C     C_R   0.498598 0.507652 0.949318 0.051561
C34   C     C_R   0.501273 0.493190 0.050676 0.051568
C35   C     C_R   0.274693 0.543793 0.942107 0.126998
C36   C     C_R   0.725196 0.457188 0.057899 0.127010
C37   C     C_R   0.275473 0.534366 0.892041 -0.137889
C38   C     C_R   0.724401 0.466677 0.107964 -0.137851
O11   O     O_2   0.280406 0.514293 0.791515 -0.511671
O12   O     O_2   0.719421 0.486725 0.208490 -0.511592
C39   C     C_R   0.277421 0.472566 0.046273 -0.144644
C40   C     C_R   0.722455 0.528157 0.953708 -0.144667
H7    H     H_    0.486871 0.726310 0.651502 0.180447
H8    H     H_    0.509197 0.273659 0.348294 0.180985
H9    H     H_    0.487074 0.728595 0.739695 0.145255
H10   H     H_    0.508751 0.271678 0.260097 0.145249
H11   H     H_    0.189967 0.552518 0.870369 0.211995
H12   H     H_    0.809914 0.448611 0.129641 0.212016
H13   H     H_    0.191546 0.446072 0.026540 0.197055
H14   H     H_    0.808343 0.554667 0.973428 0.197063
C41   C     C_R   0.063854 0.374075 0.499972 -0.141922
C42   C     C_R   0.936145 0.625933 0.500031 -0.142004
C43   C     C_R   0.935998 0.374087 0.499454 -0.142078
C44   C     C_R   0.064002 0.625921 0.500542 -0.142166
H15   H     H_    0.111689 0.275495 0.500099 0.178687
H16   H     H_    0.888309 0.724511 0.499910 0.178630
H17   H     H_    0.888042 0.275513 0.498858 0.178550
H18   H     H_    0.111960 0.724494 0.501132 0.178492
C45   C     C_R   0.871555 0.500013 0.499699 -0.030983
C46   C     C_R   0.128444 0.499992 0.500301 -0.030977
C47   C     C_R   0.420179 0.073696 0.468758 0.191325
C48   C     C_R   0.579796 0.926299 0.531252 0.191477
C49   C     C_R   0.579953 0.074484 0.531200 0.192128
C50   C     C_R   0.420074 0.925510 0.468790 0.192220
N3    N     N_R   0.500000 0.852070 0.500000 -0.223179
N4    N     N_R   0.500000 0.147930 0.500000 -0.222994
I1    I     I_    0.292351 0.177401 0.418361 -0.295825
I2    I     I_    0.707463 0.822573 0.581709 -0.294896
I3    I     I_    0.709129 0.179192 0.581190 -0.299044
I4    I     I_    0.291065 0.820776 0.418736 -0.298146
I5    I     I_    0.114100 0.649374 0.964520 -0.346048
I6    I     I_    0.885831 0.351614 0.035521 -0.346118

loop_
_geom_bond_atom_site_label_1
_geom_bond_atom_site_label_2
_geom_bond_distance
_ccdc_geom_bond_type
C16   C18   1.399300 A    
C13   C15   1.395185 A    
C42   H16   1.082611 S    
O3    C2    1.301888 A    
N1    C17   1.431109 S    
O5    C3    1.308500 A    
C30   C34   1.421934 A    
O1    C1    1.301836 A    
C9    H10   1.083111 S    
N1    C7    1.366888 A    
C10   C12   1.393690 A    
C42   C45   1.400856 A    
C32   C39   1.409461 A    
C48   I2    2.149892 S    
C40   H14   1.076097 S    
O7    Cu1   1.949381 S    
C35   I5    2.141582 S    
C4    C28   1.474719 S    
C23   H5    1.083471 S    
C24   H6    1.083475 S    
C47   N4    1.379535 A    
O3    Cu1   1.962923 S    
O6    C4    1.308586 A    
C44   C46   1.400913 A    
Cu1   Cu2   2.713557 S    
O2    C2    1.301846 A    
C31   C40   1.409466 A    
C50   I4    2.150068 S    
C37   H11   1.083425 S    
C5    C21   1.403434 A    
C41   C46   1.400845 A    
C32   C34   1.421830 A    
C49   I3    2.149985 S    
C50   N3    1.380070 A    
Cu2   N4    2.039220 S    
C7    O12   1.349682 S    
C42   C44   1.382487 A    
O8    Cu2   1.949381 S    
C11   C27   1.407214 A    
C8    O11   1.349676 S    
C41   C43   1.382470 A    
C29   C35   1.429233 A    
C25   C38   1.395214 A    
C14   H2    1.082563 S    
C30   C36   1.429255 A    
C15   H3    1.083060 S    
C31   C33   1.421849 A    
C11   H8    1.082719 S    
C9    C17   1.398420 A    
C5    N1    1.366815 A    
C12   H7    1.082926 S    
C10   C18   1.398610 A    
C13   C27   1.406911 A    
C7    C25   1.404411 A    
O5    Cu1   1.947425 S    
C6    N2    1.366825 A    
C29   C32   1.420383 A    
C8    C26   1.404407 A    
C30   C31   1.420434 A    
C43   C45   1.400902 A    
C19   C25   1.405313 A    
C1    C46   1.450380 S    
C47   I1    2.149820 S    
C10   H9    1.083251 S    
C38   H12   1.083424 S    
N2    C8    1.366910 A    
C35   C37   1.393674 A    
C20   C26   1.405320 A    
O1    Cu1   1.962842 S    
C22   C24   1.396132 A    
C47   C50   1.429375 A    
C12   C28   1.407412 A    
N2    C18   1.431140 S    
C39   H13   1.076108 S    
C19   C34   1.420071 A    
C5    O9    1.349595 S    
O6    Cu2   1.947425 S    
C26   C37   1.395219 A    
C21   C23   1.396128 A    
C16   H4    1.083199 S    
O4    C1    1.301899 A    
C23   C39   1.388970 A    
C48   N3    1.379510 A    
C14   C16   1.395182 A    
C15   C17   1.399099 A    
C6    C22   1.403434 A    
C41   H15   1.082602 S    
C2    C45   1.450380 S    
C29   C33   1.421895 A    
C14   C28   1.407003 A    
C19   C21   1.408736 A    
C36   C38   1.393678 A    
C3    C27   1.474746 S    
C20   C22   1.408716 A    
C9    C11   1.393684 A    
O4    Cu2   1.962923 S    
O2    Cu2   1.962842 S    
O7    C4    1.307352 A    
O8    C3    1.307453 A    
C13   H1    1.082535 S    
C36   I6    2.141594 S    
C49   N4    1.380087 A    
C20   C33   1.420069 A    
C6    O10   1.349595 S    
C48   C49   1.429373 A    
C44   H18   1.082625 S    
Cu1   N3    2.039219 S    
C43   H17   1.082617 S    
C24   C40   1.388977 A    
