data_mof_unit_41449.cif
_audit_creation_date              2012-12-10T18:06:46-0500
_audit_creation_method            fapswitch 2.2
_symmetry_space_group_name_H-M    P1
_symmetry_Int_Tables_number       1
_space_group_crystal_system       triclinic
_cell_length_a                    12.675055
_cell_length_b                    13.048471
_cell_length_c                    15.588242
_cell_angle_alpha                 86.425376
_cell_angle_beta                  100.340093
_cell_angle_gamma                 98.014384
_cell_volume                      2509.65530277

loop_
_atom_site_label
_atom_site_type_symbol
_atom_type_description
_atom_site_fract_x
_atom_site_fract_y
_atom_site_fract_z
_atom_type_partial_charge
C1    C     C_R   0.445655 0.308300 0.514878 0.888960
C2    C     C_R   0.436166 0.501920 0.099168 -0.009102
C3    C     C_R   0.323700 0.487315 0.065857 0.132632
C4    C     C_R   0.508991 0.478527 0.046793 0.098995
C5    C     C_R   0.472537 0.464386 0.956697 0.087231
C6    C     C_R   0.360010 0.453588 0.924488 -0.231867
C7    C     C_R   0.286740 0.462810 0.979013 -0.200901
C8    C     C_R   0.615200 0.461624 0.083262 -0.088988
C9    C     C_R   0.689328 0.448536 0.030561 -0.230983
C10   C     C_R   0.659132 0.452383 0.940346 0.133899
C11   C     C_R   0.550331 0.460024 0.902591 0.091599
C12   C     C_R   0.436440 0.516730 0.336356 0.967228
C13   C     C_R   0.737071 0.450321 0.887591 -0.252651
C14   C     C_R   0.709347 0.458962 0.796703 0.208819
C15   C     C_R   0.523979 0.470233 0.812051 -0.302547
C16   C     C_R   0.733651 0.935598 0.566299 -0.179606
C17   C     C_R   0.597032 0.800623 0.502304 -0.017238
C18   C     C_R   0.303358 0.157643 0.517908 -0.163753
C19   C     C_R   0.272038 0.051569 0.514340 -0.142450
C20   C     C_R   0.349944 0.985329 0.519296 -0.190315
C21   C     C_R   0.461412 0.024616 0.534324 0.092450
C22   C     C_R   0.492120 0.129684 0.552559 0.107748
C23   C     C_R   0.557474 0.691569 0.492369 0.861139
C24   C     C_R   0.543538 0.963038 0.531963 0.072873
C25   C     C_R   0.653030 0.999521 0.565467 0.177356
C26   C     C_R   0.679561 0.098662 0.598073 -0.192040
C27   C     C_R   0.600008 0.163672 0.590760 -0.143871
C28   C     C_R   0.519350 0.867047 0.494507 -0.222917
C29   C     C_R   0.705320 0.835172 0.536353 -0.189369
C30   C     C_R   0.413632 0.197715 0.531454 -0.128138
C31   C     C_R   0.151035 0.637287 0.637936 0.128153
C32   C     C_R   0.760575 0.405352 0.377350 0.554628
C33   C     C_R   0.838984 0.449437 0.327675 0.156595
C34   C     C_R   0.564872 0.486029 0.663849 0.813332
C35   C     C_R   0.923368 0.519863 0.367763 -0.158954
C36   C     C_R   0.943189 0.522937 0.458281 0.033508
C37   C     C_R   0.851022 0.508358 0.496738 0.134818
C38   C     C_R   0.046263 0.551700 0.509211 -0.140626
C39   C     C_R   0.050210 0.602744 0.587418 0.096989
C40   C     C_R   0.952394 0.616051 0.613521 -0.251468
C41   C     C_R   0.854050 0.565950 0.570319 -0.165767
C42   C     C_R   0.142620 0.518252 0.491916 0.499178
C43   C     C_R   0.244986 0.613253 0.613028 -0.176736
C44   C     C_R   0.397504 0.525684 0.241956 -0.175547
C45   C     C_R   0.601595 0.471128 0.758456 -0.091974
C46   C     C_R   0.249772 0.497358 0.120298 -0.201776
C47   C     C_R   0.286980 0.513094 0.208440 -0.212831
C48   C     C_R   0.471226 0.539074 0.184054 0.387296
H1    H     H_    0.200873 0.451452 0.952918 0.143446
H2    H     H_    0.820408 0.444417 0.916990 0.138585
H3    H     H_    0.766520 0.783571 0.543420 0.156694
H4    H     H_    0.762171 0.127235 0.626220 0.145218
H5    H     H_    0.817414 0.961896 0.592790 0.143582
H6    H     H_    0.438682 0.840528 0.461255 0.159391
H7    H     H_    0.240975 0.207817 0.508486 0.218174
H8    H     H_    0.321346 0.903612 0.514568 0.135317
H9    H     H_    0.187039 0.020920 0.504143 0.158034
H10   H     H_    0.623278 0.240666 0.615132 0.153086
H11   H     H_    0.323242 0.639990 0.650733 0.169385
H12   H     H_    0.443353 0.483388 0.782375 0.176245
H13   H     H_    0.951722 0.660000 0.670032 0.173905
H14   H     H_    0.975012 0.568854 0.329601 0.195722
H15   H     H_    0.782730 0.577333 0.593630 0.204180
H16   H     H_    0.771419 0.438710 0.059721 0.149484
H17   H     H_    0.163491 0.487972 0.095844 0.149159
H18   H     H_    0.230137 0.516490 0.250351 0.252361
H19   H     H_    0.325853 0.432542 0.858489 0.144397
H20   H     H_    0.640216 0.456267 0.152921 0.214642
N1    N     N_R   0.239390 0.551900 0.544730 -0.165116
N2    N     N_R   0.759950 0.448600 0.455730 -0.202086
O1    O     O_R   0.374950 0.371210 0.521360 -0.546223
O2    O     O_R   0.542050 0.338030 0.492790 -0.549953
O3    O     O_R   0.368720 0.526070 0.390200 -0.561995
O4    O     O_R   0.535820 0.492890 0.361630 -0.532394
O5    O     O_R   0.457950 0.661970 0.507210 -0.630643
O6    O     O_R   0.625050 0.628790 0.478640 -0.610304
O7    O     O_R   0.464180 0.507110 0.638370 -0.630507
O8    O     O_R   0.631280 0.473930 0.609800 -0.626548
Zn1   Zn    Zn3+2 0.388420 0.522150 0.519080 1.001630
Zn2   Zn    Zn3+2 0.611580 0.477850 0.480920 1.038864
N3    N     N_2   0.158712 0.694350 0.714151 -0.305927
H21   H     H_    0.223693 0.752173 0.722161 0.231239
C49   C     C_3   0.154179 0.630229 0.792843 -0.794183
H22   H     H_    0.225683 0.587670 0.807897 0.242724
H23   H     H_    0.079153 0.573867 0.785478 0.242408
H24   H     H_    0.154460 0.679799 0.848258 0.249028
S1    S     S_3+6 0.129158 0.417039 0.413934 -0.010101
O9    O     O_2   0.041288 0.334444 0.434966 -0.343201
O10   O     O_2   0.094969 0.460338 0.324085 -0.417353
O11   O     O_3   0.232912 0.357030 0.402663 -0.527247
H25   H     H_    0.204042 0.306690 0.356417 0.368564
S2    S     S_3+6 0.668638 0.294716 0.340677 0.050404
O12   O     O_2   0.651358 0.223285 0.417373 -0.293948
O13   O     O_2   0.562098 0.324573 0.294908 -0.318738
O14   O     O_3   0.718219 0.228722 0.271262 -0.568362
H26   H     H_    0.662820 0.168188 0.256230 0.390943
N4    N     N_2   0.828630 0.432043 0.237368 -0.291242
H27   H     H_    0.834561 0.500202 0.200268 0.223010
C50   C     C_3   0.895232 0.359725 0.214418 -0.552524
H28   H     H_    0.964964 0.402131 0.187351 0.212098
H29   H     H_    0.846675 0.309101 0.163129 0.228119
H30   H     H_    0.925298 0.309499 0.271249 0.302326
N5    N     N_2   0.791677 0.462287 0.745324 -0.297275
H31   H     H_    0.854276 0.520675 0.762727 0.212760
C51   C     C_3   0.831209 0.364330 0.740910 -0.751910
H32   H     H_    0.884428 0.371039 0.690945 0.248911
H33   H     H_    0.762951 0.302450 0.722438 0.238614
H34   H     H_    0.878611 0.342622 0.804959 0.221825
S3    S     S_3+6 0.583318 0.638571 0.205428 0.004958
O15   O     O_2   0.551542 0.723140 0.252904 -0.295236
O16   O     O_2   0.678096 0.596631 0.261387 -0.356413
O17   O     O_3   0.619311 0.689079 0.111306 -0.556317
H35   H     H_    0.690172 0.731630 0.128777 0.383309

loop_
_geom_bond_atom_site_label_1
_geom_bond_atom_site_label_2
_ccdc_geom_bond_type
S1    O9    D    
C12   O4    A    
C9    H16   S    
C17   C29   A    
C15   H12   S    
C19   C20   A    
C23   O6    A    
C4    C8    A    
O1    Zn1   S    
N3    H21   S    
O11   H25   S    
C32   S2    S    
C19   H9    S    
C51   H33   S    
C26   C27   A    
C17   C23   S    
C31   C43   A    
C49   H22   S    
C36   C37   A    
C38   C42   A    
C3    C7    A    
S3    O16   D    
C34   O7    A    
C5    C6    A    
O8    Zn2   S    
C18   C19   A    
C16   H5    S    
S2    O12   D    
N3    C49   S    
S1    O11   S    
C11   C15   A    
C35   C36   A    
C8    C9    A    
C18   C30   A    
C9    C10   A    
C47   H18   S    
C44   C47   A    
C20   H8    S    
C48   S3    S    
C43   N1    A    
O4    Zn2   S    
C13   C14   A    
C12   O3    A    
O17   H35   S    
N4    C50   S    
N4    H27   S    
C14   C45   A    
O7    Zn1   S    
C51   H34   S    
C1    O2    A    
N2    Zn2   S    
O6    Zn2   S    
C24   C25   A    
C7    H1    S    
C46   H17   S    
S3    O17   S    
C39   C40   A    
C28   H6    S    
C32   N2    A    
C2    C48   A    
C16   C29   A    
C10   C13   A    
S2    O14   S    
C40   H13   S    
C2    C4    A    
C26   H4    S    
C50   H28   S    
C50   H30   S    
S2    O13   D    
O3    Zn1   S    
N5    C51   S    
C34   C45   S    
C1    O1    A    
C18   H7    S    
C40   C41   A    
C49   H23   S    
C8    H20   S    
C22   C27   A    
S1    O10   D    
N1    Zn1   S    
C15   C45   A    
N5    H31   S    
C29   H3    S    
C16   C25   A    
C46   C47   A    
C6    H19   S    
C22   C30   A    
C50   H29   S    
C17   C28   A    
C24   C28   A    
C23   O5    A    
C4    C5    A    
C27   H10   S    
C5    C11   A    
C6    C7    A    
C43   H11   S    
C51   H32   S    
C3    C46   A    
C31   N3    S    
C37   N2    A    
C32   C33   A    
C36   C38   A    
C2    C3    A    
C25   C26   A    
O2    Zn2   S    
S3    O15   D    
C34   O8    A    
C14   N5    S    
C38   C39   A    
C1    C30   S    
C33   C35   A    
C31   C39   A    
C35   H14   S    
C33   N4    S    
C42   N1    A    
C37   C41   A    
C10   C11   A    
C13   H2    S    
C49   H24   S    
C20   C21   A    
C12   C44   S    
C21   C24   A    
O14   H26   S    
C41   H15   S    
C42   S1    S    
C21   C22   A    
O5    Zn1   S    
C44   C48   A    
