data_mof_unit_65329.cif
_audit_creation_date              2012-12-10T18:51:03-0500
_audit_creation_method            fapswitch 2.2
_symmetry_space_group_name_H-M    P1
_symmetry_Int_Tables_number       1
_space_group_crystal_system       triclinic
_cell_length_a                    37.078299
_cell_length_b                    30.24144
_cell_length_c                    21.726022
_cell_angle_alpha                 90.002565
_cell_angle_beta                  125.62054
_cell_angle_gamma                 89.999738
_cell_volume                      19803.1987225

loop_
_atom_site_label
_atom_site_type_symbol
_atom_type_description
_atom_site_fract_x
_atom_site_fract_y
_atom_site_fract_z
_atom_type_partial_charge
C1    C     C_R   0.413782 0.499949 0.913417 0.858811
C2    C     C_R   0.586218 0.499950 0.086582 0.858809
C3    C     C_R   0.913782 0.999949 0.913417 0.858815
C4    C     C_R   0.086218 0.999950 0.086583 0.858818
C5    C     C_2   0.507689 0.501406 0.822722 -0.447369
C6    C     C_2   0.492308 0.501411 0.177274 -0.447391
C7    C     C_2   0.007692 0.001407 0.822727 -0.447416
C8    C     C_2   0.992305 0.001412 0.177269 -0.447427
C9    C     C_R   0.295410 0.520151 0.836422 -0.181392
C10   C     C_R   0.704592 0.520136 0.163571 -0.181392
C11   C     C_R   0.795409 0.020152 0.836420 -0.181376
C12   C     C_R   0.204592 0.020150 0.163580 -0.181378
C13   C     C_R   0.341394 0.523114 0.882509 -0.188248
C14   C     C_R   0.658608 0.523099 0.117481 -0.188255
C15   C     C_R   0.841394 0.023115 0.882507 -0.188242
C16   C     C_R   0.158607 0.023112 0.117494 -0.188247
C17   C     C_R   0.365968 0.499422 0.863479 -0.003442
C18   C     C_R   0.634032 0.499426 0.136523 -0.003438
C19   C     C_R   0.865968 0.999422 0.863479 -0.003443
C20   C     C_R   0.134032 0.999425 0.136523 -0.003445
C21   C     C_R   0.344734 0.474093 0.797235 -0.199985
C22   C     C_R   0.655264 0.474114 0.202783 -0.199977
C23   C     C_R   0.844734 0.974092 0.797236 -0.199987
C24   C     C_R   0.155265 0.974101 0.202768 -0.199983
C25   C     C_R   0.298753 0.472371 0.749902 -0.164579
C26   C     C_R   0.701245 0.472392 0.250118 -0.164552
C27   C     C_R   0.798753 0.972370 0.749902 -0.164583
C28   C     C_R   0.201245 0.972379 0.250102 -0.164574
C29   C     C_R   0.274184 0.494264 0.770712 0.109337
C30   C     C_R   0.725815 0.494267 0.229296 0.109319
C31   C     C_R   0.774184 0.994264 0.770711 0.109335
C32   C     C_R   0.225816 0.994268 0.229292 0.109330
C33   C     C_R   0.203631 0.530124 0.681908 -0.200167
C34   C     C_R   0.796371 0.530124 0.318110 -0.200161
C35   C     C_R   0.703631 0.030124 0.681906 -0.200167
C36   C     C_R   0.296371 0.030124 0.318108 -0.200166
C37   C     C_R   0.157973 0.531416 0.637211 -0.236226
C38   C     C_R   0.842029 0.531416 0.362804 -0.236225
C39   C     C_R   0.657973 0.031416 0.637210 -0.236224
C40   C     C_R   0.342029 0.031416 0.362804 -0.236220
C41   C     C_R   0.133998 0.494846 0.633427 -0.067116
C42   C     C_R   0.866001 0.494847 0.366573 -0.067121
C43   C     C_R   0.633998 0.994846 0.633427 -0.067114
C44   C     C_R   0.366001 0.994847 0.366572 -0.067121
C45   C     C_R   0.502072 0.500117 0.883038 0.967685
C46   C     C_R   0.497927 0.500119 0.116961 0.967683
C47   C     C_R   0.002074 0.000117 0.883041 0.967692
C48   C     C_R   0.997925 0.000119 0.116958 0.967691
C49   C     C_R   0.155452 0.455194 0.672971 0.058571
C50   C     C_R   0.844544 0.455196 0.327019 0.058569
C51   C     C_R   0.655452 0.955194 0.672971 0.058570
C52   C     C_R   0.344544 0.955197 0.327015 0.058569
C53   C     C_R   0.202576 0.453447 0.717627 0.104072
C54   C     C_R   0.797420 0.453448 0.282371 0.104082
C55   C     C_R   0.702576 0.953447 0.717627 0.104071
C56   C     C_R   0.297420 0.953450 0.282361 0.104074
C57   C     C_R   0.226007 0.491917 0.722271 0.038112
C58   C     C_R   0.773992 0.491918 0.277738 0.038105
C59   C     C_R   0.726007 0.991917 0.722270 0.038113
C60   C     C_R   0.273993 0.991920 0.277732 0.038110
C61   C     C_R   0.499999 0.413670 0.500000 0.859421
C62   C     C_R   0.999999 0.913670 0.500000 0.859402
C63   C     C_R   0.499769 0.498309 0.618905 0.978353
C64   C     C_R   0.500230 0.498310 0.381095 0.978360
C65   C     C_R   0.999769 0.998311 0.618904 0.978374
C66   C     C_R   0.000231 0.998311 0.381096 0.978375
C67   C     C_R   0.500000 0.586353 0.500000 0.866717
C68   C     C_R   0.000001 0.086353 0.500000 0.866709
C69   C     C_R   0.999999 0.413778 0.499998 0.865425
C70   C     C_R   0.499999 0.913778 0.499998 0.865428
C71   C     C_R   0.086230 0.498850 0.586136 0.879120
C72   C     C_R   0.913770 0.498850 0.413864 0.879111
C73   C     C_R   0.586229 0.998850 0.586136 0.879119
C74   C     C_R   0.413770 0.998850 0.413864 0.879114
C75   C     C_R   1.000000 0.586398 0.500001 0.870364
C76   C     C_R   0.500000 0.086398 0.500001 0.870365
C77   C     C_R   0.461976 0.296889 0.443573 -0.181866
C78   C     C_R   0.538015 0.296892 0.556435 -0.181865
C79   C     C_R   0.961976 0.796889 0.443573 -0.181878
C80   C     C_R   0.038015 0.796892 0.556436 -0.181877
C81   C     C_R   0.999999 0.274202 0.499992 0.026530
C82   C     C_R   0.500000 0.774202 0.499993 0.026530
C83   C     C_R   0.461869 0.342703 0.443809 -0.197786
C84   C     C_R   0.538125 0.342705 0.556197 -0.197790
C85   C     C_R   0.961869 0.842703 0.443808 -0.197799
C86   C     C_R   0.038125 0.842705 0.556197 -0.197801
C87   C     C_R   0.499998 0.365738 0.500001 -0.022576
C88   C     C_R   0.999998 0.865738 0.500001 -0.022581
C89   C     C_R   0.499995 0.274003 0.500005 0.113447
C90   C     C_R   0.999995 0.774003 0.500005 0.113443
C91   C     C_R   0.012007 0.703207 0.565342 -0.179989
C92   C     C_R   0.987984 0.703205 0.434665 -0.179988
C93   C     C_R   0.512007 0.203207 0.565342 -0.179981
C94   C     C_R   0.487983 0.203205 0.434665 -0.179982
C95   C     C_R   0.011763 0.657393 0.565233 -0.195698
C96   C     C_R   0.988231 0.657390 0.434772 -0.195698
C97   C     C_R   0.511764 0.157393 0.565233 -0.195695
C98   C     C_R   0.488230 0.157390 0.434772 -0.195694
C99   C     C_R   0.999998 0.634346 0.500002 -0.033501
C100  C     C_R   0.499998 0.134346 0.500002 -0.033504
C101  C     C_R   0.999995 0.726093 0.500004 0.112977
C102  C     C_R   0.499995 0.226093 0.500004 0.112971
C103  C     C_R   0.534901 0.703260 0.562695 -0.176579
C104  C     C_R   0.465101 0.703255 0.437295 -0.176586
C105  C     C_R   0.034900 0.203261 0.562696 -0.176575
C106  C     C_R   0.965102 0.203255 0.437292 -0.176590
C107  C     C_R   0.535194 0.657378 0.562336 -0.196909
C108  C     C_R   0.464809 0.657373 0.437657 -0.196903
C109  C     C_R   0.035193 0.157378 0.562337 -0.196906
C110  C     C_R   0.964810 0.157373 0.437655 -0.196900
C111  C     C_R   0.500001 0.634332 0.499998 -0.027005
C112  C     C_R   0.000001 0.134332 0.499997 -0.027003
C113  C     C_R   0.028966 0.297425 0.488787 0.114007
C114  C     C_R   0.971031 0.297424 0.511197 0.114003
C115  C     C_R   0.528965 0.797425 0.488784 0.114005
C116  C     C_R   0.471034 0.797424 0.511203 0.114004
C117  C     C_R   0.500001 0.726098 0.499994 0.092748
C118  C     C_R   0.000001 0.226098 0.499993 0.092747
C119  C     C_R   0.999999 0.366119 0.499994 -0.093167
C120  C     C_R   0.499999 0.866119 0.499994 -0.093170
C121  C     C_R   0.027829 0.343459 0.487457 -0.245209
C122  C     C_R   0.972168 0.343458 0.512529 -0.245211
C123  C     C_R   0.527828 0.843459 0.487453 -0.245210
C124  C     C_R   0.472170 0.843458 0.512534 -0.245215
C125  C     C_2   0.532936 0.476101 0.748926 -0.299425
C126  C     C_2   0.467068 0.476098 0.251075 -0.299353
C127  C     C_2   0.032916 0.976078 0.748905 -0.299222
C128  C     C_2   0.967085 0.976079 0.251092 -0.299183
C129  C     C_2   0.498248 0.491941 0.683066 -0.410124
C130  C     C_2   0.501752 0.491948 0.316933 -0.410170
C131  C     C_2   0.998244 0.991951 0.683061 -0.410253
C132  C     C_2   0.001756 0.991955 0.316937 -0.410280
C133  C     C_2   0.529322 0.469878 0.812634 0.582216
C134  C     C_2   0.470684 0.469877 0.187369 0.582177
C135  C     C_2   0.029295 0.969862 0.812604 0.582099
C136  C     C_2   0.970706 0.969863 0.187394 0.582079
H1    H     H_    0.563392 0.467005 0.755675 0.177695
H2    H     H_    0.436615 0.466988 0.244327 0.177708
H3    H     H_    0.063362 0.966943 0.755647 0.177735
H4    H     H_    0.936640 0.966936 0.244350 0.177742
H5    H     H_    0.141162 0.561421 0.606274 0.146059
H6    H     H_    0.858843 0.561420 0.393748 0.146062
H7    H     H_    0.641162 0.061421 0.606273 0.146060
H8    H     H_    0.358843 0.061419 0.393751 0.146064
H9    H     H_    0.432382 0.279271 0.399999 0.131769
H10   H     H_    0.567608 0.279275 0.600010 0.131766
H11   H     H_    0.932383 0.779271 0.399998 0.131771
H12   H     H_    0.067608 0.779275 0.600011 0.131771
H13   H     H_    0.432214 0.360050 0.399828 0.151378
H14   H     H_    0.567781 0.360054 0.600176 0.151376
H15   H     H_    0.932214 0.860050 0.399827 0.151384
H16   H     H_    0.067781 0.860054 0.600177 0.151383
H17   H     H_    0.021098 0.720826 0.615934 0.131251
H18   H     H_    0.978892 0.720822 0.384073 0.131251
H19   H     H_    0.521099 0.220826 0.615934 0.131261
H20   H     H_    0.478891 0.220822 0.384073 0.131260
H21   H     H_    0.021089 0.640061 0.616173 0.153658
H22   H     H_    0.978906 0.640057 0.383832 0.153659
H23   H     H_    0.521090 0.140061 0.616173 0.153661
H24   H     H_    0.478905 0.140058 0.383831 0.153663
H25   H     H_    0.049376 0.361776 0.478070 0.147514
H26   H     H_    0.950621 0.361775 0.521917 0.147515
H27   H     H_    0.549373 0.861776 0.478062 0.147517
H28   H     H_    0.450625 0.861775 0.521926 0.147519
H29   H     H_    0.561749 0.720987 0.611482 0.132208
H30   H     H_    0.438253 0.720978 0.388507 0.132209
H31   H     H_    0.061747 0.220988 0.611484 0.132206
H32   H     H_    0.938255 0.220978 0.388503 0.132211
H33   H     H_    0.466566 0.497520 0.674219 0.157111
H34   H     H_    0.533433 0.497538 0.325778 0.157105
H35   H     H_    0.966567 0.997561 0.674221 0.157095
H36   H     H_    0.033431 0.997571 0.325777 0.157092
H37   H     H_    0.562419 0.639922 0.611059 0.150849
H38   H     H_    0.437585 0.639913 0.388936 0.150854
H39   H     H_    0.062416 0.139922 0.611061 0.150851
H40   H     H_    0.937586 0.139913 0.388933 0.150855
H41   H     H_    0.495990 0.531196 0.788225 0.124511
H42   H     H_    0.504001 0.531205 0.211767 0.124520
H43   H     H_    0.996011 0.031205 0.788250 0.124540
H44   H     H_    0.003984 0.031212 0.211747 0.124543
H45   H     H_    0.276330 0.537800 0.851852 0.137846
H46   H     H_    0.723674 0.537770 0.148132 0.137847
H47   H     H_    0.776330 0.037801 0.851849 0.137849
H48   H     H_    0.223673 0.037794 0.148151 0.137850
H49   H     H_    0.357806 0.542769 0.933755 0.140792
H50   H     H_    0.642198 0.542740 0.066223 0.140782
H51   H     H_    0.857805 0.042771 0.933753 0.140796
H52   H     H_    0.142197 0.042764 0.066246 0.140794
H53   H     H_    0.363753 0.456295 0.781820 0.137401
H54   H     H_    0.636242 0.456331 0.218207 0.137380
H55   H     H_    0.863753 0.956294 0.781821 0.137388
H56   H     H_    0.136244 0.956308 0.218184 0.137382
H57   H     H_    0.282367 0.454283 0.697169 0.127452
H58   H     H_    0.717628 0.454318 0.302861 0.127439
H59   H     H_    0.782368 0.954282 0.697169 0.127449
H60   H     H_    0.217630 0.954295 0.302835 0.127444
H61   H     H_    0.221809 0.559238 0.685409 0.152966
H62   H     H_    0.778196 0.559238 0.314618 0.152968
H63   H     H_    0.721808 0.059238 0.685407 0.152965
H64   H     H_    0.278196 0.059237 0.314618 0.152968
O1    O     O_R   0.434530 0.536960 0.934530 -0.626414
O2    O     O_R   0.565470 0.536960 0.065470 -0.626410
O3    O     O_R   0.934530 0.036960 0.934530 -0.626410
O4    O     O_R   0.065470 0.036960 0.065470 -0.626410
O5    O     O_R   0.065470 0.500010 0.514410 -0.618728
O6    O     O_R   0.934530 0.500010 0.485590 -0.618728
O7    O     O_R   0.565470 0.000010 0.514410 -0.618728
O8    O     O_R   0.434530 0.000010 0.485590 -0.618729
O9    O     O_R   0.065460 0.500010 0.616540 -0.627104
O10   O     O_R   0.934540 0.500010 0.383460 -0.627095
O11   O     O_R   0.565460 0.000010 0.616540 -0.627103
O12   O     O_R   0.434540 0.000010 0.383460 -0.627098
O13   O     O_R   0.000010 0.565480 0.448930 -0.624522
O14   O     O_R   0.999990 0.565480 0.551070 -0.624522
O15   O     O_R   0.500010 0.065480 0.448930 -0.624521
O16   O     O_R   0.499990 0.065480 0.551070 -0.624521
O17   O     O_R   0.434530 0.463040 0.934530 -0.614156
O18   O     O_R   0.565470 0.463040 0.065470 -0.614152
O19   O     O_R   0.934530 0.963040 0.934530 -0.614167
O20   O     O_R   0.065470 0.963040 0.065470 -0.614166
O21   O     O_R   0.500010 0.536960 0.909550 -0.635162
O22   O     O_R   0.499990 0.536960 0.090450 -0.635162
O23   O     O_R   0.000010 0.036960 0.909550 -0.635153
O24   O     O_R   0.999990 0.036960 0.090450 -0.635153
O25   O     O_R   0.500010 0.463040 0.909550 -0.570559
O26   O     O_R   0.499990 0.463040 0.090450 -0.570571
O27   O     O_R   0.000010 0.963040 0.909550 -0.570597
O28   O     O_R   0.999990 0.963040 0.090450 -0.570605
O29   O     O_R   0.536960 0.434530 0.536970 -0.630600
O30   O     O_R   0.463040 0.434530 0.463030 -0.630597
O31   O     O_R   0.036960 0.934530 0.536970 -0.630601
O32   O     O_R   0.963040 0.934530 0.463030 -0.630598
O33   O     O_R   0.536950 0.500000 0.627420 -0.620268
O34   O     O_R   0.463050 0.500000 0.372580 -0.620263
O35   O     O_R   0.036950 1.000000 0.627420 -0.620250
O36   O     O_R   0.963050 0.000000 0.372580 -0.620247
O37   O     O_R   0.463030 0.500000 0.553490 -0.623644
O38   O     O_R   0.536970 0.500000 0.446510 -0.623646
O39   O     O_R   0.963030 0.000000 0.553490 -0.623648
O40   O     O_R   0.036970 0.000000 0.446510 -0.623649
O41   O     O_R   0.536960 0.565470 0.536960 -0.624468
O42   O     O_R   0.463040 0.565470 0.463040 -0.624467
O43   O     O_R   0.036960 0.065470 0.536960 -0.624467
O44   O     O_R   0.963040 0.065470 0.463040 -0.624467
O45   O     O_R   0.000000 0.434540 0.448940 -0.623246
O46   O     O_R   0.000000 0.434540 0.551060 -0.623236
O47   O     O_R   0.500000 0.934540 0.448940 -0.623246
O48   O     O_R   0.500000 0.934540 0.551060 -0.623238
Zn1   Zn    Zn3+2 0.500000 0.549350 0.000000 0.948913
Zn2   Zn    Zn3+2 1.000000 0.049350 0.000000 0.948911
Zn3   Zn    Zn3+2 0.500000 0.450640 0.000000 1.005034
Zn4   Zn    Zn3+2 0.000000 0.950640 0.000000 1.004920
Zn5   Zn    Zn3+2 0.549360 0.500000 0.549360 0.940731
Zn6   Zn    Zn3+2 0.450640 0.500000 0.450640 0.940744
Zn7   Zn    Zn3+2 0.049360 0.000000 0.549360 0.940752
Zn8   Zn    Zn3+2 0.950640 1.000000 0.450640 0.940757
Zn9   Zn    Zn3+2 0.000010 0.500010 0.431810 0.936842
Zn10  Zn    Zn3+2 0.999990 0.500010 0.568190 0.936837
Zn11  Zn    Zn3+2 0.500010 0.000010 0.431810 0.936845
Zn12  Zn    Zn3+2 0.499990 0.000010 0.568190 0.936843
C137  C     C_3   0.127965 0.415356 0.666005 -0.435746
C138  C     C_3   0.119953 0.415375 0.727842 -0.317853
C139  C     C_3   0.094849 0.373961 0.722909 -0.877895
H65   H     H_    0.062044 0.372356 0.667201 0.279444
H66   H     H_    0.114197 0.343833 0.730492 0.253058
H67   H     H_    0.089497 0.374789 0.768136 0.244361
H68   H     H_    0.151965 0.416751 0.784826 0.205995
H69   H     H_    0.100424 0.444864 0.722031 0.246683
H70   H     H_    0.095616 0.414797 0.609497 0.187905
H71   H     H_    0.143984 0.383902 0.668408 0.208448
C140  C     C_3   0.872027 0.415361 0.333966 -0.435750
C141  C     C_3   0.880032 0.415386 0.272119 -0.317856
C142  C     C_3   0.905149 0.373983 0.277051 -0.877877
H72   H     H_    0.937957 0.372391 0.332755 0.279444
H73   H     H_    0.885813 0.343846 0.269478 0.253065
H74   H     H_    0.910494 0.374815 0.231816 0.244353
H75   H     H_    0.848015 0.416749 0.215139 0.205991
H76   H     H_    0.899548 0.444883 0.277919 0.246671
H77   H     H_    0.904379 0.414800 0.390469 0.187923
H78   H     H_    0.856010 0.383904 0.331557 0.208404
C143  C     C_3   0.627965 0.915357 0.666006 -0.435749
C144  C     C_3   0.619954 0.915376 0.727844 -0.317849
C145  C     C_3   0.594849 0.873963 0.722911 -0.877892
H79   H     H_    0.562044 0.872358 0.667203 0.279443
H80   H     H_    0.614197 0.843834 0.730493 0.253059
H81   H     H_    0.589498 0.874791 0.768139 0.244364
H82   H     H_    0.651966 0.916752 0.784828 0.206000
H83   H     H_    0.600425 0.944865 0.722033 0.246684
H84   H     H_    0.595616 0.914797 0.609498 0.187907
H85   H     H_    0.643984 0.883902 0.668409 0.208450
C146  C     C_3   0.372028 0.915360 0.333965 -0.435748
C147  C     C_3   0.380037 0.915384 0.272124 -0.317852
C148  C     C_3   0.405149 0.873978 0.277054 -0.877882
H86   H     H_    0.437955 0.872380 0.332761 0.279441
H87   H     H_    0.385807 0.843844 0.269473 0.253063
H88   H     H_    0.410498 0.874809 0.231824 0.244359
H89   H     H_    0.348023 0.916753 0.215142 0.205997
H90   H     H_    0.399560 0.944878 0.277933 0.246677
H91   H     H_    0.404378 0.914799 0.390471 0.187915
H92   H     H_    0.356008 0.883904 0.331553 0.208433
C149  C     C_3   0.227522 0.411651 0.761126 -0.430339
C150  C     C_3   0.230136 0.378069 0.710569 -0.341898
C151  C     C_3   0.240146 0.331634 0.744214 -0.888705
H93   H     H_    0.271717 0.331501 0.801976 0.267717
H94   H     H_    0.212751 0.319873 0.747032 0.256700
H95   H     H_    0.243376 0.308547 0.707935 0.247846
H96   H     H_    0.198693 0.377113 0.652698 0.215198
H97   H     H_    0.256823 0.387736 0.704739 0.219315
H98   H     H_    0.261704 0.419309 0.810852 0.207095
H99   H     H_    0.211511 0.396521 0.785998 0.208773
C152  C     C_3   0.772470 0.411651 0.238872 -0.430367
C153  C     C_3   0.769854 0.378077 0.289432 -0.341875
C154  C     C_3   0.759769 0.331651 0.255728 -0.888683
H100  H     H_    0.728175 0.331553 0.197996 0.267713
H101  H     H_    0.787125 0.319860 0.252823 0.256712
H102  H     H_    0.756548 0.308570 0.292020 0.247845
H103  H     H_    0.801315 0.377087 0.347276 0.215181
H104  H     H_    0.743203 0.387778 0.295337 0.219318
H105  H     H_    0.738288 0.419309 0.189149 0.207130
H106  H     H_    0.788477 0.396513 0.214000 0.208743
C155  C     C_3   0.727522 0.911651 0.761125 -0.430323
C156  C     C_3   0.730134 0.878068 0.710567 -0.341909
C157  C     C_3   0.740144 0.831633 0.744211 -0.888706
H107  H     H_    0.771715 0.831500 0.801973 0.267722
H108  H     H_    0.712748 0.819873 0.747029 0.256702
H109  H     H_    0.743372 0.808546 0.707931 0.247842
H110  H     H_    0.698692 0.877114 0.652696 0.215198
H111  H     H_    0.756822 0.887735 0.704736 0.219311
H112  H     H_    0.761704 0.919309 0.810850 0.207103
H113  H     H_    0.711512 0.896522 0.785998 0.208776
C158  C     C_3   0.272471 0.911655 0.238854 -0.430330
C159  C     C_3   0.269855 0.878073 0.289407 -0.341900
C160  C     C_3   0.259816 0.831642 0.255732 -0.888694
H114  H     H_    0.228235 0.831523 0.197982 0.267719
H115  H     H_    0.287196 0.819872 0.252876 0.256705
H116  H     H_    0.256592 0.808556 0.292014 0.247841
H117  H     H_    0.301305 0.877105 0.347267 0.215191
H118  H     H_    0.243182 0.887752 0.295266 0.219313
H119  H     H_    0.238288 0.919314 0.189132 0.207116
H120  H     H_    0.288479 0.896524 0.213979 0.208761
C161  C     C_3   0.061218 0.274706 0.477580 -0.425293
C162  C     C_3   0.109126 0.280303 0.547952 -0.338514
C163  C     C_3   0.141869 0.256669 0.538278 -0.880362
H121  H     H_    0.134639 0.220659 0.529849 0.264042
H122  H     H_    0.139820 0.270336 0.488871 0.260368
H123  H     H_    0.176139 0.261504 0.589847 0.248482
H124  H     H_    0.117975 0.315975 0.558465 0.215720
H125  H     H_    0.112366 0.266547 0.598383 0.219005
H126  H     H_    0.053743 0.238980 0.464964 0.217386
H127  H     H_    0.057835 0.289437 0.427546 0.197346
C164  C     C_3   0.938779 0.274705 0.522399 -0.425294
C165  C     C_3   0.890871 0.280301 0.452026 -0.338511
C166  C     C_3   0.858126 0.256663 0.461691 -0.880371
H128  H     H_    0.865352 0.220653 0.470102 0.264042
H129  H     H_    0.860178 0.270325 0.511105 0.260369
H130  H     H_    0.823856 0.261502 0.410125 0.248487
H131  H     H_    0.882023 0.315973 0.441523 0.215708
H132  H     H_    0.887632 0.266547 0.401593 0.219008
H133  H     H_    0.946251 0.238979 0.535008 0.217391
H134  H     H_    0.942161 0.289436 0.572434 0.197343
C167  C     C_3   0.561215 0.774706 0.477573 -0.425294
C168  C     C_3   0.609124 0.780305 0.547941 -0.338513
C169  C     C_3   0.641865 0.756667 0.538267 -0.880367
H135  H     H_    0.634638 0.720657 0.529852 0.264040
H136  H     H_    0.639812 0.770328 0.488852 0.260369
H137  H     H_    0.676137 0.761506 0.589831 0.248480
H138  H     H_    0.617973 0.815978 0.558446 0.215719
H139  H     H_    0.612366 0.766553 0.598376 0.219006
H140  H     H_    0.553742 0.738980 0.464961 0.217389
H141  H     H_    0.557830 0.789436 0.427536 0.197344
C170  C     C_3   0.438784 0.774705 0.522411 -0.425295
C171  C     C_3   0.390875 0.780299 0.452042 -0.338511
C172  C     C_3   0.358133 0.756661 0.461714 -0.880370
H142  H     H_    0.365360 0.720651 0.470127 0.264041
H143  H     H_    0.360186 0.770323 0.511129 0.260369
H144  H     H_    0.323862 0.761498 0.410150 0.248480
H145  H     H_    0.382026 0.815971 0.441537 0.215716
H146  H     H_    0.387634 0.766544 0.401608 0.219007
H147  H     H_    0.446258 0.738979 0.535023 0.217391
H148  H     H_    0.442168 0.789437 0.572448 0.197344
O49   O     O_3   0.551019 0.436113 0.866087 -0.584964
C173  C     C_3   0.557371 0.398259 0.835493 -0.304174
H149  H     H_    0.585140 0.403394 0.830247 0.155035
H150  H     H_    0.526442 0.388567 0.780142 0.161201
H151  H     H_    0.566726 0.370268 0.875124 0.188611
O50   O     O_3   0.448987 0.436109 0.133917 -0.584967
C174  C     C_3   0.442724 0.398227 0.164569 -0.304074
H152  H     H_    0.414989 0.403307 0.169918 0.155024
H153  H     H_    0.473694 0.388559 0.219878 0.161167
H154  H     H_    0.433367 0.370241 0.124922 0.188592
O51   O     O_3   0.050985 0.936088 0.866035 -0.584979
C175  C     C_3   0.057077 0.898153 0.835259 -0.303925
H155  H     H_    0.084752 0.903132 0.829722 0.155014
H156  H     H_    0.026031 0.888534 0.780019 0.161110
H157  H     H_    0.066432 0.870177 0.874916 0.188555
O52   O     O_3   0.949016 0.936088 0.133961 -0.584981
C176  C     C_3   0.942970 0.898138 0.164765 -0.303876
H158  H     H_    0.915313 0.903088 0.170356 0.155011
H159  H     H_    0.974037 0.888533 0.219981 0.161093
H160  H     H_    0.933614 0.870164 0.125097 0.188546

loop_
_geom_bond_atom_site_label_1
_geom_bond_atom_site_label_2
_ccdc_geom_bond_type
O8    Zn12  S    
C55   C59   A    
C169  H136  S    
C146  C147  S    
C2    O2    A    
C174  H154  S    
C124  H28   S    
C151  H94   S    
C168  H139  S    
C160  H114  S    
C131  H35   S    
C144  C145  S    
C97   H23   S    
C91   H17   S    
C162  H124  S    
C176  H159  S    
C86   C88   A    
C140  C141  S    
C96   C99   A    
C150  H97   S    
C142  H74   S    
C155  H112  S    
C171  C172  S    
C31   C59   S    
C9    C13   A    
C54   C152  S    
C79   C90   A    
C80   C86   A    
C11   C15   A    
C12   C16   A    
C141  C142  S    
C3    C19   S    
C22   H54   S    
C64   O38   A    
C70   O47   A    
C140  H77   S    
O6    Zn10  S    
O25   Zn3   S    
C106  C118  A    
C147  H89   S    
C103  C117  A    
C41   C49   A    
C166  H129  S    
C78   C89   A    
C25   C29   A    
O26   Zn3   S    
C13   H49   S    
C27   C31   A    
C157  H107  S    
O37   Zn6   S    
C28   C32   A    
C175  H156  S    
C16   H52   S    
C172  H144  S    
C162  C163  S    
C72   O6    A    
C149  C150  S    
C62   C88   S    
C69   C119  S    
C17   C21   A    
C19   C23   A    
C85   H15   S    
C86   H16   S    
O3    Zn2   S    
C123  H27   S    
C10   C30   A    
C151  H93   S    
C16   C20   A    
C121  H25   S    
C152  H106  S    
C42   C72   S    
C61   O30   A    
C45   O25   A    
C44   C74   S    
C69   O45   A    
C62   O32   A    
O19   Zn4   S    
O20   Zn4   S    
O49   C173  S    
C10   H46   S    
C105  C118  A    
C174  H152  S    
C26   H58   S    
C79   C85   A    
C104  C117  A    
C160  H116  S    
C139  H66   S    
C47   O23   A    
C141  H76   S    
C66   O40   A    
C63   O37   A    
C109  H39   S    
C77   C89   A    
C110  H40   S    
C76   C100  S    
O12   Zn11  S    
C46   O22   A    
C108  C111  A    
C172  H143  S    
C76   O15   A    
C158  H119  S    
C49   C53   A    
C95   C99   A    
C127  C131  D    
C78   H10   S    
C4    C20   S    
C125  C129  D    
C71   O5    A    
C94   C102  A    
C155  C156  S    
O44   Zn8   S    
C2    O18   A    
C126  C130  D    
C103  C107  A    
C132  H36   S    
C43   C73   S    
C165  H132  S    
C164  C165  S    
O9    Zn10  S    
C116  C170  S    
C35   H63   S    
O10   Zn9   S    
C5    C133  D    
C82   C115  A    
C137  C138  S    
C48   O28   A    
C154  H101  S    
C168  C169  S    
C92   C96   A    
C153  C154  S    
C68   C112  S    
C133  O49   S    
C61   C87   S    
C156  H111  S    
C70   C120  S    
C71   O9    A    
C81   C114  A    
O34   Zn6   S    
C137  H70   S    
O24   Zn2   S    
C41   C71   S    
C44   C52   A    
C144  H82   S    
C145  H81   S    
C91   C101  A    
C67   O42   A    
C119  C121  A    
C170  H147  S    
C171  H145  S    
C7    H43   S    
C93   H19   S    
C159  C160  S    
C10   C14   A    
C138  H68   S    
C48   O24   A    
C104  H30   S    
C75   O13   A    
C108  H38   S    
C157  H108  S    
C64   O34   A    
C148  H86   S    
C161  H127  S    
C34   H62   S    
C21   H53   S    
C80   H12   S    
O7    Zn11  S    
C75   C99   S    
C24   H56   S    
C146  H92   S    
C126  C134  S    
C42   C50   A    
O23   Zn2   S    
C3    O19   A    
C98   H24   S    
C149  H99   S    
C103  H29   S    
O1    Zn1   S    
C163  H122  S    
C169  H137  S    
C153  H104  S    
O41   Zn5   S    
C52   C146  S    
C93   C97   A    
C97   C100  A    
O45   Zn9   S    
C164  H134  S    
C34   C58   A    
C85   C88   A    
C21   C25   A    
C18   C22   A    
O43   Zn7   S    
C107  C111  A    
C73   O11   A    
C24   C28   A    
C64   C130  S    
C174  H153  S    
C159  H117  S    
C1    O17   A    
C26   C30   A    
C138  C139  S    
C1    C17   S    
C122  H26   S    
C13   C17   A    
C45   O21   A    
C128  H4    S    
O35   Zn7   S    
C162  H125  S    
C176  H158  S    
C9    C29   A    
O52   C176  S    
C28   H60   S    
C37   C41   A    
C110  C112  A    
C9    H45   S    
C91   C95   A    
C40   C44   A    
O2    Zn1   S    
C113  C121  A    
C50   C140  S    
C145  H79   S    
O17   Zn3   S    
O28   Zn4   S    
C120  C124  A    
C70   O48   A    
C83   C87   A    
C173  H149  S    
C8    C136  D    
C3    O3    A    
O18   Zn3   S    
C147  H90   S    
C163  H121  S    
C1    O1    A    
C166  H128  S    
C139  H65   S    
C51   C55   A    
C15   C19   A    
C50   C54   A    
C37   H5    S    
C167  H140  S    
C127  C135  S    
C148  H88   S    
C128  C136  S    
C54   C58   A    
C145  H80   S    
C94   C98   A    
C68   O43   A    
C170  C171  S    
C35   C59   A    
C105  C109  A    
O48   Zn12  S    
C4    O20   A    
C152  H105  S    
C61   O29   A    
C169  H135  S    
C135  O51   S    
O31   Zn7   S    
O14   Zn10  S    
C120  C123  A    
C113  C161  S    
C143  H85   S    
C156  C157  S    
C73   O7    A    
O11   Zn12  S    
C95   H21   S    
C6    H42   S    
C151  H95   S    
C168  H138  S    
C160  H115  S    
O38   Zn5   S    
C115  C123  A    
C167  H141  S    
C176  H160  S    
C53   C57   A    
C79   H11   S    
C173  H151  S    
C125  H1    S    
C5    C45   S    
C150  H96   S    
C33   C37   A    
C155  H113  S    
C56   C60   A    
C74   O12   A    
C7    C47   S    
C35   C39   A    
C158  C159  S    
C8    C48   S    
C76   O16   A    
O47   Zn11  S    
C115  C167  S    
C136  O52   S    
O36   Zn8   S    
C92   C101  A    
C67   C111  S    
C140  H78   S    
C29   C57   S    
C98   C100  A    
C27   H59   S    
C32   C60   S    
C104  C108  A    
C166  H130  S    
C25   H57   S    
C49   C137  S    
C116  C124  A    
O13   Zn9   S    
C65   O35   A    
C36   H64   S    
C175  H155  S    
O30   Zn6   S    
C93   C102  A    
O50   C174  S    
C82   C116  A    
C43   C51   A    
C154  H100  S    
C12   H48   S    
C130  H34   S    
C14   H50   S    
C81   C118  S    
C55   C155  S    
C63   C129  S    
C53   C149  S    
C69   O46   A    
C94   H20   S    
C62   O31   A    
C22   C26   A    
C81   C113  A    
O39   Zn8   S    
C92   H18   S    
C82   C117  S    
O27   Zn4   S    
C83   H13   S    
C84   H14   S    
C139  H67   S    
C96   H22   S    
C152  C153  S    
C144  H83   S    
C141  H75   S    
C89   C102  S    
C2    C18   S    
C14   C18   A    
O32   Zn8   S    
C84   C87   A    
C23   H55   S    
C67   O41   A    
O51   C175  S    
C74   O8    A    
C161  C162  S    
C171  H146  S    
C129  H33   S    
C147  C148  S    
C38   C42   A    
C138  H69   S    
O5    Zn9   S    
C158  H120  S    
C4    O4    A    
C77   C83   A    
O15   Zn11  S    
C8    H44   S    
C142  H73   S    
C161  H126  S    
C72   O10   A    
C20   C24   A    
C23   C27   A    
C146  H91   S    
O33   Zn5   S    
O4    Zn2   S    
C11   C31   A    
C165  H131  S    
C165  C166  S    
C38   H6    S    
C127  H3    S    
C175  H157  S    
C128  C132  D    
C65   C131  S    
C164  H133  S    
C66   C132  S    
C36   C40   A    
C11   H47   S    
C109  C112  A    
C159  H118  S    
C154  H102  S    
C39   C43   A    
C107  H37   S    
C143  C144  S    
C15   H51   S    
C105  H31   S    
C66   O36   A    
C106  H32   S    
C90   C101  S    
C7    C135  D    
O46   Zn10  S    
C114  C164  S    
C63   O33   A    
C156  H110  S    
C33   H61   S    
C142  H72   S    
C46   O26   A    
C47   O27   A    
C5    H41   S    
C137  H71   S    
C39   H7    S    
C40   H8    S    
O42   Zn6   S    
O16   Zn12  S    
C77   H9    S    
C106  C110  A    
C119  C122  A    
C125  C133  S    
C150  C151  S    
C126  H2    S    
O40   Zn7   S    
C173  H150  S    
C170  H148  S    
C6    C46   S    
C34   C38   A    
C51   C143  S    
O21   Zn1   S    
C36   C60   A    
O29   Zn5   S    
C33   C57   A    
C167  C168  S    
C75   O14   A    
C134  O50   S    
C157  H109  S    
C148  H87   S    
C56   C158  S    
C172  H142  S    
C68   O44   A    
C30   C58   S    
C80   C90   A    
C149  H98   S    
C114  C122  A    
O22   Zn1   S    
C78   C84   A    
C6    C134  D    
C163  H123  S    
C153  H103  S    
C65   O39   A    
C12   C32   A    
C52   C56   A    
C143  H84   S    
