data_mof_unit_66314.cif
_audit_creation_date              2012-12-10T18:04:26-0500
_audit_creation_method            fapswitch 2.2
_symmetry_space_group_name_H-M    P1
_symmetry_Int_Tables_number       1
_space_group_crystal_system       triclinic
_cell_length_a                    31.581001
_cell_length_b                    18.294161
_cell_length_c                    25.746662
_cell_angle_alpha                 89.996206
_cell_angle_beta                  144.560449
_cell_angle_gamma                 90.005709
_cell_volume                      8625.22176845

loop_
_atom_site_label
_atom_site_type_symbol
_atom_type_description
_atom_site_fract_x
_atom_site_fract_y
_atom_site_fract_z
_atom_type_partial_charge
Br1   Br    Br    0.924933 0.796895 0.656589 -0.441682
Br2   Br    Br    0.075067 0.203105 0.343412 -0.441682
Br3   Br    Br    0.075136 0.796766 0.343923 -0.443327
Br4   Br    Br    0.924864 0.203234 0.656077 -0.443327
Br5   Br    Br    0.424935 0.296896 0.656598 -0.442102
Br6   Br    Br    0.575064 0.703103 0.343400 -0.442100
Br7   Br    Br    0.575138 0.296765 0.343933 -0.442970
Br8   Br    Br    0.424862 0.703235 0.656067 -0.442970
C1    C     C_R   0.860762 0.640862 0.111628 0.500281
C2    C     C_R   0.195785 0.303311 0.446154 0.035803
C3    C     C_R   0.324013 0.729264 0.568578 0.090422
C4    C     C_R   0.195786 0.696685 0.446158 0.037268
C5    C     C_R   0.804213 0.303315 0.553842 0.037269
C6    C     C_R   0.304215 0.196689 0.553848 0.035429
C7    C     C_R   0.695785 0.803311 0.446152 0.035428
C8    C     C_R   0.695787 0.196685 0.446159 0.037646
C9    C     C_R   0.304213 0.803315 0.553840 0.037646
C10   C     C_R   0.771441 0.720454 0.069762 0.240267
C11   C     C_R   0.228559 0.279546 0.930238 0.240266
C12   C     C_R   0.228609 0.720408 0.930302 0.240567
C13   C     C_R   0.139238 0.359138 0.888372 0.500280
C14   C     C_R   0.771390 0.279592 0.069698 0.240569
C15   C     C_R   0.271429 0.220439 0.069736 0.239927
C16   C     C_R   0.728571 0.779561 0.930264 0.239928
C17   C     C_R   0.728597 0.220423 0.930275 0.240897
C18   C     C_R   0.271403 0.779577 0.069725 0.240897
C19   C     C_R   0.215071 0.271048 0.010889 -0.071956
C20   C     C_R   0.784928 0.728952 0.989111 -0.071956
C21   C     C_R   0.784951 0.271043 0.989125 -0.068539
C22   C     C_R   0.215049 0.728957 0.010875 -0.068539
C23   C     C_R   0.715086 0.771068 0.010918 -0.068804
C24   C     C_R   0.139240 0.640855 0.888377 0.501949
C25   C     C_R   0.284914 0.228932 0.989082 -0.068804
C26   C     C_R   0.284966 0.771023 0.989155 -0.071670
C27   C     C_R   0.715034 0.228977 0.010845 -0.071670
C28   C     C_R   0.194267 0.301880 0.942589 -0.007584
C29   C     C_R   0.805733 0.698120 0.057411 -0.007583
C30   C     C_R   0.805723 0.301896 0.057393 -0.008773
C31   C     C_R   0.194277 0.698104 0.942607 -0.008774
C32   C     C_R   0.694277 0.801893 0.942612 -0.008383
C33   C     C_R   0.305723 0.198107 0.057388 -0.008382
C34   C     C_R   0.305733 0.801883 0.057416 -0.007975
C35   C     C_R   0.860759 0.359144 0.111623 0.501949
C36   C     C_R   0.694267 0.198117 0.942584 -0.007975
C37   C     C_R   0.048308 0.548501 0.522829 0.235721
C38   C     C_R   0.951691 0.451499 0.477170 0.235722
C39   C     C_R   0.548309 0.048500 0.522830 0.235576
C40   C     C_R   0.451691 0.951499 0.477170 0.235577
C41   C     C_R   0.049128 0.543148 0.577056 -0.072574
C42   C     C_R   0.950872 0.456852 0.422944 -0.072574
C43   C     C_R   0.549128 0.043147 0.577056 -0.072521
C44   C     C_R   0.450872 0.956852 0.422943 -0.072520
C45   C     C_R   0.000580 0.496337 0.553938 -0.008396
C46   C     C_R   0.360758 0.140857 0.111618 0.501304
C47   C     C_R   0.999420 0.503663 0.446062 -0.008396
C48   C     C_R   0.500580 0.996337 0.553938 -0.008671
C49   C     C_R   0.499420 0.003663 0.446062 -0.008671
C50   C     C_R   0.139671 0.359636 0.390012 0.594607
C51   C     C_R   0.860329 0.640363 0.609988 0.594607
C52   C     C_R   0.860330 0.359637 0.609988 0.594142
C53   C     C_R   0.139670 0.640363 0.390012 0.594142
C54   C     C_R   0.639671 0.859636 0.390011 0.596238
C55   C     C_R   0.360329 0.140364 0.609988 0.596239
C56   C     C_R   0.360330 0.859637 0.609988 0.592501
C57   C     C_R   0.639242 0.859143 0.888382 0.501303
C58   C     C_R   0.639670 0.140363 0.390012 0.592501
C59   C     C_R   0.999917 0.501724 0.391123 0.486667
C60   C     C_R   0.000083 0.498276 0.608877 0.486667
C61   C     C_R   0.499917 0.001724 0.391123 0.486614
C62   C     C_R   0.500083 0.998275 0.608877 0.486614
C63   C     C_R   0.000042 0.500084 0.108434 0.546392
C64   C     C_R   0.999957 0.499915 0.891566 0.546392
C65   C     C_R   0.500043 0.999919 0.108434 0.546428
C66   C     C_R   0.499957 0.000081 0.891566 0.546428
C67   C     C_3   0.000112 0.570082 0.017156 -0.123782
C68   C     C_R   0.639236 0.140861 0.888367 0.500953
C69   C     C_3   0.999888 0.429918 0.982844 -0.123782
C70   C     C_3   0.939536 0.535115 0.922223 -0.142111
C71   C     C_3   0.060464 0.464885 0.077777 -0.142111
C72   C     C_3   0.560460 0.035134 0.077767 -0.141632
C73   C     C_3   0.439540 0.964866 0.922233 -0.141632
C74   C     C_3   0.499879 0.070080 0.982826 -0.123780
C75   C     C_3   0.500121 0.929920 0.017174 -0.123781
C76   C     C_3   0.058495 0.533537 0.041291 0.229336
C77   C     C_3   0.941505 0.466463 0.958708 0.229337
C78   C     C_3   0.558499 0.966478 0.041300 0.229224
C79   C     C_R   0.360764 0.859139 0.111633 0.500953
C80   C     C_3   0.441501 0.033522 0.958700 0.229224
C81   C     C_3   0.999392 0.499485 0.948201 0.052163
C82   C     C_3   0.000608 0.500515 0.051799 0.052163
C83   C     C_3   0.499392 0.000508 0.948200 0.052034
C84   C     C_3   0.500608 0.999492 0.051800 0.052034
C85   C     C_R   0.269237 0.324693 0.514966 0.222473
C86   C     C_R   0.730763 0.675307 0.485034 0.222472
C87   C     C_R   0.730783 0.324672 0.485241 0.224854
C88   C     C_R   0.269217 0.675328 0.514759 0.224854
C89   C     C_R   0.769237 0.824692 0.514965 0.222384
C90   C     C_R   0.804215 0.696689 0.553846 0.035802
C91   C     C_R   0.230763 0.175307 0.485036 0.222385
C92   C     C_R   0.230783 0.824672 0.485239 0.224939
C93   C     C_R   0.769217 0.175327 0.514760 0.224939
C94   C     C_R   0.824036 0.770768 0.568794 0.089577
C95   C     C_R   0.175964 0.229232 0.431206 0.089577
C96   C     C_R   0.175986 0.770736 0.431419 0.090072
C97   C     C_R   0.824014 0.229263 0.568581 0.090072
C98   C     C_R   0.324036 0.270769 0.568797 0.089229
C99   C     C_R   0.675964 0.729231 0.431202 0.089229
C100  C     C_R   0.675987 0.270736 0.431422 0.090422
H1    H     H_    0.001761 0.627343 0.033022 0.158618
H2    H     H_    0.810570 0.711272 0.978912 0.176170
H3    H     H_    0.810621 0.288710 0.978958 0.187481
H4    H     H_    0.189379 0.711290 0.021042 0.187481
H5    H     H_    0.689448 0.788755 0.021121 0.186951
H6    H     H_    0.310552 0.211245 0.978879 0.186951
H7    H     H_    0.310639 0.788683 0.978991 0.176786
H8    H     H_    0.689361 0.211317 0.021009 0.176786
H9    H     H_    0.085824 0.578018 0.635649 0.181431
H10   H     H_    0.914176 0.421982 0.364351 0.181431
H11   H     H_    0.585825 0.078017 0.635649 0.181867
H12   H     H_    0.998238 0.372657 0.966978 0.158618
H13   H     H_    0.414175 0.921983 0.364351 0.181867
H14   H     H_    0.148084 0.585278 0.141929 0.339619
H15   H     H_    0.851916 0.414722 0.858071 0.339619
H16   H     H_    0.648097 0.914768 0.141953 0.338569
H17   H     H_    0.351903 0.085232 0.858047 0.338569
H18   H     H_    0.337100 0.407508 0.583153 0.381923
H19   H     H_    0.662900 0.592492 0.416844 0.381922
H20   H     H_    0.662915 0.407472 0.417383 0.382098
H21   H     H_    0.337085 0.592528 0.582617 0.382098
H22   H     H_    0.837100 0.907507 0.583156 0.381985
H23   H     H_    0.889469 0.562443 0.857571 0.145231
H24   H     H_    0.162900 0.092493 0.416847 0.381985
H25   H     H_    0.162915 0.907473 0.417382 0.382032
H26   H     H_    0.837085 0.092527 0.582617 0.382032
H27   H     H_    0.844032 0.680782 0.189626 0.345708
H28   H     H_    0.155968 0.319217 0.810374 0.345708
H29   H     H_    0.156058 0.680710 0.810446 0.343821
H30   H     H_    0.843942 0.319290 0.189553 0.343822
H31   H     H_    0.344027 0.180791 0.189611 0.345478
H32   H     H_    0.655972 0.819209 0.810389 0.345479
H33   H     H_    0.656053 0.180701 0.810432 0.344024
H34   H     H_    0.110530 0.437557 0.142429 0.145231
H35   H     H_    0.343947 0.819299 0.189568 0.344024
H36   H     H_    0.074772 0.612642 0.491924 0.343719
H37   H     H_    0.925228 0.387358 0.508076 0.343719
H38   H     H_    0.574774 0.112641 0.491926 0.343507
H39   H     H_    0.425226 0.887359 0.508075 0.343506
H40   H     H_    0.610523 0.062479 0.142412 0.146315
H41   H     H_    0.389477 0.937521 0.857588 0.146315
H42   H     H_    0.498223 0.127339 0.966944 0.158502
H43   H     H_    0.501777 0.872661 0.033056 0.158502
H44   H     H_    0.189430 0.288728 0.021088 0.176170
O1    O     O_3   0.999990 0.500000 0.250040 -0.485766
O2    O     O_R   0.585480 0.853830 0.866170 -0.521165
O3    O     O_R   0.585480 0.146170 0.866170 -0.526599
O4    O     O_R   0.414520 0.853830 0.133830 -0.526599
O5    O     O_R   0.085470 0.353820 0.304740 -0.512598
O6    O     O_R   0.914530 0.646180 0.695260 -0.512598
O7    O     O_R   0.914530 0.353820 0.695260 -0.511784
O8    O     O_R   0.085470 0.646180 0.304740 -0.511784
O9    O     O_R   0.585470 0.853820 0.304740 -0.511883
O10   O     O_R   0.414530 0.146180 0.695260 -0.511883
O11   O     O_R   0.414530 0.853820 0.695260 -0.512497
O12   O     O_3   0.000010 0.500000 0.749960 -0.485766
O13   O     O_R   0.585470 0.146180 0.304740 -0.512497
O14   O     O_R   0.853810 0.414550 0.134600 -0.519363
O15   O     O_R   0.146190 0.585450 0.865400 -0.519364
O16   O     O_R   0.146190 0.414550 0.865400 -0.517643
O17   O     O_R   0.853810 0.585450 0.134600 -0.517642
O18   O     O_R   0.353810 0.914550 0.134600 -0.518453
O19   O     O_R   0.646190 0.085450 0.865400 -0.518453
O20   O     O_R   0.646190 0.914550 0.865400 -0.518557
O21   O     O_R   0.353810 0.085450 0.134600 -0.518556
O22   O     O_R   0.146170 0.585430 0.426970 -0.485317
O23   O     O_3   0.499990 0.000000 0.250040 -0.485768
O24   O     O_R   0.853830 0.414570 0.573030 -0.485317
O25   O     O_R   0.853830 0.585430 0.573030 -0.483246
O26   O     O_R   0.146170 0.414570 0.426970 -0.483246
O27   O     O_R   0.646170 0.085430 0.426970 -0.486023
O28   O     O_R   0.353830 0.914570 0.573030 -0.486024
O29   O     O_R   0.353830 0.085430 0.573030 -0.482563
O30   O     O_R   0.646170 0.914570 0.426970 -0.482563
O31   O     O_R   0.939250 0.500000 0.306600 -0.543648
O32   O     O_R   0.060750 0.500000 0.693400 -0.543648
O33   O     O_R   0.439250 0.000000 0.306600 -0.543696
O34   O     O_3   0.500010 0.000000 0.749960 -0.485768
O35   O     O_R   0.560750 0.000000 0.693400 -0.543695
O36   O     O_R   0.999990 0.560720 0.132740 -0.549238
O37   O     O_R   0.000010 0.439280 0.867260 -0.549238
O38   O     O_R   0.000010 0.560720 0.867260 -0.509048
O39   O     O_R   0.999990 0.439280 0.132740 -0.509048
O40   O     O_R   0.499990 0.060720 0.132740 -0.508620
O41   O     O_R   0.500010 0.939280 0.867260 -0.508620
O42   O     O_R   0.500010 0.060720 0.867260 -0.549616
O43   O     O_R   0.499990 0.939280 0.132740 -0.549616
O44   O     O_R   0.060720 0.500000 0.428060 -0.524293
O45   O     O_R   0.914520 0.646170 0.133830 -0.527159
O46   O     O_R   0.939280 0.500000 0.571940 -0.524293
O47   O     O_R   0.560720 0.000000 0.428060 -0.524261
O48   O     O_R   0.439280 0.000000 0.571940 -0.524263
O49   O     O_3   0.120178 0.568919 0.083171 -0.654024
O50   O     O_3   0.879822 0.431081 0.916829 -0.654024
O51   O     O_3   0.620185 0.931110 0.083188 -0.654645
O52   O     O_3   0.379815 0.068890 0.916812 -0.654644
O53   O     O_3   0.284530 0.398462 0.525103 -0.630692
O54   O     O_3   0.715470 0.601538 0.474895 -0.630690
O55   O     O_3   0.715518 0.398421 0.475293 -0.629941
O56   O     O_R   0.085480 0.353830 0.866170 -0.527159
O57   O     O_3   0.284481 0.601579 0.524707 -0.629941
O58   O     O_3   0.784530 0.898462 0.525103 -0.630731
O59   O     O_3   0.215470 0.101538 0.474898 -0.630732
O60   O     O_3   0.215518 0.898421 0.475291 -0.629899
O61   O     O_3   0.784481 0.101579 0.524708 -0.629899
O62   O     O_3   0.792313 0.696326 0.139211 -0.643609
O63   O     O_3   0.207687 0.303674 0.860789 -0.643608
O64   O     O_3   0.207784 0.696244 0.860897 -0.646885
O65   O     O_3   0.792216 0.303756 0.139103 -0.646885
O66   O     O_3   0.292301 0.196313 0.139185 -0.647242
O67   O     O_R   0.085480 0.646170 0.866170 -0.520642
O68   O     O_3   0.707699 0.803687 0.860814 -0.647242
O69   O     O_3   0.707773 0.196257 0.860872 -0.643343
O70   O     O_3   0.292227 0.803743 0.139128 -0.643343
O71   O     O_3   0.094216 0.599091 0.545891 -0.642883
O72   O     O_3   0.905783 0.400909 0.454109 -0.642883
O73   O     O_3   0.594218 0.099090 0.545893 -0.642528
O74   O     O_3   0.405784 0.900908 0.454108 -0.642528
O75   O     O_R   0.914520 0.353830 0.133830 -0.520642
O76   O     O_R   0.414520 0.146170 0.133830 -0.521165
Zn1   Zn    Zn3+2 0.000000 0.413230 0.206100 1.013455
Zn2   Zn    Zn3+2 0.086780 0.500000 0.792790 0.983968
Zn3   Zn    Zn3+2 0.413220 0.000000 0.207210 0.983945
Zn4   Zn    Zn3+2 0.586780 0.000000 0.792790 0.983944
Zn5   Zn    Zn3+2 0.086760 0.500000 0.380740 1.029113
Zn6   Zn    Zn3+2 0.913240 0.500000 0.619260 1.029112
Zn7   Zn    Zn3+2 0.586760 0.000000 0.380740 1.029086
Zn8   Zn    Zn3+2 0.413240 0.000000 0.619260 1.029086
Zn9   Zn    Zn3+2 0.000000 0.586770 0.793900 1.013455
Zn10  Zn    Zn3+2 0.000000 0.413230 0.793900 0.992136
Zn11  Zn    Zn3+2 0.000000 0.586770 0.206100 0.992136
Zn12  Zn    Zn3+2 0.500000 0.913230 0.206100 0.994061
Zn13  Zn    Zn3+2 0.500000 0.086770 0.793900 0.994061
Zn14  Zn    Zn3+2 0.500000 0.913230 0.793900 1.011615
Zn15  Zn    Zn3+2 0.500000 0.086770 0.206100 1.011615
Zn16  Zn    Zn3+2 0.913220 0.500000 0.207210 0.983968

loop_
_geom_bond_atom_site_label_1
_geom_bond_atom_site_label_2
_ccdc_geom_bond_type
C76   O49   S    
Br3   C96   S    
C55   O10   A    
C91   C95   A    
O2    Zn14  S    
H17   O52   S    
C19   H44   S    
C55   O29   A    
O8    Zn11  S    
C61   O33   A    
O14   Zn16  S    
O41   Zn14  S    
C3    C88   A    
C1    O17   A    
C86   O54   S    
C52   O7    A    
C63   O36   A    
C69   H12   S    
C85   O53   S    
H35   O70   S    
C66   O42   A    
O20   Zn4   S    
O5    Zn1   S    
C6    C91   A    
H37   O72   S    
C91   O59   S    
O4    Zn12  S    
O23   Zn15  S    
C14   C27   A    
H24   O59   S    
C18   C34   A    
C25   H6    S    
H26   O61   S    
C5    C87   A    
C12   O64   S    
H14   O49   S    
C60   O46   A    
C2    C95   A    
O42   Zn13  S    
H19   O54   S    
C87   C100  A    
C4    C96   A    
C40   C44   A    
C11   C28   A    
C9    C56   S    
C71   C76   S    
C56   O28   A    
C51   O6    A    
C74   C80   S    
C67   C76   S    
H27   O62   S    
C54   O30   A    
O44   Zn5   S    
C86   C90   A    
H18   O53   S    
O23   Zn12  S    
C14   C30   A    
C92   C96   A    
C38   O72   S    
C23   C32   A    
C5    C52   S    
O11   Zn14  S    
O12   Zn2   S    
C43   C48   A    
C24   C31   S    
C7    C99   A    
C36   C68   S    
C45   C60   S    
C71   C82   S    
C72   C78   S    
O21   Zn3   S    
C67   C82   S    
C24   O15   A    
H32   O68   S    
O24   Zn6   S    
C80   C84   S    
H30   O65   S    
C93   O61   S    
H36   O71   S    
C26   C34   A    
C21   C30   A    
C18   O70   S    
C43   H11   S    
Br6   C99   S    
C17   O69   S    
O13   Zn15  S    
H20   O55   S    
C15   C19   A    
C75   H43   S    
C89   C94   A    
H15   O50   S    
H28   O63   S    
C12   C26   A    
C15   O66   S    
C69   C77   S    
O40   Zn15  S    
C72   H40   S    
C17   C21   A    
O34   Zn13  S    
O1    Zn1   S    
C49   C61   S    
C10   O62   S    
O38   Zn9   S    
C67   C70   S    
C7    C89   A    
C56   O11   A    
O37   Zn10  S    
C17   C36   A    
C64   O38   A    
C73   C75   S    
H39   O74   S    
C1    O45   A    
O34   Zn8   S    
Br5   C98   S    
C69   C71   S    
C70   C81   S    
C93   C97   A    
C79   O4    A    
O33   Zn3   S    
C41   H9    S    
C86   C99   A    
C67   H1    S    
O23   Zn3   S    
C89   O58   S    
O1    Zn11  S    
H16   O51   S    
O12   Zn6   S    
C65   O40   A    
O48   Zn8   S    
O43   Zn12  S    
C51   O25   A    
O27   Zn7   S    
O46   Zn6   S    
C53   O8    A    
O56   Zn10  S    
C13   C28   S    
C12   C31   A    
C24   O67   A    
C39   C43   A    
C57   O20   A    
C2    C85   A    
C20   H2    S    
C26   H7    S    
C90   C94   A    
C79   O18   A    
C92   O60   S    
C74   C83   S    
C22   H4    S    
C37   O71   S    
C66   C83   S    
C72   C84   S    
C68   O19   A    
C70   H23   S    
C57   O2    A    
C75   C84   S    
O47   Zn7   S    
C85   C98   A    
C39   C49   A    
C40   O74   S    
C44   H13   S    
C87   O55   S    
C39   O73   S    
C37   C41   A    
H31   O66   S    
O39   Zn1   S    
C69   C81   S    
O18   Zn3   S    
C35   O75   A    
C1    C29   S    
O1    Zn5   S    
C27   H8    S    
C50   O26   A    
C80   O52   S    
O10   Zn13  S    
C27   C36   A    
C13   O16   A    
C73   C83   S    
C46   O76   A    
C74   H42   S    
C59   O31   A    
C77   O50   S    
C7    C54   S    
O35   Zn4   S    
O3    Zn13  S    
C70   C77   S    
C5    C97   A    
O75   Zn1   S    
C14   O65   S    
O28   Zn8   S    
C18   C22   A    
C48   C62   S    
C32   C57   S    
C65   O43   A    
H29   O64   S    
O12   Zn10  S    
C52   O24   A    
O9    Zn12  S    
H22   O58   S    
C8    C58   S    
O31   Zn16  S    
O17   Zn16  S    
H21   O57   S    
C59   O44   A    
O22   Zn5   S    
C16   O68   S    
C64   O37   A    
C46   O21   A    
O15   Zn2   S    
O34   Zn14  S    
C58   O27   A    
C35   O14   A    
C40   C48   A    
O7    Zn10  S    
O19   Zn4   S    
C60   O32   A    
C73   H41   S    
C62   O48   A    
C88   O57   S    
C58   O13   A    
C2    C50   S    
C42   H10   S    
C10   C29   A    
C53   O22   A    
C16   C20   A    
C65   C84   S    
C11   C25   A    
C54   O9    A    
C50   O5    A    
C3    C9    A    
O26   Zn5   S    
C47   C59   S    
C77   C82   S    
O25   Zn6   S    
C10   C23   A    
H38   O73   S    
C62   O35   A    
C19   C28   A    
Br4   C97   S    
C38   C42   A    
C68   O3    A    
O23   Zn7   S    
C42   C47   A    
C15   C33   A    
C78   C83   S    
C25   C33   A    
O67   Zn9   S    
O32   Zn2   S    
C30   C35   S    
O36   Zn11  S    
C4    C53   S    
O45   Zn11  S    
O29   Zn8   S    
C63   C82   S    
C13   O56   A    
C20   C29   A    
Br8   C3    S    
C41   C45   A    
C6    C55   S    
Br1   C94   S    
C38   C45   A    
O30   Zn7   S    
C16   C32   A    
C72   C74   S    
C22   C31   A    
C11   O63   S    
O76   Zn15  S    
C21   H3    S    
C9    C92   A    
Br2   C95   S    
C33   C46   S    
C66   O41   A    
C73   C80   S    
C44   C49   A    
C8    C100  A    
O6    Zn9   S    
O16   Zn2   S    
C71   H34   S    
C8    C93   A    
C6    C98   A    
C75   C78   S    
O34   Zn4   S    
C37   C47   A    
C76   C81   S    
O1    Zn16  S    
O12   Zn9   S    
C61   O47   A    
C51   C90   S    
Br7   C100  S    
C4    C88   A    
C64   C81   S    
C34   C79   S    
C63   O39   A    
C78   O51   S    
C23   H5    S    
H25   O60   S    
H33   O69   S    
