data_mof_unit_59845.cif
_audit_creation_date              2012-12-10T18:54:28-0500
_audit_creation_method            fapswitch 2.2
_symmetry_space_group_name_H-M    P1
_symmetry_Int_Tables_number       1
_space_group_crystal_system       triclinic
_cell_length_a                    19.408457
_cell_length_b                    18.12744
_cell_length_c                    9.083165
_cell_angle_alpha                 89.995082
_cell_angle_beta                  90.16604
_cell_angle_gamma                 89.889518
_cell_volume                      3195.67096384

loop_
_atom_site_label
_atom_site_type_symbol
_atom_type_description
_atom_site_fract_x
_atom_site_fract_y
_atom_site_fract_z
_atom_type_partial_charge
C1    C     C_R   0.367379 0.500065 0.499824 0.801372
C2    C     C_R   0.632591 0.499940 0.500114 0.802067
C3    C     C_R   0.454598 0.721073 0.413303 -0.059144
C4    C     C_R   0.544849 0.279173 0.588470 -0.058040
C5    C     C_R   0.545835 0.720545 0.586220 -0.056114
C6    C     C_R   0.455323 0.279172 0.411461 -0.058249
C7    C     C_R   0.452485 0.799166 0.413417 0.303523
C8    C     C_R   0.547460 0.201117 0.588246 0.303082
C9    C     C_R   0.548777 0.798564 0.585451 0.302584
C10   C     C_R   0.453066 0.201105 0.411611 0.303253
C11   C     C_R   0.500701 0.838525 0.499613 -0.075767
C12   C     C_R   0.500353 0.161493 0.499915 -0.076634
C13   C     C_R   0.561179 0.961254 0.469065 -0.138022
C14   C     C_R   0.440046 0.038841 0.530738 -0.139101
C15   C     C_R   0.440172 0.961330 0.530881 -0.138449
C16   C     C_R   0.561089 0.038781 0.469249 -0.139597
C17   C     C_R   0.500505 0.078632 0.499970 0.222368
C18   C     C_R   0.500726 0.921433 0.499954 0.220067
C19   C     C_R   0.499962 0.500002 0.220362 0.854058
C20   C     C_R   0.500038 0.499998 0.779637 0.853869
C21   C     C_1   0.499986 0.500002 0.065468 -0.189636
C22   C     C_1   0.500015 0.499996 0.934532 -0.189684
C23   C     C_R   0.744660 0.432944 0.498912 -0.202491
C24   C     C_R   0.255351 0.567067 0.501481 -0.202711
C25   C     C_R   0.255487 0.433386 0.499222 -0.202417
C26   C     C_R   0.744381 0.566574 0.497895 -0.226518
C27   C     C_R   0.817044 0.431723 0.496933 0.087285
C28   C     C_R   0.183042 0.568363 0.502326 0.095761
C29   C     C_R   0.183196 0.432188 0.500012 0.094868
C30   C     C_R   0.816294 0.567548 0.495525 0.101804
C31   C     C_R   0.852735 0.499858 0.495586 0.016283
C32   C     C_R   0.147291 0.500303 0.500936 0.002282
C33   C     C_R   0.708338 0.499819 0.499288 -0.095161
C34   C     C_R   0.291550 0.500191 0.500009 -0.103179
C35   C     C_R   0.964480 0.498017 0.363948 -0.204414
C36   C     C_R   0.035433 0.502429 0.632691 -0.197811
C37   C     C_R   0.036194 0.498233 0.365323 -0.194912
C38   C     C_R   0.963713 0.502379 0.631309 -0.177522
C39   C     C_R   0.071670 0.500353 0.499687 0.089494
C40   C     C_R   0.928255 0.500057 0.496957 0.095315
Cu1   Cu    Cu3+1 0.500000 0.573360 0.500000 0.937009
Cu2   Cu    Cu3+1 0.500000 0.426640 0.500000 0.936499
H1    H     H_    0.715776 0.382088 0.500262 0.145219
H2    H     H_    0.284285 0.617899 0.501941 0.145345
H3    H     H_    0.284524 0.382512 0.497920 0.145566
H4    H     H_    0.716557 0.618493 0.498061 0.148502
H5    H     H_    0.937139 0.496301 0.259876 0.131710
H6    H     H_    0.062773 0.504072 0.736767 0.130208
H7    H     H_    0.064124 0.496658 0.262294 0.131234
H8    H     H_    0.935785 0.503935 0.734339 0.124525
H9    H     H_    0.420426 0.689937 0.342802 0.136990
H10   H     H_    0.578259 0.310466 0.660359 0.137649
H11   H     H_    0.579909 0.689047 0.656563 0.137444
H12   H     H_    0.421806 0.310461 0.339540 0.137600
H13   H     H_    0.608410 0.932286 0.442885 0.137951
H14   H     H_    0.392767 0.067843 0.556455 0.136039
H15   H     H_    0.392984 0.932411 0.556835 0.137528
H16   H     H_    0.608279 0.067747 0.443491 0.136033
N1    N     N_R   0.500000 0.683620 0.500000 -0.203326
N2    N     N_R   0.500000 0.316380 0.500000 -0.203298
O1    O     O_R   0.400190 0.561980 0.499980 -0.589352
O2    O     O_R   0.599810 0.438020 0.500020 -0.590019
O3    O     O_R   0.599810 0.561980 0.500020 -0.588796
O4    O     O_R   0.400190 0.438020 0.499980 -0.588993
O5    O     O_R   0.500000 0.561940 0.288400 -0.573701
O6    O     O_R   0.500000 0.438060 0.711600 -0.574266
O7    O     O_R   0.500000 0.561940 0.711600 -0.574079
O8    O     O_R   0.500000 0.438060 0.288400 -0.574268
C41   C     C_3   0.857793 0.359537 0.496226 -0.386718
C42   C     C_3   0.815021 0.288251 0.496186 -0.379682
C43   C     C_3   0.861457 0.220215 0.493157 -0.853550
H17   H     H_    0.894585 0.220857 0.393637 0.254702
H18   H     H_    0.894561 0.218479 0.593076 0.252883
H19   H     H_    0.829265 0.169670 0.490288 0.240178
H20   H     H_    0.782879 0.285906 0.597139 0.210445
H21   H     H_    0.781066 0.286830 0.397443 0.219484
H22   H     H_    0.891067 0.359061 0.396791 0.202856
H23   H     H_    0.891911 0.358775 0.594776 0.202029
C44   C     C_3   0.142334 0.640580 0.504806 -0.386494
C45   C     C_3   0.185104 0.711837 0.507797 -0.380622
C46   C     C_3   0.138636 0.779826 0.512670 -0.855531
H24   H     H_    0.105797 0.782436 0.412429 0.252817
H25   H     H_    0.105228 0.778291 0.611730 0.254360
H26   H     H_    0.170805 0.830349 0.517714 0.241284
H27   H     H_    0.218815 0.712404 0.606956 0.220014
H28   H     H_    0.217485 0.715035 0.407302 0.210563
H29   H     H_    0.108498 0.642159 0.405844 0.202536
H30   H     H_    0.108767 0.640298 0.603790 0.203843
C47   C     C_3   0.142699 0.359989 0.500470 -0.385410
C48   C     C_3   0.185706 0.288699 0.503128 -0.381500
C49   C     C_3   0.139497 0.220683 0.506509 -0.853132
H31   H     H_    0.105906 0.221804 0.605304 0.254723
H32   H     H_    0.106862 0.218466 0.405936 0.252860
H33   H     H_    0.171857 0.170155 0.511033 0.240342
H34   H     H_    0.218363 0.285806 0.402988 0.210160
H35   H     H_    0.219160 0.287815 0.602681 0.220042
H36   H     H_    0.108691 0.359912 0.598787 0.203603
H37   H     H_    0.109318 0.358810 0.400818 0.202024
C50   C     C_3   0.852208 0.641749 0.492738 -0.412020
C51   C     C_3   0.852588 0.676929 0.646170 -0.337301
C52   C     C_3   0.891769 0.749821 0.645963 -0.865393
H38   H     H_    0.946484 0.740518 0.615286 0.257219
H39   H     H_    0.867898 0.788997 0.566703 0.250792
H40   H     H_    0.890138 0.774644 0.757652 0.240062
H41   H     H_    0.798800 0.687306 0.682678 0.208222
H42   H     H_    0.877532 0.638837 0.726183 0.220717
H43   H     H_    0.905928 0.636841 0.452312 0.212154
H44   H     H_    0.825101 0.678794 0.413859 0.186950
O9    O     O_3   0.409126 0.838163 0.319496 -0.559553
C53   C     C_3   0.340072 0.814869 0.335147 0.051385
H45   H     H_    0.326183 0.805161 0.452712 0.125453
H46   H     H_    0.331060 0.763762 0.270361 0.138943
C54   C     C_3   0.292557 0.874587 0.275022 -0.772962
H47   H     H_    0.305124 0.886113 0.158053 0.258578
H48   H     H_    0.238169 0.856100 0.281866 0.198479
H49   H     H_    0.298664 0.926031 0.340117 0.237263
O10   O     O_3   0.590295 0.162421 0.683671 -0.558998
C55   C     C_3   0.659452 0.185456 0.668558 0.051836
H50   H     H_    0.668318 0.237053 0.731871 0.138205
H51   H     H_    0.673819 0.194226 0.550961 0.125268
C56   C     C_3   0.706614 0.126104 0.731332 -0.771459
H52   H     H_    0.700557 0.074132 0.667890 0.238798
H53   H     H_    0.761075 0.144363 0.724640 0.197492
H54   H     H_    0.693653 0.115611 0.848490 0.258296
O11   O     O_3   0.593263 0.836882 0.677741 -0.560900
C57   C     C_3   0.661993 0.812745 0.658570 0.057605
H55   H     H_    0.674549 0.802938 0.540328 0.124480
H56   H     H_    0.671385 0.761437 0.722633 0.137924
C58   C     C_3   0.710617 0.871810 0.716349 -0.776110
H57   H     H_    0.700354 0.882386 0.834719 0.256724
H58   H     H_    0.764810 0.853215 0.703832 0.198264
H59   H     H_    0.703246 0.923827 0.653588 0.238179
O12   O     O_3   0.410397 0.162388 0.316176 -0.558955
C59   C     C_3   0.341153 0.185425 0.331171 0.051887
H60   H     H_    0.332107 0.236959 0.267629 0.138343
H61   H     H_    0.326743 0.194306 0.448726 0.125350
C60   C     C_3   0.294211 0.126008 0.268651 -0.771588
H62   H     H_    0.300470 0.074105 0.332318 0.238425
H63   H     H_    0.239680 0.144259 0.275303 0.197759
H64   H     H_    0.307203 0.115402 0.151534 0.258365

loop_
_geom_bond_atom_site_label_1
_geom_bond_atom_site_label_2
_ccdc_geom_bond_type
C15   C18   A    
C14   H14   S    
C11   C18   S    
C57   H55   S    
Cu2   O4    S    
Cu1   Cu2   S    
C20   O7    A    
C41   H22   S    
C10   O12   S    
Cu1   O1    S    
C4    C8    A    
C35   H5    S    
C59   C60   S    
C29   C47   S    
C46   H24   S    
C48   H34   S    
Cu1   O7    S    
C7    C11   A    
C50   H44   S    
C60   H63   S    
C51   H41   S    
C52   H38   S    
C13   C18   A    
C4    H10   S    
C5    H11   S    
C35   C37   A    
C58   H57   S    
C29   C32   A    
C3    C7    A    
C30   C31   A    
C23   H1    S    
C31   C40   S    
C32   C39   S    
C28   C44   S    
C53   H45   S    
C56   H54   S    
C45   H28   S    
C55   H50   S    
C16   C17   A    
C23   C33   A    
C24   C34   A    
C12   C17   S    
C8    O10   S    
C19   O5    A    
C42   C43   S    
C23   C27   A    
Cu2   O2    S    
C27   C41   S    
C25   C34   A    
C58   H59   S    
C52   H39   S    
C21   C22   T    
Cu2   O8    S    
C15   H15   S    
C14   C17   A    
C41   H23   S    
C6    H12   S    
C44   H29   S    
C44   H30   S    
C46   H25   S    
C1    C34   S    
C53   H46   S    
C25   C29   A    
C60   H64   S    
C5    N1    A    
C27   C31   A    
C6    N2    A    
C28   C32   A    
Cu1   N1    S    
Cu2   N2    S    
C49   H31   S    
C43   H18   S    
C3    H9    S    
C59   H61   S    
C57   C58   S    
C30   C50   S    
C9    O11   S    
C7    O9    S    
C47   H36   S    
C55   C56   S    
C5    C9    A    
C45   H27   S    
C49   H32   S    
C37   H7    S    
C26   C33   A    
C50   C51   S    
C8    C12   A    
C4    N2    A    
C19   O8    A    
C16   H16   S    
C9    C11   A    
C53   C54   S    
C56   H52   S    
C10   C12   A    
C2    C33   S    
C20   C22   S    
C26   C30   A    
C52   H40   S    
C42   H21   S    
O11   C57   S    
C24   H2    S    
Cu1   O3    S    
C1    O4    A    
C25   H3    S    
C46   H26   S    
C2    O3    A    
C54   H47   S    
C20   O6    A    
C57   H56   S    
C19   C21   S    
C36   C39   A    
C24   C28   A    
C45   C46   S    
C1    O1    A    
C6    C10   A    
C43   H19   S    
Cu1   O5    S    
C48   H35   S    
C59   H60   S    
C38   H8    S    
C50   H43   S    
C60   H62   S    
C51   H42   S    
C47   H37   S    
C54   H49   S    
C36   C38   A    
C35   C40   A    
C43   H17   S    
C37   C39   A    
O9    C53   S    
C49   H33   S    
C38   C40   A    
C48   C49   S    
O12   C59   S    
C58   H58   S    
C51   C52   S    
C36   H6    S    
C41   C42   S    
C55   H51   S    
C56   H53   S    
C26   H4    S    
C44   C45   S    
C13   C16   A    
C42   H20   S    
Cu2   O6    S    
C14   C15   A    
C54   H48   S    
C47   C48   S    
O10   C55   S    
C2    O2    A    
C13   H13   S    
C3    N1    A    
