data_mof_unit_21435.cif
_audit_creation_date              2012-12-10T19:12:35-0500
_audit_creation_method            fapswitch 2.2
_symmetry_space_group_name_H-M    P1
_symmetry_Int_Tables_number       1
_space_group_crystal_system       triclinic
_cell_length_a                    15.716237
_cell_length_b                    10.886964
_cell_length_c                    9.792666
_cell_angle_alpha                 91.366569
_cell_angle_beta                  92.095304
_cell_angle_gamma                 89.262795
_cell_volume                      1673.82860706

loop_
_atom_site_label
_atom_site_type_symbol
_atom_type_description
_atom_site_fract_x
_atom_site_fract_y
_atom_site_fract_z
_atom_type_partial_charge
C1    C     C_R   0.502333 0.257723 0.497733 1.069912
C2    C     C_3   0.083107 0.482568 0.500275 0.016836
C3    C     C_3   0.975135 0.556274 0.604683 0.396114
C4    C     C_3   0.917143 0.476762 0.511509 0.000945
C5    C     C_3   0.023602 0.593107 0.479596 0.401790
C6    C     C_3   0.965094 0.513650 0.384922 -0.260521
C7    C     C_1   0.173752 0.488532 0.494806 0.047822
C8    C     C_1   0.826176 0.481282 0.511981 0.046513
C9    C     C_3   0.576283 0.061221 0.565193 0.500791
C10   C     C_3   0.555462 0.925934 0.593051 0.122316
C11   C     C_3   0.411727 0.086738 0.567603 0.129868
C12   C     C_R   0.337962 0.498682 0.497746 0.927577
C13   C     C_3   0.490745 0.066569 0.343395 0.210454
C14   C     C_3   0.494975 0.121754 0.492579 -0.241144
C15   C     C_3   0.477027 0.880195 0.501761 -0.100497
C16   C     C_3   0.388006 0.944981 0.550764 0.170380
C17   C     C_3   0.490903 0.924801 0.351334 -0.527231
C18   C     C_3   0.532767 0.382098 0.083663 -0.371321
C19   C     C_3   0.540182 0.383757 0.923178 0.343943
C20   C     C_3   0.410794 0.512586 0.073941 0.317473
C21   C     C_3   0.552519 0.596890 0.088627 -0.228232
C22   C     C_3   0.411019 0.495862 0.913149 -0.429621
C23   C     C_R   0.485496 0.741187 0.500355 0.851330
C24   C     C_3   0.542570 0.608887 0.929007 0.038996
C25   C     C_R   0.662009 0.498297 0.502416 0.925721
C26   C     C_3   0.976555 0.365672 0.532532 0.100260
C27   C     C_3   0.025822 0.401318 0.405749 -0.185799
C28   C     C_1   0.248959 0.493795 0.493714 -0.102545
C29   C     C_1   0.750904 0.489090 0.508313 -0.102370
C30   C     C_3   0.035662 0.445274 0.627436 -0.266488
H1    H     H_    0.048406 0.337350 0.324462 0.177426
H2    H     H_    0.427973 0.108474 0.676874 0.173410
H3    H     H_    0.547940 0.093256 0.288536 0.199573
H4    H     H_    0.553713 0.890044 0.316645 0.203548
H5    H     H_    0.443158 0.884914 0.277135 0.269755
H6    H     H_    0.490705 0.305940 0.109227 0.204035
H7    H     H_    0.594894 0.361019 0.136623 0.230621
H8    H     H_    0.508211 0.300573 0.879115 0.168125
H9    H     H_    0.368693 0.442165 0.115329 0.160686
H10   H     H_    0.379208 0.408102 0.882386 0.167784
H11   H     H_    0.537195 0.686395 0.139031 0.199293
H12   H     H_    0.619507 0.575425 0.120840 0.175758
H13   H     H_    0.499765 0.689222 0.912795 0.202495
H14   H     H_    0.935036 0.542451 0.286217 0.197160
H15   H     H_    0.371371 0.566624 0.863541 0.221664
H16   H     H_    0.065980 0.418067 0.726536 0.179893
H17   H     H_    0.612680 0.868758 0.569749 0.152881
N1    N     N_3   0.498170 0.499750 0.138610 -0.106092
N2    N     N_3   0.498850 0.496730 0.861320 -0.118480
O1    O     O_R   0.499980 0.314910 0.616040 -0.577504
O2    O     O_R   0.500040 0.314680 0.383960 -0.592789
O3    O     O_R   0.376750 0.500100 0.616020 -0.640189
O4    O     O_R   0.376810 0.499870 0.383940 -0.579014
O5    O     O_R   0.499960 0.685320 0.616040 -0.623649
O6    O     O_R   0.500020 0.685090 0.383960 -0.614421
O7    O     O_R   0.623190 0.500130 0.616060 -0.588023
O8    O     O_R   0.623250 0.499900 0.383980 -0.635006
Zn1   Zn    Zn3+2 0.499960 0.500150 0.654960 0.980236
Zn2   Zn    Zn3+2 0.500040 0.499850 0.345040 0.985740
Cl1   Cl    Cl    0.538959 0.902182 0.771035 -0.677091
C31   C     C_3   0.348870 0.912787 0.692378 -0.346929
C32   C     C_3   0.334635 0.777761 0.721876 -0.324369
C33   C     C_3   0.248258 0.756300 0.784122 -0.812939
H18   H     H_    0.244493 0.806512 0.883852 0.288679
H19   H     H_    0.195648 0.788159 0.714310 0.276412
H20   H     H_    0.239603 0.656821 0.800640 0.261176
H21   H     H_    0.340124 0.719585 0.630020 0.212382
H22   H     H_    0.385330 0.749657 0.795338 0.262901
H23   H     H_    0.383241 0.953581 0.782633 0.241947
H24   H     H_    0.287036 0.963195 0.699464 0.215376
Cl2   Cl    Cl    0.408010 0.126663 0.230861 -0.621523
Cl3   Cl    Cl    0.322894 0.191061 0.535468 -0.655550
C34   C     C_3   0.310666 0.930948 0.441991 -0.326987
C35   C     C_3   0.279601 0.802988 0.397364 -0.454580
C36   C     C_3   0.220308 0.811473 0.270122 -0.624479
H25   H     H_    0.165693 0.874095 0.290383 0.276171
H26   H     H_    0.254441 0.848568 0.183113 0.278593
H27   H     H_    0.195761 0.718940 0.240935 0.285546
H28   H     H_    0.333746 0.741387 0.375255 0.266122
H29   H     H_    0.241746 0.763460 0.478253 0.254677
H30   H     H_    0.253113 0.979098 0.480208 0.242262
H31   H     H_    0.323291 0.979025 0.349307 0.290895
C37   C     C_3   0.946441 0.237067 0.564595 -0.357801
C38   C     C_3   0.021981 0.148788 0.588552 -0.409204
C39   C     C_3   0.991900 0.022322 0.628370 -0.654834
H32   H     H_    0.955439 0.029417 0.723393 0.261449
H33   H     H_    0.950880 0.981273 0.544938 0.298141
H34   H     H_    0.047961 0.961086 0.647136 0.274296
H35   H     H_    0.058822 0.139207 0.493985 0.250214
H36   H     H_    0.064905 0.185687 0.672043 0.240065
H37   H     H_    0.908001 0.243449 0.657627 0.235883
H38   H     H_    0.905164 0.202419 0.477854 0.233789
Cl4   Cl    Cl    0.650320 0.362818 0.887788 -0.543931
C40   C     C_3   0.629216 0.650861 0.870025 -0.316852
C41   C     C_3   0.673933 0.754312 0.956117 -0.437816
C42   C     C_3   0.743141 0.815648 0.877092 -0.631842
H39   H     H_    0.792196 0.746557 0.849096 0.283786
H40   H     H_    0.716398 0.857660 0.782541 0.295169
H41   H     H_    0.773776 0.888720 0.942078 0.263801
H42   H     H_    0.627518 0.824792 0.991169 0.288856
H43   H     H_    0.705617 0.715746 0.049049 0.220404
H44   H     H_    0.677645 0.578616 0.861438 0.262424
H45   H     H_    0.618366 0.683206 0.765462 0.272663
Cl5   Cl    Cl    0.363893 0.657611 0.115977 -0.716592
Cl6   Cl    Cl    0.051785 0.746644 0.447196 -0.678351
Cl7   Cl    Cl    0.942786 0.659271 0.737129 -0.617356
Cl8   Cl    Cl    0.614176 0.137275 0.717776 -0.455650
Cl9   Cl    Cl    0.669797 0.066872 0.463515 -0.647588

loop_
_geom_bond_atom_site_label_1
_geom_bond_atom_site_label_2
_ccdc_geom_bond_type
C31   H24   S    
C33   H19   S    
C26   C37   S    
O6    Zn2   S    
C34   C35   S    
C41   C42   S    
C25   O7    A    
C4    C8    S    
O4    Zn2   S    
C5    Cl6   S    
C39   H32   S    
C9    Cl9   S    
C37   H38   S    
C26   C27   S    
C38   H36   S    
C32   H21   S    
C23   O5    A    
C8    C29   T    
C18   H7    S    
C10   C15   S    
O5    Zn1   S    
C5    C6    S    
C11   C14   S    
O8    Zn2   S    
C15   C16   S    
C42   H41   S    
C15   C17   S    
C18   C19   S    
C2    C7    S    
C37   C38   S    
C42   H40   S    
C2    C27   S    
C9    C10   S    
C12   O4    A    
C19   Cl4   S    
C21   N1    S    
C15   C23   S    
C33   H20   S    
C35   H29   S    
C13   C14   S    
C31   C32   S    
C25   O8    A    
C34   H30   S    
C12   O3    A    
C39   H33   S    
C3    Cl7   S    
C25   C29   S    
C35   C36   S    
C27   H1    S    
C16   C34   S    
O1    Zn1   S    
C38   C39   S    
C4    C6    S    
C9    C14   S    
C11   Cl3   S    
C13   Cl2   S    
N2    Zn1   S    
C21   H12   S    
C3    C30   S    
C10   Cl1   S    
C36   H25   S    
C13   H3    S    
C32   C33   S    
C19   H8    S    
C24   C40   S    
C1    O2    A    
C11   C16   S    
C19   N2    S    
C6    C27   S    
C22   H10   S    
C42   H39   S    
C36   H26   S    
C20   N1    S    
O3    Zn1   S    
C22   N2    S    
C21   H11   S    
C20   C22   S    
C11   H2    S    
C26   C30   S    
C35   H28   S    
C2    C5    S    
O2    Zn2   S    
C38   H35   S    
C3    C4    S    
C34   H31   S    
N1    Zn2   S    
C1    O1    A    
C39   H34   S    
C31   H23   S    
C24   N2    S    
C20   H9    S    
C41   H42   S    
C30   H16   S    
C3    C5    S    
C18   N1    S    
C40   H45   S    
C4    C26   S    
C23   O6    A    
C20   Cl5   S    
C32   H22   S    
C9    Cl8   S    
C37   H37   S    
C13   C17   S    
C2    C30   S    
C17   H4    S    
O7    Zn1   S    
C40   C41   S    
C36   H27   S    
C7    C28   T    
C33   H18   S    
C22   H15   S    
C40   H44   S    
C16   C31   S    
C21   C24   S    
C10   H17   S    
C24   H13   S    
C6    H14   S    
C1    C14   S    
C17   H5    S    
C12   C28   S    
C18   H6    S    
C41   H43   S    
