data_mof_unit_7223.cif
_audit_creation_date              2012-12-10T18:02:07-0500
_audit_creation_method            fapswitch 2.2
_symmetry_space_group_name_H-M    P1
_symmetry_Int_Tables_number       1
_space_group_crystal_system       triclinic
_cell_length_a                    10.988373
_cell_length_b                    9.704521
_cell_length_c                    23.546837
_cell_angle_alpha                 90.565712
_cell_angle_beta                  94.755825
_cell_angle_gamma                 89.913574
_cell_volume                      2502.19400756

loop_
_atom_site_label
_atom_site_type_symbol
_atom_type_description
_atom_site_fract_x
_atom_site_fract_y
_atom_site_fract_z
_atom_type_partial_charge
C1    C     C_R   0.262647 0.500540 0.498872 0.848584
C2    C     C_R   0.737917 0.500115 0.500926 0.854840
C3    C     C_R   0.588567 0.392170 0.245700 0.553877
C4    C     C_R   0.423184 0.358871 0.752105 0.550976
C5    C     C_R   0.596760 0.417753 0.304494 0.272024
C6    C     C_R   0.414536 0.384852 0.693451 0.239404
C7    C     C_R   0.504469 0.494114 0.328761 -0.418179
C8    C     C_R   0.482744 0.492955 0.671498 -0.407550
C9    C     C_R   0.411642 0.553918 0.292594 0.385177
C10   C     C_R   0.545441 0.583271 0.710630 0.417862
C11   C     C_R   0.414429 0.546114 0.233458 0.361299
C12   C     C_R   0.540212 0.568213 0.769270 0.343149
C13   C     C_R   0.499887 0.459471 0.209387 -0.074211
C14   C     C_R   0.484554 0.451369 0.790479 -0.058193
C15   C     C_R   0.061078 0.382744 0.486128 0.310962
C16   C     C_R   0.938062 0.626679 0.502425 0.312338
C17   C     C_R   0.939119 0.377630 0.498940 0.307341
C18   C     C_R   0.065958 0.625556 0.510754 0.281894
C19   C     C_R   0.872879 0.501248 0.501715 -0.380074
C20   C     C_R   0.128867 0.503051 0.498650 -0.399092
C21   C     C_R   0.423810 0.072625 0.462403 0.429783
C22   C     C_R   0.589653 0.927852 0.530721 0.311439
C23   C     C_R   0.579803 0.075005 0.536352 0.394190
C24   C     C_R   0.411224 0.926660 0.468723 0.331656
C25   C     C_R   0.499850 0.499030 0.391229 0.907275
C26   C     C_R   0.495308 0.499711 0.608887 0.871814
C27   C     C_R   0.596952 0.426953 0.882993 0.701305
C28   C     C_R   0.393493 0.407697 0.116619 0.690956
C29   C     C_R   0.379202 0.426497 0.876497 0.663288
C30   C     C_R   0.603669 0.471868 0.122257 0.676400
C31   C     C_R   0.379187 0.419576 0.936340 -0.180495
C32   C     C_R   0.606030 0.457013 0.062765 -0.184931
C33   C     C_R   0.491987 0.427627 0.969588 -0.160916
C34   C     C_R   0.494987 0.431532 0.029734 -0.156065
C35   C     C_R   0.601865 0.433071 0.942819 -0.195498
C36   C     C_R   0.386781 0.411033 0.056718 -0.202811
C37   C     C_R   0.269966 0.409785 0.963867 0.370867
C38   C     C_R   0.715200 0.469335 0.035300 0.372609
C39   C     C_R   0.274941 0.397204 0.023304 0.528081
C40   C     C_R   0.713143 0.448440 0.976336 0.543076
Cu1   Cu    Cu3+1 0.500000 0.640660 0.500000 0.966631
Cu2   Cu    Cu3+1 0.500000 0.359340 0.500000 1.048153
N1    N     N_R   0.486913 0.430798 0.851188 -0.424922
N2    N     N_R   0.499270 0.444235 0.148183 -0.429100
N3    N     N_R   0.500000 0.852070 0.500000 -0.301541
N4    N     N_R   0.500000 0.147930 0.500000 -0.276627
O1    O     O_R   0.319640 0.618740 0.500000 -0.533601
O2    O     O_R   0.680360 0.381260 0.500000 -0.501298
O3    O     O_R   0.680360 0.618740 0.500000 -0.528681
O4    O     O_R   0.319640 0.381260 0.500000 -0.514903
O5    O     O_R   0.499960 0.618810 0.417880 -0.623556
O6    O     O_R   0.500040 0.381190 0.582120 -0.546040
O7    O     O_R   0.500040 0.618810 0.582120 -0.608087
O8    O     O_R   0.499960 0.381190 0.417880 -0.546246
O9    O     O_2   0.701089 0.419706 0.856506 -0.456073
O10   O     O_2   0.295241 0.368550 0.143221 -0.422135
O11   O     O_2   0.272772 0.431338 0.843706 -0.492281
O12   O     O_2   0.704175 0.515818 0.153991 -0.494607
O13   O     O_3   0.157688 0.408604 0.932581 -0.496045
C41   C     C_3   0.102346 0.539755 0.936854 0.145490
H1    H     H_    0.169544 0.626311 0.941586 0.070277
H2    H     H_    0.046977 0.541455 0.974198 0.217232
C42   C     C_3   0.018842 0.566340 0.883151 -0.561168
H3    H     H_    0.959583 0.475700 0.872466 0.317879
H4    H     H_    0.960565 0.657768 0.889759 0.192996
H5    H     H_    0.074052 0.586510 0.846731 0.224104
O14   O     O_3   0.826367 0.490865 0.066189 -0.473779
C43   C     C_3   0.857803 0.631499 0.062390 0.112075
H6    H     H_    0.784590 0.699389 0.077219 0.131908
H7    H     H_    0.874033 0.658976 0.017860 0.139288
C44   C     C_3   0.974472 0.659513 0.100131 -0.644354
H8    H     H_    0.050438 0.596021 0.085787 0.284006
H9    H     H_    0.999328 0.770019 0.097666 0.174677
H10   H     H_    0.960879 0.634407 0.145091 0.276337
F1    F     F_    0.168804 0.377826 0.047880 -0.600195
F2    F     F_    0.820965 0.447554 0.952301 -0.637028
F3    F     F_    0.669185 0.303893 0.223982 -0.600431
F4    F     F_    0.371436 0.243536 0.771614 -0.622878
O15   O     O_3   0.694535 0.364435 0.337960 -0.542578
C45   C     C_3   0.781201 0.470595 0.350665 0.034173
H11   H     H_    0.839487 0.439925 0.388857 0.154534
H12   H     H_    0.738813 0.570757 0.361676 0.120304
C46   C     C_3   0.864013 0.490113 0.302354 -0.703850
H13   H     H_    0.812624 0.538734 0.265252 0.268296
H14   H     H_    0.941471 0.558608 0.316967 0.187258
H15   H     H_    0.900809 0.389276 0.289114 0.286450
O16   O     O_3   0.338405 0.303609 0.657640 -0.543468
C47   C     C_3   0.220039 0.362617 0.652882 0.098270
H16   H     H_    0.189384 0.368110 0.607008 0.134614
H17   H     H_    0.214493 0.470237 0.669906 0.093703
C48   C     C_3   0.131850 0.272378 0.682627 -0.725728
H18   H     H_    0.155025 0.274639 0.729356 0.308300
H19   H     H_    0.037278 0.311908 0.674088 0.166551
H20   H     H_    0.136002 0.164385 0.666813 0.239974
F5    F     F_    0.313001 0.611394 0.313721 -0.700810
F6    F     F_    0.617874 0.682503 0.693493 -0.704367
O17   O     O_3   0.327042 0.615644 0.199212 -0.494714
C49   C     C_3   0.371229 0.749202 0.189784 0.078052
H21   H     H_    0.457979 0.744539 0.168399 0.129422
H22   H     H_    0.386638 0.807938 0.230678 0.153770
C50   C     C_3   0.277147 0.826414 0.151196 -0.735328
H23   H     H_    0.190088 0.834951 0.171815 0.256507
H24   H     H_    0.311091 0.931602 0.143190 0.218412
H25   H     H_    0.260328 0.770735 0.109841 0.237223
O18   O     O_3   0.599436 0.662697 0.806106 -0.507241
C51   C     C_3   0.515470 0.766883 0.818264 0.083301
H26   H     H_    0.434460 0.722944 0.837178 0.123287
H27   H     H_    0.484705 0.824483 0.778933 0.174998
C52   C     C_3   0.577318 0.867840 0.861191 -0.709512
H28   H     H_    0.657765 0.915104 0.843404 0.263139
H29   H     H_    0.512226 0.950644 0.871048 0.217504
H30   H     H_    0.607726 0.813359 0.901169 0.230128
O19   O     O_3   0.112556 0.268778 0.461925 -0.522579
C53   C     C_3   0.083421 0.272355 0.402092 0.129712
H31   H     H_    0.164773 0.239932 0.381112 0.212907
H32   H     H_    0.060332 0.376866 0.384831 0.103389
C54   C     C_3   0.981076 0.171462 0.383946 -0.787865
H33   H     H_    0.893189 0.206221 0.398970 0.288592
H34   H     H_    0.970498 0.162256 0.336768 0.221004
H35   H     H_    0.003342 0.069090 0.401996 0.247921
O20   O     O_3   0.877185 0.749672 0.493172 -0.506745
C55   C     C_3   0.892897 0.793880 0.437139 0.122687
H36   H     H_    0.904415 0.707445 0.406437 0.090242
H37   H     H_    0.975259 0.859457 0.438412 0.175616
C56   C     C_3   0.782320 0.877357 0.414154 -0.783915
H38   H     H_    0.771390 0.971129 0.440550 0.264365
H39   H     H_    0.794381 0.909627 0.369861 0.201226
H40   H     H_    0.698317 0.813881 0.413863 0.259147
O21   O     O_3   0.885306 0.251447 0.506533 -0.523977
C57   C     C_3   0.943473 0.189168 0.555857 0.096881
H41   H     H_    0.882109 0.194293 0.590551 0.189438
H42   H     H_    0.030536 0.237360 0.572906 0.113282
C58   C     C_3   0.972077 0.040808 0.543099 -0.651011
H43   H     H_    0.039346 0.033991 0.510563 0.280645
H44   H     H_    0.010052 0.990442 0.582651 0.186028
H45   H     H_    0.886971 0.989005 0.527402 0.319597
O22   O     O_3   0.127195 0.747124 0.525391 -0.508390
C59   C     C_3   0.166461 0.744062 0.584228 0.139768
H46   H     H_    0.212825 0.645656 0.596893 0.096359
H47   H     H_    0.087509 0.757426 0.610036 0.108946
C60   C     C_3   0.257114 0.860185 0.599097 -0.716292
H48   H     H_    0.221786 0.959898 0.582032 0.248037
H49   H     H_    0.274650 0.869457 0.646105 0.187746
H50   H     H_    0.344786 0.837471 0.580974 0.257383
O23   O     O_3   0.360944 0.137625 0.417101 -0.544535
C61   C     C_3   0.426880 0.117788 0.368147 0.059165
H51   H     H_    0.440602 0.007964 0.357954 0.101117
H52   H     H_    0.519839 0.163164 0.374313 0.199811
C62   C     C_3   0.358292 0.182278 0.316106 -0.764507
H53   H     H_    0.332366 0.289841 0.325590 0.255558
H54   H     H_    0.416851 0.181389 0.279897 0.220714
H55   H     H_    0.274176 0.123284 0.303020 0.229681
O24   O     O_3   0.700509 0.867526 0.547478 -0.535244
C63   C     C_3   0.700774 0.811074 0.602180 0.274033
H56   H     H_    0.707436 0.697626 0.598711 0.203462
H57   H     H_    0.617147 0.836405 0.623558 0.159397
C64   C     C_3   0.814713 0.856333 0.638771 -0.828087
H58   H     H_    0.828158 0.969048 0.636879 0.245358
H59   H     H_    0.808096 0.826873 0.683811 0.269926
H60   H     H_    0.895074 0.804351 0.623110 0.229624
O25   O     O_3   0.662640 0.145893 0.573125 -0.536542
C65   C     C_3   0.623142 0.145261 0.629000 0.073510
H61   H     H_    0.633189 0.044000 0.648991 0.132122
H62   H     H_    0.525105 0.171348 0.629661 0.205161
C66   C     C_3   0.700692 0.244837 0.667216 -0.747863
H63   H     H_    0.708796 0.345784 0.646161 0.245138
H64   H     H_    0.658970 0.260224 0.708147 0.218767
H65   H     H_    0.793667 0.202057 0.677004 0.213869
O26   O     O_3   0.297780 0.869050 0.453666 -0.530850
C67   C     C_3   0.291811 0.807847 0.398998 0.268345
H66   H     H_    0.266514 0.698358 0.403349 0.213814
H67   H     H_    0.378912 0.809460 0.378308 0.133478
C68   C     C_3   0.191133 0.873946 0.359980 -0.805909
H68   H     H_    0.186604 0.985826 0.368479 0.269162
H69   H     H_    0.208812 0.857087 0.314684 0.251170
H70   H     H_    0.101633 0.827337 0.366795 0.210506

loop_
_geom_bond_atom_site_label_1
_geom_bond_atom_site_label_2
_ccdc_geom_bond_type
C38   C40   A    
O16   C47   S    
C42   H4    S    
C66   H63   S    
C8    C26   S    
Cu1   Cu2   S    
C53   H31   S    
C28   O10   S    
C68   H68   S    
C64   H58   S    
C36   C39   A    
C67   H67   S    
C41   C42   S    
C24   N3    A    
C61   H51   S    
C60   H49   S    
O23   C61   S    
C12   O18   S    
C27   O9    S    
C67   H66   S    
C61   C62   S    
O17   C49   S    
C67   C68   S    
C18   C20   A    
C41   H2    S    
Cu2   N4    S    
C52   H29   S    
C17   C19   A    
O19   C53   S    
C60   H48   S    
C43   H6    S    
C58   H45   S    
C15   O19   S    
C32   C38   A    
C5    O15   S    
C1    O4    A    
C9    F5    S    
C61   H52   S    
C3    C13   A    
C42   H5    S    
O13   C41   S    
C64   H59   S    
C23   N4    A    
C29   N1    A    
C58   H44   S    
C62   H54   S    
C30   N2    A    
C66   H64   S    
C45   C46   S    
Cu1   O3    S    
O25   C65   S    
C65   H62   S    
C55   H36   S    
C68   H69   S    
C16   C19   A    
C15   C20   A    
C17   O21   S    
O14   C43   S    
C50   H23   S    
C25   O8    A    
C63   C64   S    
C45   H12   S    
C54   H35   S    
C48   H18   S    
C5    C7    A    
C1    O1    A    
C6    C8    A    
C27   C35   A    
C42   H3    S    
C28   N2    A    
C60   H50   S    
C6    O16   S    
C40   F2    S    
C41   H1    S    
C21   O23   S    
C18   O22   S    
C57   H42   S    
C16   O20   S    
C25   O5    A    
C4    F4    S    
C2    O3    A    
C26   O6    A    
C48   H19   S    
C65   C66   S    
C46   H13   S    
C47   C48   S    
C10   F6    S    
C29   C31   A    
C22   N3    A    
C31   C33   A    
C33   C34   A    
Cu1   O1    S    
C43   C44   S    
O26   C67   S    
Cu2   O2    S    
C47   H16   S    
C24   O26   S    
C9    C11   A    
Cu1   O7    S    
O20   C55   S    
C37   O13   S    
C10   C12   A    
Cu2   O4    S    
C4    C6    A    
C46   H14   S    
C29   O11   S    
C21   N4    A    
C66   H65   S    
C39   F1    S    
C58   H43   S    
C62   H55   S    
C57   C58   S    
C55   H37   S    
C3    F3    S    
C26   O7    A    
C44   H9    S    
O21   C57   S    
O22   C59   S    
C68   H70   S    
C7    C9    A    
C27   N1    A    
Cu2   O6    S    
C1    C20   S    
C2    C19   S    
C63   H57   S    
C8    C10   A    
C52   H30   S    
C47   H17   S    
C45   H11   S    
C3    C5    A    
C59   C60   S    
C44   H10   S    
C53   H32   S    
C15   C17   A    
C59   H47   S    
C64   H60   S    
C65   H61   S    
C49   C50   S    
O18   C51   S    
C49   H22   S    
C7    C25   S    
C11   O17   S    
C2    O2    A    
C16   C18   A    
C55   C56   S    
C54   H34   S    
C57   H41   S    
C12   C14   A    
C44   H8    S    
C37   C39   A    
C62   H53   S    
Cu2   O8    S    
C48   H20   S    
C30   C32   A    
C11   C13   A    
C56   H38   S    
C51   H27   S    
C22   O24   S    
C56   H40   S    
C30   O12   S    
C33   C35   A    
C35   C40   A    
C34   C36   A    
C4    C14   A    
C53   C54   S    
C59   H46   S    
O15   C45   S    
C31   C37   A    
C63   H56   S    
C46   H15   S    
C38   O14   S    
C28   C36   A    
C50   H24   S    
C49   H21   S    
C51   H26   S    
C21   C24   A    
C52   H28   S    
C56   H39   S    
C43   H7    S    
Cu1   N3    S    
C22   C23   A    
C50   H25   S    
O24   C63   S    
C54   H33   S    
Cu1   O5    S    
C13   N2    S    
C32   C34   A    
C14   N1    S    
C23   O25   S    
C51   C52   S    
