data_mof_unit_16138.cif
_audit_creation_date              2012-12-10T17:09:54-0500
_audit_creation_method            fapswitch 2.2
_symmetry_space_group_name_H-M    P1
_symmetry_Int_Tables_number       1
_space_group_crystal_system       triclinic
_cell_length_a                    10.862693
_cell_length_b                    13.163076
_cell_length_c                    11.817248
_cell_angle_alpha                 100.268998
_cell_angle_beta                  93.623653
_cell_angle_gamma                 94.807781
_cell_volume                      1651.5200906

loop_
_atom_site_label
_atom_site_type_symbol
_atom_type_description
_atom_site_fract_x
_atom_site_fract_y
_atom_site_fract_z
_atom_type_partial_charge
C1    C     C_R   0.505590 0.299243 0.478111 0.873546
C2    C     C_R   0.068189 0.532508 0.606512 -0.050500
C3    C     C_R   0.127176 0.520746 0.501322 -0.165602
C4    C     C_R   0.053233 0.495104 0.394671 -0.011540
C5    C     C_R   0.927010 0.459966 0.393204 -0.104246
C6    C     C_R   0.870595 0.471286 0.498241 -0.136963
C7    C     C_R   0.502854 0.814951 0.532553 -0.200692
C8    C     C_R   0.518328 0.185366 0.463997 -0.177508
C9    C     C_R   0.477009 0.014551 0.339544 0.157006
C10   C     C_R   0.509827 0.122339 0.352430 0.110477
C11   C     C_R   0.537902 0.135628 0.560197 -0.067581
C12   C     C_R   0.262969 0.510072 0.501201 0.836141
C13   C     C_R   0.549740 0.028414 0.540309 -0.012256
C14   C     C_R   0.492554 0.966394 0.437723 0.041339
C15   C     C_R   0.460880 0.859408 0.437486 -0.110814
C16   C     C_R   0.564881 0.879803 0.630861 0.192825
C17   C     C_R   0.605643 0.981654 0.626014 -0.046889
C18   C     C_R   0.358277 0.416429 0.027309 0.017118
C19   C     C_R   0.386757 0.412218 0.143964 0.118445
C20   C     C_R   0.554064 0.542589 0.156744 0.105164
C21   C     C_R   0.536512 0.542102 0.034743 -0.072850
C22   C     C_R   0.441621 0.473205 0.966850 -0.049896
C23   C     C_R   0.497661 0.700665 0.521739 0.763602
C24   C     C_R   0.437349 0.462550 0.842829 0.333684
C25   C     C_R   0.610004 0.590858 0.857481 0.070019
C26   C     C_R   0.608768 0.610546 0.979153 0.146098
C27   C     C_R   0.736318 0.488127 0.498795 0.776777
C28   C     C_R   0.123822 0.590043 0.713700 -0.061061
C29   C     C_R   0.068727 0.580441 0.817569 0.181987
C30   C     C_R   0.963696 0.508735 0.814529 -0.101438
C31   C     C_R   0.905008 0.458662 0.706163 -0.012563
C32   C     C_R   0.946323 0.487206 0.603651 0.085092
Cu1   Cu    Cu3+1 0.509250 0.507730 0.615930 0.988923
Cu2   Cu    Cu3+1 0.490750 0.492270 0.384070 0.997873
N1    N     N_R   0.523180 0.519350 0.790130 -0.267306
N2    N     N_R   0.476820 0.480650 0.209890 -0.243314
O1    O     O_R   0.506570 0.354460 0.582000 -0.599150
O2    O     O_R   0.490940 0.341410 0.386200 -0.546787
O3    O     O_R   0.327470 0.506530 0.597920 -0.555113
O4    O     O_R   0.311840 0.493480 0.402120 -0.526704
O5    O     O_R   0.509060 0.658590 0.613800 -0.574503
O6    O     O_R   0.493430 0.645540 0.418000 -0.635788
O7    O     O_R   0.688160 0.506520 0.597880 -0.634766
O8    O     O_R   0.672530 0.493470 0.402080 -0.613897
C33   C     C_2   0.104259 0.515669 0.286684 0.549166
H1    H     H_    0.101551 0.454822 0.211926 0.140376
O9    O     O_2   0.151752 0.601948 0.281726 -0.516723
C34   C     C_2   0.714652 0.036765 0.702713 0.478353
H2    H     H_    0.746831 0.116075 0.698519 0.099141
O10   O     O_2   0.775058 0.992500 0.766197 -0.462894
I1    I     I_    0.579644 0.180059 0.207619 -0.231744
C35   C     C_2   0.531432 0.187747 0.682102 0.419625
H3    H     H_    0.578602 0.262975 0.715934 0.097209
O11   O     O_2   0.473940 0.143921 0.748159 -0.485293
I2    I     I_    0.310036 0.345332 0.735638 -0.172206
C36   C     C_2   0.707083 0.649034 0.804195 0.426267
H4    H     H_    0.693141 0.665747 0.719238 0.144108
O12   O     O_2   0.807549 0.680660 0.855921 -0.549460
I3    I     I_    0.166040 0.363111 0.976432 -0.203565
I4    I     I_    0.683219 0.763407 0.070148 -0.135380
C37   C     C_2   0.329472 0.320061 0.184543 0.471828
H5    H     H_    0.331259 0.244345 0.130689 0.108523
O13   O     O_2   0.269846 0.326025 0.268732 -0.526418
C38   C     C_2   0.667871 0.595413 0.223563 0.460353
H6    H     H_    0.664098 0.647926 0.304304 0.101706
O14   O     O_2   0.769114 0.580615 0.187977 -0.516806
C39   C     C_2   0.227360 0.670846 0.714170 0.493208
H7    H     H_    0.231919 0.712998 0.643267 0.055437
O15   O     O_2   0.312304 0.686355 0.789415 -0.489343
I5    I     I_    0.143007 0.673169 0.980463 -0.107615
C40   C     C_2   0.911901 0.492884 0.924820 0.436899
H8    H     H_    0.912636 0.557465 0.995948 0.177996
O16   O     O_2   0.870796 0.407371 0.939221 -0.489163
C41   C     C_2   0.807875 0.371130 0.698641 0.456785
H9    H     H_    0.743240 0.371802 0.764408 0.086782
O17   O     O_2   0.799083 0.298079 0.617826 -0.592720
C42   C     C_2   0.855395 0.399049 0.287086 0.497869
H10   H     H_    0.771775 0.351567 0.295935 0.107339
O18   O     O_2   0.888193 0.398147 0.190206 -0.483092
C43   C     C_2   0.359584 0.800794 0.356246 0.481036
H11   H     H_    0.376720 0.733950 0.293170 0.123313
O19   O     O_2   0.255047 0.828284 0.359043 -0.454196
I6    I     I_    0.541776 0.852637 0.800626 -0.073890
I7    I     I_    0.420704 0.931294 0.167629 -0.139204

loop_
_geom_bond_atom_site_label_1
_geom_bond_atom_site_label_2
_ccdc_geom_bond_type
C6    C32   A    
C21   C26   A    
C12   O4    A    
C1    C8    S    
Cu2   O6    S    
C17   C34   S    
C30   C40   S    
C33   H1    S    
C24   I2    S    
Cu1   O3    S    
C23   O6    A    
C41   O17   D    
Cu2   O4    S    
C28   C29   A    
C19   N2    A    
C5    C6    A    
C36   H4    S    
C2    C32   A    
C18   C19   A    
C33   O9    D    
C37   O13   D    
C11   C35   S    
C27   O8    A    
C31   C32   A    
C16   C17   A    
C25   C36   S    
C3    C12   S    
C9    C10   A    
C1    O1    A    
C34   O10   D    
Cu2   O2    S    
C13   C14   A    
C10   I1    S    
C35   O11   D    
C4    C33   S    
C42   O18   D    
C24   N1    A    
C41   H9    S    
C39   H7    S    
Cu1   O7    S    
C28   C39   S    
Cu2   O8    S    
C43   O19   D    
C40   O16   D    
C43   H11   S    
C31   C41   S    
C25   C26   A    
C42   H10   S    
C16   I6    S    
Cu1   O1    S    
C39   O15   D    
C38   O14   D    
C20   C38   S    
C9    C14   A    
C29   C30   A    
C6    C27   S    
Cu1   Cu2   S    
C1    O2    A    
C25   N1    A    
C34   H2    S    
C22   C24   A    
C5    C42   S    
C3    C4    A    
C35   H3    S    
C29   I5    S    
C7    C16   A    
C18   C22   A    
C4    C5    A    
C23   O5    A    
C13   C17   A    
Cu1   O5    S    
C38   H6    S    
C12   O3    A    
C2    C3    A    
C40   H8    S    
C11   C13   A    
C30   C31   A    
C19   C37   S    
C8    C11   A    
C7    C23   S    
C7    C15   A    
Cu1   N1    S    
C36   O12   D    
Cu2   N2    S    
C37   H5    S    
C15   C43   S    
C9    I7    S    
C20   N2    A    
C27   O7    A    
C18   I3    S    
C20   C21   A    
C8    C10   A    
C14   C15   A    
C2    C28   A    
C21   C22   A    
C26   I4    S    
