data_mof_unit_10678.cif
_audit_creation_date              2013-03-05T16:12:52-0500
_audit_creation_method            fapswitch 2.2
_symmetry_space_group_name_H-M    P1
_symmetry_Int_Tables_number       1
_space_group_crystal_system       triclinic
_cell_length_a                    10.730806
_cell_length_b                    9.80451
_cell_length_c                    27.693175
_cell_angle_alpha                 89.019353
_cell_angle_beta                  91.049226
_cell_angle_gamma                 90.055969
_cell_volume                      2912.69126772

loop_
_atom_site_label
_atom_site_type_symbol
_atom_site_description
_atom_site_fract_x
_atom_site_fract_y
_atom_site_fract_z
_atom_type_partial_charge
O1    O     O_R   0.316770 0.614620 0.500000 -0.626923
O2    O     O_R   0.683230 0.385380 0.500000 -0.627096
O3    O     O_R   0.683230 0.614620 0.500000 -0.627964
O4    O     O_R   0.316770 0.385380 0.500000 -0.627678
C1    C     C_R   0.259735 0.499961 0.499911 0.874266
C2    C     C_R   0.740264 0.500040 0.500075 0.874154
O5    O     O_R   0.500030 0.614650 0.428760 -0.624852
O6    O     O_R   0.499970 0.385350 0.571240 -0.623968
O7    O     O_R   0.499970 0.614650 0.571240 -0.621473
O8    O     O_R   0.500030 0.385350 0.428760 -0.621658
C3    C     C_R   0.497946 0.501271 0.405903 0.906673
C4    C     C_R   0.502215 0.498732 0.594102 0.905789
Zn1   Zn    Zn3+2 0.500000 0.653120 0.500000 0.951525
Zn2   Zn    Zn3+2 0.500000 0.346880 0.500000 0.952305
C5    C     C_R   0.366802 0.484773 0.174767 0.507025
C6    C     C_R   0.630898 0.534247 0.824380 0.508853
O9    O     O_2   0.259821 0.456279 0.197718 -0.522392
O10   O     O_2   0.729865 0.583611 0.800303 -0.527100
N1    N     N_R   0.470944 0.517340 0.201236 -0.345439
N2    N     N_R   0.532580 0.480885 0.798935 -0.350413
C7    C     C_R   0.581635 0.546911 0.179992 0.577280
C8    C     C_R   0.431505 0.426157 0.821325 0.569047
C9    C     C_R   0.459246 0.390201 0.277405 -0.181489
C10   C     C_R   0.524776 0.610916 0.722996 -0.170811
C11   C     C_R   0.469123 0.385062 0.327469 -0.218077
C12   C     C_R   0.514775 0.615916 0.672913 -0.218835
C13   C     C_R   0.492976 0.631351 0.328378 -0.320814
C14   C     C_R   0.523262 0.368445 0.671317 -0.298648
C15   C     C_R   0.478930 0.637634 0.278121 0.554929
C16   C     C_R   0.535823 0.363055 0.721422 0.531553
C17   C     C_R   0.466388 0.515564 0.252709 0.212877
C18   C     C_R   0.533564 0.484968 0.747375 0.198986
C19   C     C_R   0.486553 0.507227 0.101577 -0.126086
C20   C     C_R   0.524667 0.480408 0.898915 -0.123051
C21   C     C_R   0.371954 0.479382 0.124045 -0.142349
C22   C     C_R   0.628909 0.536889 0.875213 -0.122642
C23   C     C_R   0.266340 0.449478 0.095197 0.551805
C24   C     C_R   0.726665 0.595083 0.902703 0.526226
C25   C     C_R   0.591053 0.544182 0.129874 -0.002468
C26   C     C_R   0.426602 0.422592 0.871565 -0.015985
C27   C     C_R   0.487613 0.505485 0.353210 -0.097685
C28   C     C_R   0.512540 0.494615 0.646805 -0.108442
H1    H     H_    0.510034 0.724738 0.347775 0.169271
H2    H     H_    0.521582 0.273574 0.651824 0.176533
C29   C     C_R   0.408595 0.432714 0.972760 0.102874
C30   C     C_R   0.609813 0.537839 0.028448 0.103623
C31   C     C_R   0.616019 0.539734 0.977401 -0.024327
C32   C     C_R   0.394825 0.450857 0.022949 -0.022338
C33   C     C_R   0.516917 0.483476 0.949858 0.075386
C34   C     C_R   0.496942 0.498933 0.050820 0.072697
C35   C     C_R   0.316804 0.366587 0.944457 -0.230826
C36   C     C_R   0.713118 0.572840 0.058077 -0.228129
C37   C     C_R   0.325251 0.362925 0.894720 -0.163347
C38   C     C_R   0.703435 0.575645 0.107856 -0.153897
O11   O     O_2   0.335045 0.377135 0.794823 -0.540125
O12   O     O_2   0.682813 0.577032 0.207539 -0.535695
C39   C     C_R   0.280367 0.427586 0.045895 -0.336977
C40   C     C_R   0.717018 0.599431 0.952973 -0.337304
H3    H     H_    0.507352 0.714363 0.654748 0.172830
H4    H     H_    0.463857 0.286954 0.345904 0.167649
H5    H     H_    0.522961 0.704771 0.743041 0.161962
H6    H     H_    0.449349 0.296401 0.257587 0.159604
H7    H     H_    0.250982 0.313891 0.874429 0.186959
H8    H     H_    0.784500 0.603044 0.129301 0.179620
H9    H     H_    0.237493 0.315302 0.959750 0.145148
H10   H     H_    0.804131 0.594461 0.043977 0.131488
H11   H     H_    0.197559 0.398502 0.026067 0.144271
H12   H     H_    0.788042 0.655914 0.971934 0.153106
C41   C     C_R   0.064087 0.376989 0.507389 -0.187325
C42   C     C_R   0.935910 0.623003 0.492555 -0.186827
C43   C     C_R   0.936399 0.377060 0.507500 -0.188723
C44   C     C_R   0.063599 0.622932 0.492444 -0.188172
H13   H     H_    0.112853 0.281305 0.513421 0.158972
H14   H     H_    0.887141 0.718686 0.486522 0.158778
H15   H     H_    0.888034 0.281411 0.513616 0.154949
H16   H     H_    0.111967 0.718580 0.486328 0.155039
C45   C     C_R   0.872653 0.500064 0.500071 -0.014186
C46   C     C_R   0.127345 0.499933 0.499886 -0.014463
C47   C     C_R   0.576870 0.070692 0.530830 -0.073426
C48   C     C_R   0.423145 0.929308 0.469163 -0.077165
C49   C     C_R   0.423125 0.073470 0.469171 -0.071839
C50   C     C_R   0.576888 0.926531 0.530822 -0.070323
H17   H     H_    0.638189 0.124487 0.555429 0.120959
H18   H     H_    0.361841 0.875515 0.444557 0.120868
H19   H     H_    0.361774 0.129471 0.444575 0.124973
H20   H     H_    0.638252 0.870530 0.555414 0.127097
N3    N     N_R   0.500000 0.857200 0.500000 -0.079755
N4    N     N_R   0.500000 0.142800 0.500000 -0.079449
O13   O     O_3   0.493173 0.759840 0.252910 -0.624077
C51   C     C_3   0.392976 0.849165 0.261918 0.057830
H21   H     H_    0.425638 0.954658 0.254029 0.181202
H22   H     H_    0.363727 0.847757 0.300327 0.117350
C52   C     C_3   0.281441 0.818545 0.228481 -0.385042
H23   H     H_    0.312167 0.819496 0.190363 0.233950
H24   H     H_    0.243902 0.715700 0.237353 0.241867
C53   C     C_3   0.178039 0.923578 0.233972 -0.891669
H25   H     H_    0.146336 0.924575 0.271931 0.264675
H26   H     H_    0.097462 0.897135 0.210236 0.273965
H27   H     H_    0.211783 0.026901 0.223502 0.275247
O14   O     O_3   0.537478 0.237977 0.745167 -0.620988
C54   C     C_3   0.662477 0.198504 0.753600 0.039959
H28   H     H_    0.712921 0.275359 0.775853 0.157370
H29   H     H_    0.711148 0.186250 0.718706 0.139611
C55   C     C_3   0.664102 0.061838 0.781033 -0.309928
H30   H     H_    0.614422 0.072610 0.815653 0.233721
H31   H     H_    0.614631 0.983874 0.759145 0.230125
C56   C     C_3   0.796976 0.013353 0.791828 -0.896894
H32   H     H_    0.847962 0.999905 0.757679 0.266194
H33   H     H_    0.794466 0.913863 0.811590 0.305081
H34   H     H_    0.847388 0.088355 0.814628 0.257145
O15   O     O_3   0.149578 0.437054 0.115460 -0.587662
C57   C     C_3   0.070744 0.544296 0.098471 0.102261
H35   H     H_    0.974160 0.515415 0.107604 0.168079
H36   H     H_    0.071063 0.557337 0.058463 0.106675
C58   C     C_3   0.102206 0.679748 0.123051 -0.350848
H37   H     H_    0.085219 0.669504 0.162399 0.257119
H38   H     H_    0.201964 0.705454 0.117989 0.209708
C59   C     C_3   0.024087 0.797013 0.101861 -0.948548
H39   H     H_    0.039518 0.808131 0.062424 0.263898
H40   H     H_    0.051699 0.893692 0.119408 0.278728
H41   H     H_    0.923634 0.779093 0.108134 0.267436
O16   O     O_3   0.824275 0.661977 0.880015 -0.603506
C60   C     C_3   0.941815 0.609850 0.895648 0.110519
H42   H     H_    0.989501 0.569919 0.863537 0.186739
H43   H     H_    0.937142 0.523248 0.922306 0.103810
C61   C     C_3   0.020632 0.725545 0.916683 -0.365052
H44   H     H_    0.032548 0.806896 0.888687 0.242139
H45   H     H_    0.972268 0.770510 0.947746 0.213741
C62   C     C_3   0.148738 0.675016 0.933742 -0.938866
H46   H     H_    0.138920 0.595205 0.962358 0.257702
H47   H     H_    0.203184 0.761152 0.948888 0.270015
H48   H     H_    0.200435 0.632768 0.903016 0.280227

loop_
_geom_bond_atom_site_label_1
_geom_bond_atom_site_label_2
_geom_bond_distance
_ccdc_geom_bond_type
C43   H15   1.083674 S    
C52   H23   1.111514 S    
C16   O14   1.381533 S    
C13   C15   1.397465 A    
O15   C57   1.418723 S    
C48   H18   1.081884 S    
O3    C2    1.279777 A    
N1    C17   1.426972 S    
C55   H31   1.112118 S    
C32   C39   1.409779 A    
C31   C33   1.414381 A    
O5    C3    1.288569 A    
C61   H44   1.111707 S    
O1    C1    1.279477 A    
N1    C7    1.363860 A    
C10   C12   1.389188 A    
C48   N3    1.365253 A    
C60   H43   1.117263 S    
C25   C38   1.393209 A    
C29   C35   1.411651 A    
C50   N3    1.365420 A    
C53   H27   1.111081 S    
C30   C36   1.412609 A    
C35   H9    1.077782 S    
C5    C21   1.408663 A    
C41   C43   1.370250 A    
O7    Zn1   2.002246 S    
C59   H39   1.111116 S    
C55   H30   1.112113 S    
C44   C46   1.397368 A    
C24   C40   1.399253 A    
C9    H6    1.083145 S    
C58   H38   1.110337 S    
C53   H26   1.109744 S    
C42   H14   1.083632 S    
C4    C28   1.461551 S    
C56   H32   1.111059 S    
C41   H13   1.083631 S    
C11   H4    1.083148 S    
C16   C18   1.405702 A    
C12   H3    1.083102 S    
C20   C22   1.414928 A    
O3    Zn1   2.002474 S    
C6    N2    1.366620 A    
C62   H48   1.110486 S    
C32   C34   1.413926 A    
C52   H24   1.110743 S    
C42   C45   1.397124 A    
C56   H33   1.110824 S    
C41   C46   1.397118 A    
O2    C2    1.279474 A    
C39   H11   1.076761 S    
C57   H36   1.113190 S    
C47   N4    1.365230 A    
C36   C38   1.385097 A    
C49   H19   1.081828 S    
C54   H28   1.115100 S    
C60   H42   1.111257 S    
O8    Zn2   2.002252 S    
C11   C27   1.401681 A    
C15   O13   1.386119 S    
O4    C1    1.279773 A    
C60   C61   1.531035 S    
O6    Zn2   2.014927 S    
C61   C62   1.525740 S    
C19   C34   1.415790 A    
C50   H20   1.081815 S    
C14   H2    1.083406 S    
C35   C37   1.383085 A    
C59   H41   1.108360 S    
C9    C17   1.399040 A    
C5    N1    1.365821 A    
C10   C18   1.399619 A    
C7    O12   1.350820 S    
C13   C27   1.404055 A    
C51   H22   1.114358 S    
C7    C25   1.394155 A    
C29   C33   1.419911 A    
O6    C4    1.288674 A    
C58   C59   1.526332 S    
C8    C26   1.393121 A    
C53   H25   1.110992 S    
Zn1   N3    2.000904 S    
C44   H16   1.083675 S    
C6    O10   1.349277 S    
C19   C25   1.406982 A    
C55   C56   1.526179 S    
C24   O16   1.389490 S    
C10   H5    1.083151 S    
C40   H12   1.075981 S    
N2    C8    1.364133 A    
C52   C53   1.525959 S    
C56   H34   1.111158 S    
C20   C26   1.409510 A    
O1    Zn1   2.001749 S    
O13   C51   1.415787 S    
C43   C45   1.397363 A    
C36   H10   1.077950 S    
C12   C28   1.402313 A    
C51   C52   1.532422 S    
C62   H46   1.110439 S    
N2    C18   1.427979 S    
C29   C32   1.414672 A    
C5    O9    1.349036 S    
C30   C31   1.416251 A    
C20   C33   1.415568 A    
C61   H45   1.110612 S    
C14   C28   1.404634 A    
C21   C23   1.408124 A    
C48   C49   1.413437 A    
C2    C45   1.420645 S    
C47   C50   1.413432 A    
C8    O11   1.350688 S    
C54   C55   1.528930 S    
C30   C34   1.419447 A    
C22   C24   1.410664 A    
C1    C46   1.420645 S    
Zn2   N4    2.000904 S    
C15   C17   1.403868 A    
C6    C22   1.408959 A    
C31   C40   1.409571 A    
C47   H17   1.081878 S    
C37   H7    1.083573 S    
C51   H21   1.111181 S    
C38   H8    1.080577 S    
C14   C16   1.391721 A    
O14   C54   1.410657 S    
C19   C21   1.412610 A    
C3    C27   1.461282 S    
C57   H35   1.106755 S    
C9    C11   1.388608 A    
O4    Zn2   2.002474 S    
O2    Zn2   2.001749 S    
O7    C4    1.291493 A    
C59   H40   1.110111 S    
C23   O15   1.386628 S    
C49   N4    1.365440 A    
O8    C3    1.291442 A    
C13   H1    1.083195 S    
O5    Zn1   2.014933 S    
C54   H29   1.115175 S    
C26   C37   1.395588 A    
C42   C44   1.370269 A    
O16   C60   1.418870 S    
C57   C58   1.537106 S    
C23   C39   1.396595 A    
C58   H37   1.110942 S    
C62   H47   1.110261 S    
