data_mof_unit_19516.cif
_audit_creation_date              2012-12-10T20:41:52-0500
_audit_creation_method            fapswitch 2.2
_symmetry_space_group_name_H-M    P1
_symmetry_Int_Tables_number       1
_space_group_crystal_system       triclinic
_cell_length_a                    14.776271
_cell_length_b                    15.36114
_cell_length_c                    9.97057
_cell_angle_alpha                 89.419647
_cell_angle_beta                  90.367848
_cell_angle_gamma                 90.310562
_cell_volume                      2262.92845456

loop_
_atom_site_label
_atom_site_type_symbol
_atom_type_description
_atom_site_fract_x
_atom_site_fract_y
_atom_site_fract_z
_atom_type_partial_charge
C1    C     C_R   0.384042 0.876411 0.500380 0.913431
C2    C     C_R   0.921172 0.509537 0.067688 -0.069768
C3    C     C_R   0.578213 0.010746 0.072428 0.369291
C4    C     C_R   0.078783 0.501047 0.072588 0.385355
C5    C     C_R   0.578198 0.010870 0.928798 0.366840
C6    C     C_R   0.078726 0.501610 0.929119 0.363098
C7    C     C_R   0.426183 0.972690 0.927589 -0.004589
C8    C     C_R   0.922280 0.514514 0.926944 -0.004184
C9    C     C_3   0.332443 0.001699 0.908371 -0.489923
C10   C     C_3   0.834806 0.469678 0.907894 -0.535556
C11   C     C_3   0.325431 0.002492 0.060809 0.722863
C12   C     C_R   0.385716 0.124432 0.500142 0.910037
C13   C     C_3   0.834132 0.456274 0.060020 0.671820
C14   C     C_R   0.620667 0.118807 0.500232 0.867870
C15   C     C_R   0.622231 0.882442 0.500478 0.873775
C16   C     C_R   0.123572 0.616304 0.499774 0.884200
C17   C     C_R   0.122745 0.382904 0.500755 0.891782
C18   C     C_R   0.284000 0.216902 0.622371 0.115959
C19   C     C_R   0.299050 0.764833 0.622516 0.093456
C20   C     C_R   0.791152 0.725521 0.621636 0.106606
C21   C     C_R   0.747588 0.313611 0.593910 0.131016
C22   C     C_R   0.329239 0.199172 0.503895 -0.114213
C23   C     C_R   0.881555 0.379135 0.500931 0.897536
C24   C     C_R   0.333154 0.797125 0.502177 -0.114389
C25   C     C_R   0.826025 0.696650 0.500517 -0.101922
C26   C     C_R   0.820562 0.308556 0.507252 -0.057162
C27   C     C_R   0.318679 0.253189 0.391870 -0.101134
C28   C     C_R   0.318167 0.750343 0.384111 -0.128859
C29   C     C_R   0.809765 0.744278 0.382335 -0.158956
C30   C     C_R   0.838227 0.231403 0.438857 -0.089480
C31   C     C_R   0.745236 0.809336 0.382715 -0.155472
C32   C     C_R   0.771650 0.167260 0.435511 -0.126635
C33   C     C_R   0.249143 0.312585 0.388702 -0.142162
C34   C     C_R   0.881913 0.621568 0.499621 0.893247
C35   C     C_R   0.251313 0.686570 0.382591 -0.165888
C36   C     C_R   0.698402 0.826333 0.501716 -0.114566
C37   C     C_R   0.690792 0.181035 0.504361 -0.093556
C38   C     C_R   0.196231 0.323464 0.503079 -0.138137
C39   C     C_R   0.203346 0.668509 0.500850 -0.118848
C40   C     C_R   0.728032 0.790009 0.622333 0.159540
C41   C     C_R   0.683062 0.249791 0.592878 0.188916
C42   C     C_R   0.217537 0.279739 0.622210 0.114018
C43   C     C_R   0.235126 0.700396 0.622210 0.189131
C44   C     C_3   0.675325 0.747630 0.732754 -0.404352
C45   C     C_3   0.328502 0.253457 0.744735 -0.458245
C46   C     C_3   0.607631 0.313182 0.608413 -0.489129
C47   C     C_3   0.256080 0.321255 0.744988 -0.327569
C48   C     C_3   0.183665 0.739587 0.734752 -0.400915
C49   C     C_3   0.253907 0.811121 0.733724 -0.453185
C50   C     C_3   0.745344 0.675922 0.731832 -0.437773
C51   C     C_3   0.679417 0.384229 0.609360 -0.460199
C52   C     C_R   0.424565 0.973911 0.068318 0.018725
Cl1   Cl    Cl    0.681686 0.020892 0.158821 -0.536107
Cl2   Cl    Cl    0.182485 0.500764 0.159362 -0.579601
Cl3   Cl    Cl    0.681724 0.020579 0.843672 -0.494286
Cl4   Cl    Cl    0.181900 0.509284 0.844324 -0.600446
H1    H     H_    0.362269 0.247985 0.306623 0.235768
H2    H     H_    0.572818 0.305048 0.706275 0.225094
H3    H     H_    0.283909 0.387328 0.724368 0.242839
H4    H     H_    0.185921 0.699040 0.827582 0.250254
H5    H     H_    0.606907 0.725649 0.699919 0.201845
H6    H     H_    0.562072 0.316009 0.519222 0.204808
H7    H     H_    0.209883 0.315571 0.832274 0.261684
H8    H     H_    0.115106 0.762257 0.704253 0.203177
H9    H     H_    0.397120 0.280597 0.724627 0.198795
H10   H     H_    0.297382 0.810694 0.824685 0.259323
H11   H     H_    0.787346 0.673582 0.824649 0.229507
H12   H     H_    0.352021 0.767788 0.291829 0.226142
H13   H     H_    0.685695 0.417252 0.707641 0.215225
H14   H     H_    0.325387 0.209378 0.832632 0.265201
H15   H     H_    0.225661 0.874777 0.700430 0.214851
H16   H     H_    0.717649 0.612261 0.698098 0.202656
H17   H     H_    0.675881 0.428549 0.520643 0.245516
H18   H     H_    0.330509 0.065678 0.856740 0.215338
H19   H     H_    0.288914 0.953417 0.859948 0.207620
H20   H     H_    0.782302 0.514806 0.869152 0.200368
H21   H     H_    0.841998 0.410833 0.845979 0.248815
H22   H     H_    0.182142 0.101410 0.249534 0.400326
H23   H     H_    0.842410 0.728153 0.289052 0.171827
H24   H     H_    0.228716 0.783127 0.087721 0.383018
H25   H     H_    0.794932 0.639409 0.105874 0.330131
H26   H     H_    0.708248 0.296830 0.163894 0.395781
H27   H     H_    0.899752 0.223529 0.381908 0.195635
H28   H     H_    0.728272 0.841789 0.289038 0.215393
H29   H     H_    0.781792 0.109236 0.376879 0.206210
H30   H     H_    0.237639 0.350060 0.297981 0.236209
H31   H     H_    0.232966 0.657185 0.288162 0.221447
H32   H     H_    0.676837 0.786596 0.826123 0.238646
N1    N     N_R   0.499140 1.000000 0.142800 -0.157000
N2    N     N_R   0.999140 0.500000 0.142800 -0.139349
N3    N     N_R   0.499160 0.000000 0.857150 -0.146851
N4    N     N_R   0.999160 0.500000 0.857150 -0.126452
O1    O     O_R   0.408400 0.908380 0.614690 -0.623709
O2    O     O_R   0.591610 0.908390 0.614650 -0.590716
O3    O     O_R   0.091610 0.591610 0.614650 -0.584254
O4    O     O_R   0.091610 0.408390 0.614650 -0.583294
O5    O     O_R   0.591590 0.091600 0.385310 -0.575299
O6    O     O_R   0.591590 0.908400 0.385310 -0.602455
O7    O     O_R   0.091590 0.591600 0.385310 -0.598030
O8    O     O_R   0.091590 0.408400 0.385310 -0.571772
O9    O     O_2   0.379314 0.165453 0.113009 -0.349882
O10   O     O_2   0.227611 0.147877 0.017602 -0.321127
O11   O     O_3   0.248272 0.104297 0.265914 -0.520671
O12   O     O_R   0.408400 0.091620 0.614690 -0.639200
O13   O     O_2   0.237525 0.924360 0.269048 -0.281018
O14   O     O_2   0.155527 0.938241 0.056129 -0.277002
O15   O     O_3   0.281862 0.821832 0.074869 -0.629094
O16   O     O_2   0.653684 0.464907 0.094476 -0.248625
O17   O     O_2   0.748068 0.505990 0.286312 -0.293255
O18   O     O_3   0.734514 0.614581 0.085656 -0.554478
O19   O     O_2   0.825322 0.285326 0.982648 -0.294317
O20   O     O_2   0.933166 0.320144 0.159449 -0.274946
O21   O     O_3   0.761140 0.317453 0.216426 -0.511838
O22   O     O_R   0.908400 0.408380 0.614690 -0.637147
O23   O     O_R   0.908400 0.591620 0.614690 -0.623731
O24   O     O_R   0.408370 0.908370 0.385350 -0.578547
O25   O     O_R   0.408370 0.091630 0.385350 -0.530855
O26   O     O_R   0.908370 0.408370 0.385350 -0.522158
O27   O     O_R   0.908370 0.591630 0.385350 -0.601392
O28   O     O_R   0.591610 0.091610 0.614650 -0.572495
S1    S     S_3+6 0.295839 0.109282 0.113419 0.035526
S2    S     S_3+6 0.246474 0.921178 0.119289 0.022222
S3    S     S_3+6 0.739782 0.509883 0.136178 0.056266
S4    S     S_3+6 0.841358 0.341688 0.103141 0.075809
Zn1   Zn    Zn3+2 0.500010 0.000000 0.653130 1.005756
Zn2   Zn    Zn3+2 0.000010 0.500000 0.653130 1.007065
Zn3   Zn    Zn3+2 0.499980 0.000000 0.346870 1.075874
Zn4   Zn    Zn3+2 0.999980 0.500000 0.346870 1.071684

loop_
_geom_bond_atom_site_label_1
_geom_bond_atom_site_label_2
_ccdc_geom_bond_type
C21   C26   A    
O5    Zn3   S    
C23   O26   A    
C27   C33   A    
H24   O15   S    
O23   Zn2   S    
C46   H6    S    
C28   H12   S    
C7    C52   A    
C12   O12   A    
C18   C42   A    
C47   H7    S    
C13   S3    S    
C6    N4    A    
C48   H8    S    
C20   C25   A    
C12   C22   S    
O19   S4    D    
C23   C26   S    
C30   H27   S    
C2    N2    A    
C2    C13   S    
C50   H16   S    
C20   C50   S    
C11   C52   S    
C35   H31   S    
O12   Zn1   S    
C28   C35   A    
O24   Zn3   S    
C41   C46   S    
C8    N4    A    
C1    O24   A    
C9    H19   S    
O10   S1    D    
C50   H11   S    
C25   C34   S    
C17   C38   S    
O27   Zn4   S    
H22   O11   S    
O8    Zn4   S    
C46   H2    S    
N1    Zn3   S    
C52   N1    A    
C11   S1    S    
O26   Zn4   S    
C15   O2    A    
C10   H21   S    
C19   C43   A    
C48   H4    S    
C4    N2    A    
C45   C47   S    
C25   C29   A    
C49   H10   S    
C51   H17   S    
C36   C40   A    
C4    C6    A    
C27   H1    S    
C13   S4    S    
O28   Zn1   S    
O17   S3    D    
C39   C43   A    
C34   O23   A    
C46   C51   S    
O9    S1    D    
C31   H28   S    
C35   C39   A    
C33   H30   S    
O18   S3    S    
C9    C11   S    
C19   C49   S    
C29   H23   S    
C7    N3    A    
O14   S2    D    
O4    Zn2   S    
C17   O4    A    
C32   C37   A    
O25   Zn3   S    
C5    N3    A    
C21   C41   A    
C8    C10   S    
C48   C49   S    
C26   C30   A    
C14   O28   A    
C22   C27   A    
C45   H9    S    
C11   S2    S    
C9    H18   S    
O16   S3    D    
O11   S1    S    
C18   C45   S    
C15   C36   S    
C21   C51   S    
C14   O5    A    
C43   C48   S    
O2    Zn1   S    
C44   C50   S    
C34   O27   A    
C7    C9    S    
O6    Zn3   S    
C16   O3    A    
N3    Zn1   S    
C4    Cl2   S    
C45   H14   S    
C18   C22   A    
C10   H20   S    
C5    Cl3   S    
C2    C8    A    
C24   C28   A    
H26   O21   S    
C6    Cl4   S    
C3    C5    A    
C10   C13   S    
N4    Zn2   S    
C16   O7    A    
O20   S4    D    
O7    Zn4   S    
C44   H5    S    
C51   H13   S    
C33   C38   A    
C3    N1    A    
C19   C24   A    
C29   C31   A    
C23   O22   A    
C30   C32   A    
C3    Cl1   S    
O3    Zn2   S    
O21   S4    S    
C20   C40   A    
C32   H29   S    
O13   S2    D    
C42   C47   S    
C37   C41   A    
C17   O8    A    
O1    Zn1   S    
C16   C39   S    
C47   H3    S    
C12   O25   A    
C38   C42   A    
C40   C44   S    
H25   O18   S    
C1    C24   S    
C1    O1    A    
C49   H15   S    
O22   Zn2   S    
N2    Zn4   S    
C31   C36   A    
C15   O6    A    
O15   S2    S    
C44   H32   S    
C14   C37   S    
