data_mof_unit_25099.cif
_audit_creation_date              2012-12-11T16:04:57-0500
_audit_creation_method            fapswitch 2.2
_symmetry_space_group_name_H-M    P1
_symmetry_Int_Tables_number       1
_space_group_crystal_system       triclinic
_cell_length_a                    10.642234
_cell_length_b                    10.642722
_cell_length_c                    16.869888
_cell_angle_alpha                 98.710862
_cell_angle_beta                  98.981237
_cell_angle_gamma                 61.691263
_cell_volume                      1654.98796521

loop_
_atom_site_label
_atom_site_type_symbol
_atom_type_description
_atom_site_fract_x
_atom_site_fract_y
_atom_site_fract_z
_atom_type_partial_charge
C1    C     C_R   0.350142 0.782310 0.401457 0.534813
C2    C     C_3   0.662307 0.374234 0.232014 -0.150535
C3    C     C_3   0.756032 0.382390 0.309464 0.038871
C4    C     C_3   0.884453 0.245183 0.281004 -0.106384
C5    C     C_3   0.931110 0.338078 0.243407 -0.120634
C6    C     C_3   0.802718 0.475437 0.272759 -0.098280
C7    C     C_3   0.709588 0.466981 0.194142 -0.137305
C8    C     C_3   0.836950 0.330631 0.165916 0.045670
C9    C     C_3   0.438732 0.868906 0.237457 -0.129165
C10   C     C_3   0.446812 0.735981 0.268384 -0.177893
C11   C     C_3   0.328982 0.833989 0.323423 0.036771
C12   C     C_R   0.368998 0.345713 0.359376 0.524478
C13   C     C_3   0.320995 0.967054 0.293953 -0.179719
C14   C     C_3   0.205235 0.963463 0.226604 -0.109692
C15   C     C_3   0.215045 0.830168 0.256457 0.305552
C16   C     C_3   0.331819 0.730656 0.201692 -0.120800
C17   C     C_3   0.323745 0.862438 0.172124 0.012777
C18   C     C_3   0.428256 0.218522 0.762484 0.311912
C19   C     C_3   0.375764 0.367371 0.737272 0.277978
C20   C     C_3   0.321182 0.319190 0.654525 -0.015817
C21   C     C_3   0.373012 0.168144 0.680743 -0.171512
C22   C     C_3   0.225451 0.220626 0.712944 -0.210536
C23   C     C_R   0.711304 0.412950 0.390121 0.549559
C24   C     C_3   0.173006 0.371332 0.683884 -0.181356
C25   C     C_3   0.228668 0.419728 0.767301 -0.108457
C26   C     C_3   0.283299 0.270279 0.794814 0.005383
C27   C     C_1   0.849868 0.327483 0.705134 -0.007748
C28   C     C_1   0.895556 0.294085 0.772692 -0.030272
C29   C     C_1   0.320929 0.847927 0.704616 0.005772
C30   C     C_1   0.283966 0.893587 0.771418 0.002978
C31   C     C_R   0.891941 0.310276 0.090180 0.562292
C32   C     C_R   0.318828 0.298681 0.120498 0.553381
C33   C     C_R   0.294451 0.892917 0.089300 0.566834
C34   C     C_R   0.352663 0.780632 0.625181 0.579657
C35   C     C_R   0.943240 0.275735 0.856096 0.514185
C36   C     C_R   0.275536 0.249290 0.877437 0.522484
C37   C     C_R   0.246670 0.942670 0.852407 0.520732
C38   C     C_R   0.364864 0.343704 0.583261 0.567410
C39   C     C_R   0.781805 0.375907 0.627845 0.597544
C40   C     C_1   0.340998 0.334010 0.275681 -0.017411
C41   C     C_1   0.329923 0.323745 0.204340 -0.026189
C42   C     C_3   0.791878 0.236166 0.201982 -0.089934
Cr1   Cr    Cr6+3 0.608340 0.611040 0.520430 1.023795
Cr2   Cr    Cr6+3 0.287650 0.601120 0.489350 1.096908
Cr3   Cr    Cr6+3 0.604040 0.287870 0.490280 1.040344
Cr4   Cr    Cr6+3 0.054020 0.052700 0.970850 1.054524
Cr5   Cr    Cr6+3 0.059230 0.375120 0.993390 1.060635
Cr6   Cr    Cr6+3 0.374950 0.061200 0.992340 1.061042
H1    H     H_    0.550563 0.392446 0.229527 0.110094
H2    H     H_    0.106538 0.055148 0.203921 0.132752
H3    H     H_    0.338970 0.633382 0.163405 0.132247
H4    H     H_    0.429765 0.066274 0.643219 0.113574
H5    H     H_    0.162563 0.160439 0.703846 0.090930
H6    H     H_    0.068231 0.434503 0.649812 0.140764
H7    H     H_    0.167509 0.522983 0.802773 0.171846
H8    H     H_    0.787646 0.138655 0.170554 0.183436
H9    H     H_    0.956074 0.157695 0.319611 0.180304
H10   H     H_    0.042565 0.322320 0.246116 0.121281
H11   H     H_    0.807392 0.573734 0.302700 0.153587
H12   H     H_    0.640586 0.555143 0.155252 0.134050
H13   H     H_    0.543087 0.648519 0.294405 0.134792
H14   H     H_    0.532809 0.880859 0.227022 0.151656
H15   H     H_    0.313726 0.063993 0.332601 0.122004
O1    O     O_R   0.751220 0.499230 0.435170 -0.527915
O2    O     O_R   0.297880 0.469080 0.560050 -0.476732
O3    O     O_R   0.489720 0.254590 0.564810 -0.526004
O4    O     O_R   0.725220 0.304230 0.585080 -0.478619
O5    O     O_3   0.500010 0.500010 0.500020 -0.266831
O6    O     O_R   0.171830 0.913880 0.057510 -0.483849
O7    O     O_R   0.940690 0.186050 0.054730 -0.495736
O8    O     O_R   0.920470 0.405720 0.075010 -0.492254
O9    O     O_R   0.196690 0.370460 0.084120 -0.467906
O10   O     O_R   0.412990 0.180750 0.091610 -0.507773
O11   O     O_R   0.366620 0.943130 0.065760 -0.497243
O12   O     O_R   0.477220 0.727600 0.436870 -0.540686
O13   O     O_R   0.160510 0.906330 0.879210 -0.475806
O14   O     O_R   0.930190 0.179050 0.889450 -0.492288
O15   O     O_R   0.909140 0.398170 0.896710 -0.495009
O16   O     O_R   0.186190 0.363460 0.918830 -0.506485
O17   O     O_R   0.401670 0.173200 0.913310 -0.433618
O18   O     O_R   0.356120 0.936130 0.900470 -0.484001
O19   O     O_3   0.162740 0.163010 0.985530 -0.342129
O20   O     O_R   0.258650 0.745120 0.411470 -0.440877
O21   O     O_R   0.297070 0.467240 0.395960 -0.467853
O22   O     O_R   0.488830 0.252610 0.387790 -0.533142
O23   O     O_R   0.724400 0.302390 0.420980 -0.489176
O24   O     O_R   0.752100 0.501210 0.612190 -0.499766
O25   O     O_R   0.478040 0.729440 0.600970 -0.483399
O26   O     O_R   0.259530 0.747110 0.588490 -0.501163
S1    S     S_3+6 0.057838 0.811355 0.260451 0.004827
O27   O     O_2   0.963145 0.853742 0.183113 -0.305949
O28   O     O_2   0.099736 0.658101 0.270166 -0.273336
O29   O     O_3   0.968585 0.917021 0.338415 -0.541339
H16   H     H_    0.876365 0.912961 0.331150 0.358862
S2    S     S_3+6 0.467566 0.471775 0.768652 0.014071
O30   O     O_2   0.513196 0.502142 0.697311 -0.276719
O31   O     O_2   0.367489 0.610029 0.811309 -0.307028
O32   O     O_3   0.610930 0.384791 0.833214 -0.496752
H17   H     H_    0.621169 0.460793 0.871155 0.379992
O33   O     O_3   0.562492 0.139665 0.805984 -0.497462
C43   C     C_3   0.674882 0.073807 0.755100 0.038446
H18   H     H_    0.765392 0.092601 0.785630 0.200857
H19   H     H_    0.647461 0.119100 0.695727 0.146471
C44   C     C_3   0.725910 0.911961 0.743560 -0.280355
H20   H     H_    0.758983 0.868288 0.803423 0.192445
H21   H     H_    0.636856 0.889795 0.713845 0.172382
C45   C     C_3   0.852628 0.835671 0.692561 -0.461160
H22   H     H_    0.821315 0.875684 0.631801 0.148010
H23   H     H_    0.887246 0.718705 0.685643 0.164287
H24   H     H_    0.944351 0.853691 0.722120 0.167753

loop_
_geom_bond_atom_site_label_1
_geom_bond_atom_site_label_2
_ccdc_geom_bond_type
C43   H18   S    
C18   C21   S    
C3    C23   S    
C2    C7    S    
C1    C11   S    
C16   H3    S    
Cr5   O16   S    
C3    C6    S    
Cr4   O13   S    
S2    O32   S    
C7    C8    S    
C32   O9    A    
O29   H16   S    
C18   O33   S    
C5    H10   S    
Cr1   O25   S    
C8    C42   S    
C5    C6    S    
C24   H6    S    
C15   C16   S    
Cr6   O18   S    
C12   O21   A    
C18   C19   S    
Cr5   O19   S    
C9    C13   S    
Cr4   O6    S    
C42   H8    S    
Cr4   O19   S    
C11   C15   S    
C31   O7    A    
C19   C20   S    
C28   C35   S    
C27   C39   S    
Cr1   O5    S    
C23   O23   A    
C18   C26   S    
C4    H9    S    
Cr3   O4    S    
C32   C41   S    
C39   O24   A    
C9    C10   S    
C33   O6    A    
Cr2   O20   S    
C31   O8    A    
C43   H19   S    
C21   C22   S    
C45   H23   S    
C14   C17   S    
C37   O18   A    
Cr2   O2    S    
C17   C33   S    
Cr6   O10   S    
C44   H21   S    
C44   H20   S    
Cr1   O1    S    
C22   H5    S    
Cr1   O12   S    
C9    H14   S    
C1    O12   A    
Cr6   O11   S    
C24   C25   S    
C36   O17   A    
C32   O10   A    
C16   C17   S    
C25   C26   S    
C29   C34   S    
C35   O14   A    
C30   C37   S    
Cr3   O3    S    
C12   C40   S    
Cr3   O22   S    
C29   C30   T    
C2    H1    S    
C5    C8    S    
C20   C38   S    
S1    O28   D    
C13   H15   S    
C38   O2    A    
C45   H22   S    
Cr3   O5    S    
C34   O25   A    
Cr5   O8    S    
C12   O22   A    
C9    C17   S    
C23   O1    A    
C37   O13   A    
C43   C44   S    
C45   H24   S    
C22   C24   S    
Cr2   O5    S    
C10   H13   S    
C3    C4    S    
C7    H12   S    
C27   C28   T    
C19   S2    S    
S1    O29   S    
C26   C36   S    
C38   O3    A    
C40   C41   T    
C8    C31   S    
C39   O4    A    
C6    H11   S    
C25   H7    S    
C4    C5    S    
Cr2   O21   S    
C36   O16   A    
Cr4   O14   S    
S2    O31   D    
C6    C7    S    
C1    O20   A    
C35   O15   A    
Cr1   O24   S    
Cr6   O17   S    
C2    C3    S    
C34   O26   A    
C10   C16   S    
C15   S1    S    
C11   C13   S    
S1    O27   D    
C14   H2    S    
C4    C42   S    
C2    C42   S    
O33   C43   S    
Cr6   O19   S    
Cr3   O23   S    
C21   H4    S    
C19   C25   S    
Cr5   O9    S    
Cr4   O7    S    
C10   C11   S    
C33   O11   A    
C20   C21   S    
O32   H17   S    
C22   C26   S    
S2    O30   D    
C14   C15   S    
Cr5   O15   S    
C13   C14   S    
C20   C24   S    
C44   C45   S    
Cr2   O26   S    
