data_mof_unit_24690.cif
_audit_creation_date              2012-12-10T17:29:18-0500
_audit_creation_method            fapswitch 2.2
_symmetry_space_group_name_H-M    P1
_symmetry_Int_Tables_number       1
_space_group_crystal_system       triclinic
_cell_length_a                    12.016018
_cell_length_b                    12.885814
_cell_length_c                    13.043375
_cell_angle_alpha                 87.489101
_cell_angle_beta                  113.299682
_cell_angle_gamma                 93.18692
_cell_volume                      1851.49317165

loop_
_atom_site_label
_atom_site_type_symbol
_atom_type_description
_atom_site_fract_x
_atom_site_fract_y
_atom_site_fract_z
_atom_type_partial_charge
C1    C     C_R   0.477418 0.299553 0.497992 0.880210
C2    C     C_R   0.610363 0.482191 0.830176 -0.117411
C3    C     C_R   0.535710 0.811745 0.502392 -0.053487
C4    C     C_R   0.566256 0.491950 0.708890 0.871325
C5    C     C_R   0.464262 0.188316 0.497766 -0.048521
C6    C     C_R   0.360274 0.029823 0.520513 -0.220832
C7    C     C_R   0.366780 0.137332 0.514785 -0.211472
C8    C     C_R   0.553799 0.132696 0.484299 -0.281832
C9    C     C_R   0.548672 0.025930 0.490856 0.187766
C10   C     C_R   0.451279 0.974155 0.509309 0.188017
C11   C     C_R   0.446019 0.867366 0.515640 -0.284249
C12   C     C_R   0.564401 0.461217 0.994837 0.048291
C13   C     C_R   0.633322 0.862777 0.485645 -0.203995
C14   C     C_R   0.639719 0.970272 0.479745 -0.219331
C15   C     C_R   0.027934 0.625229 0.437170 0.009519
C16   C     C_R   0.522583 0.700463 0.502059 0.889016
C17   C     C_R   0.143926 0.609532 0.438553 -0.019328
C18   C     C_R   0.146431 0.441122 0.518810 -0.058583
C19   C     C_R   0.028583 0.451171 0.518529 -0.019798
C20   C     C_R   0.969767 0.545660 0.478584 0.056450
C21   C     C_R   0.853291 0.557538 0.479474 -0.077096
C22   C     C_R   0.853417 0.388792 0.558170 -0.000471
C23   C     C_R   0.534336 0.440264 0.881641 0.069380
C24   C     C_R   0.967933 0.369936 0.556533 0.078707
C25   C     C_R   0.433143 0.501975 0.291063 0.890629
C26   C     C_R   0.270011 0.377644 0.013433 -0.255671
C27   C     C_R   0.390990 0.481617 0.172656 -0.059665
C28   C     C_R   0.726344 0.523090 0.895361 -0.249460
C29   C     C_R   0.765828 0.523950 0.010740 -0.130341
C30   C     C_R   0.686907 0.493272 0.062320 0.096347
C31   C     C_3   0.023842 0.263895 0.589975 -0.427851
C32   C     C_3   0.950302 0.180292 0.626012 -0.900752
C33   C     C_R   0.469405 0.450732 0.033122 0.078644
C34   C     C_R   0.361435 0.392444 0.972228 0.166531
C35   C     C_R   0.345824 0.351499 0.870300 -0.240463
C36   C     C_R   0.429115 0.378196 0.823197 -0.195500
C37   C     C_R   0.475087 0.503731 0.125457 -0.318642
C38   C     C_R   0.285806 0.419605 0.115746 0.095492
H1    H     H_    0.702967 0.819835 0.475164 0.155861
H2    H     H_    0.195834 0.371385 0.551235 0.120121
H3    H     H_    0.188224 0.331483 0.968030 0.139495
H4    H     H_    0.548079 0.559950 0.165121 0.158448
H5    H     H_    0.787033 0.553536 0.857096 0.167376
H6    H     H_    0.858491 0.549144 0.060611 0.153829
H7    H     H_    0.411452 0.348378 0.741703 0.155342
H8    H     H_    0.371122 0.827756 0.529874 0.156186
H9    H     H_    0.190730 0.315183 0.172554 0.182691
H10   H     H_    0.114041 0.420823 0.106117 0.182725
H11   H     H_    0.020298 0.768116 0.359244 0.177999
H12   H     H_    0.285183 0.990419 0.534413 0.136469
H13   H     H_    0.969702 0.761787 0.462136 0.175883
H14   H     H_    0.937677 0.204536 0.701257 0.258304
H15   H     H_    0.860996 0.164409 0.556925 0.251593
H16   H     H_    0.000006 0.107041 0.647333 0.254756
H17   H     H_    0.038640 0.233701 0.518008 0.210261
H18   H     H_    0.113319 0.273704 0.659889 0.198461
H19   H     H_    0.746499 0.552169 0.218217 0.191151
H20   H     H_    0.689656 0.425911 0.209806 0.208348
H21   H     H_    0.714732 0.009623 0.465715 0.138070
H22   H     H_    0.297267 0.180308 0.525476 0.150117
H23   H     H_    0.628399 0.172315 0.469629 0.154568
H24   H     H_    0.805134 0.627924 0.446487 0.149708
H25   H     H_    0.805597 0.329616 0.587685 0.158598
H26   H     H_    0.189044 0.670411 0.407711 0.130535
H27   H     H_    0.266484 0.303249 0.824918 0.138311
N1    N     N_R   0.798200 0.480260 0.519790 -0.122564
N2    N     N_R   0.201820 0.519740 0.480210 -0.098616
N3    N     N_3   0.197942 0.395955 0.163051 -0.431635
N4    N     N_3   0.969773 0.721504 0.394301 -0.482509
N5    N     N_3   0.739783 0.480225 0.181768 -0.463968
O1    O     O_R   0.579910 0.341070 0.505280 -0.633952
O2    O     O_R   0.388440 0.353740 0.492580 -0.632084
O3    O     O_R   0.643280 0.490550 0.663120 -0.610773
O4    O     O_R   0.451810 0.503220 0.650420 -0.606574
O5    O     O_R   0.611560 0.646260 0.507420 -0.627709
O6    O     O_R   0.420090 0.658930 0.494720 -0.630988
O7    O     O_R   0.548190 0.496780 0.349580 -0.619410
O8    O     O_R   0.356720 0.509450 0.336880 -0.584098
Zn1   Zn    Zn3+2 0.627850 0.491540 0.508480 0.930235
Zn2   Zn    Zn3+2 0.372150 0.508460 0.491520 0.947864

loop_
_geom_bond_atom_site_label_1
_geom_bond_atom_site_label_2
_ccdc_geom_bond_type
C21   N1    A    
C16   O5    A    
H9    N3    S    
C35   C36   A    
O1    Zn1   S    
C32   H15   S    
N1    Zn1   S    
C12   C23   A    
C1    O1    A    
C25   O7    A    
C28   C29   A    
C18   C19   A    
C17   H26   S    
O8    Zn2   S    
C35   H27   S    
C27   C38   A    
C34   C35   A    
C37   H4    S    
C18   H2    S    
C32   H14   S    
C22   H25   S    
C26   C34   A    
C22   N1    A    
C19   C20   A    
C8    C9    A    
H19   N5    S    
C9    C10   A    
C4    O4    A    
C3    C13   A    
C8    H23   S    
H11   N4    S    
C13   C14   A    
C32   H16   S    
C30   N5    S    
O7    Zn1   S    
C15   C20   A    
C15   N4    S    
C17   N2    A    
C1    O2    A    
C25   O8    A    
C5    C7    A    
C26   C38   A    
C18   N2    A    
C33   C37   A    
C2    C4    S    
C9    C14   A    
C29   C30   A    
C14   H21   S    
C31   C32   S    
C33   C34   A    
O3    Zn1   S    
C36   H7    S    
C6    H12   S    
C4    O3    A    
C38   N3    S    
C29   H6    S    
C31   H18   S    
C22   C24   A    
C7    H22   S    
C1    C5    S    
C15   C17   A    
C12   C30   A    
C16   O6    A    
H20   N5    S    
N2    Zn2   S    
O6    Zn2   S    
O4    Zn2   S    
C6    C10   A    
C5    C8    A    
C6    C7    A    
C25   C27   S    
C28   H5    S    
H10   N3    S    
C31   H17   S    
C19   C24   A    
C24   C31   S    
O2    Zn2   S    
C27   C37   A    
C13   H1    S    
C3    C11   A    
C10   C11   A    
C20   C21   A    
C23   C36   A    
C2    C23   A    
C11   H8    S    
C2    C28   A    
H13   N4    S    
C21   H24   S    
C12   C33   A    
O5    Zn1   S    
C3    C16   S    
C26   H3    S    
