data_mof_unit_48692.cif
_audit_creation_date              2013-03-05T16:32:07-0500
_audit_creation_method            fapswitch 2.2
_symmetry_space_group_name_H-M    P1
_symmetry_Int_Tables_number       1
_space_group_crystal_system       triclinic
_cell_length_a                    10.828573
_cell_length_b                    10.94514
_cell_length_c                    9.67392
_cell_angle_alpha                 92.055043
_cell_angle_beta                  90.597184
_cell_angle_gamma                 92.19785
_cell_volume                      1144.89515121

loop_
_atom_site_label
_atom_site_type_symbol
_atom_site_description
_atom_site_fract_x
_atom_site_fract_y
_atom_site_fract_z
_atom_type_partial_charge
O1    O     O_R   0.500000 0.319640 0.618810 -0.588921
O2    O     O_R   0.500010 0.319680 0.381230 -0.540579
C1    C     C_R   0.494729 0.263215 0.497926 0.860250
O3    O     O_R   0.317690 0.499960 0.618790 -0.632446
O4    O     O_R   0.317700 0.500000 0.381210 -0.555364
C2    C     C_R   0.260364 0.497857 0.498780 0.866231
Cu1   Cu    Cu3+1 0.499990 0.499980 0.640670 1.014399
Cu2   Cu    Cu3+1 0.500010 0.500020 0.359330 1.056491
O5    O     O_R   0.499990 0.680320 0.618770 -0.575556
O6    O     O_R   0.500000 0.680360 0.381190 -0.568183
O7    O     O_R   0.682300 0.500000 0.618790 -0.517208
O8    O     O_R   0.682310 0.500040 0.381210 -0.572025
C3    C     C_R   0.497417 0.737361 0.501838 0.834407
C4    C     C_R   0.739768 0.498251 0.499859 0.843668
C5    C     C_3   0.069859 0.386083 0.578656 0.069335
H1    H     H_    0.102965 0.401856 0.686463 0.104934
C6    C     C_3   0.926077 0.385624 0.580325 -0.054477
H2    H     H_    0.887719 0.299392 0.531064 0.255234
H3    H     H_    0.106101 0.616880 0.679366 0.163946
H4    H     H_    0.898985 0.635380 0.667559 0.237404
C7    C     C_3   0.077178 0.616375 0.568364 -0.079797
C8    C     C_3   0.069106 0.486268 0.345333 -0.370334
C9    C     C_3   0.122355 0.496163 0.495971 -0.041928
H5    H     H_    0.108106 0.561465 0.282741 0.157487
H6    H     H_    0.096225 0.401447 0.291721 0.280728
C10   C     C_3   0.878046 0.496017 0.497791 -0.066399
C11   C     C_3   0.933742 0.618315 0.562670 -0.470421
C12   C     C_3   0.927347 0.490635 0.344911 0.123756
H7    H     H_    0.904319 0.578347 0.297179 0.104154
H8    H     H_    0.902341 0.696376 0.502384 0.202109
C13   C     C_R   0.503878 0.069825 0.616104 -0.052097
C14   C     C_R   0.484522 0.130683 0.495879 -0.027439
C15   C     C_R   0.454696 0.058188 0.376380 -0.104823
H9    H     H_    0.432608 0.099919 0.280600 0.226111
C16   C     C_R   0.452834 0.929414 0.380882 -0.178087
H10   H     H_    0.424426 0.876818 0.288760 0.179161
C17   C     C_R   0.487605 0.870482 0.502837 -0.053463
C18   C     C_R   0.511031 0.946407 0.619596 0.031005
C19   C     C_3   0.555737 0.956447 0.767714 0.324489
C20   C     C_3   0.544000 0.096180 0.761342 0.092683
H11   H     H_    0.469934 0.135507 0.825670 0.148552
C21   C     C_R   0.597117 0.549119 0.075850 0.213181
N1    N     N_R   0.500800 0.500930 0.147930 -0.273396
C22   C     C_R   0.422735 0.423129 0.070387 0.414882
C23   C     C_R   0.413939 0.433406 0.924417 0.133810
N2    N     N_R   0.500800 0.500890 0.852020 -0.246152
C24   C     C_R   0.601499 0.542014 0.930065 0.245229
C25   C     C_3   0.667282 0.663822 0.929996 -0.093699
C26   C     C_3   0.658041 0.672624 0.087753 -0.112254
H12   H     H_    0.613393 0.727356 0.871236 0.236743
H13   H     H_    0.747138 0.674865 0.146109 0.182190
N3    N     N_3   0.134390 0.726051 0.508632 -0.580555
H14   H     H_    0.113922 0.801997 0.571822 0.266676
H15   H     H_    0.095785 0.739984 0.411259 0.241824
N4    N     N_3   0.469359 0.899742 0.864078 -0.646553
H16   H     H_    0.378375 0.914531 0.833199 0.226867
H17   H     H_    0.481795 0.945258 0.960340 0.234916
N5    N     N_R   0.683573 0.920469 0.787803 0.166050
O9    O     O_R   0.741258 0.950026 0.903611 -0.327950
O10   O     O_R   0.743103 0.866438 0.688146 -0.360747
N6    N     N_R   0.661534 0.166568 0.771636 0.191298
O11   O     O_R   0.747427 0.150508 0.680292 -0.319908
O12   O     O_R   0.680271 0.246417 0.873204 -0.290126
N7    N     N_R   0.370842 0.313920 0.127188 0.154575
O13   O     O_R   0.279692 0.318222 0.212357 -0.340915
O14   O     O_R   0.394651 0.209050 0.067883 -0.390294
N8    N     N_R   0.115940 0.266825 0.531591 0.131449
O15   O     O_R   0.180344 0.204138 0.616152 -0.375256
O16   O     O_R   0.083363 0.216150 0.412569 -0.270429
N9    N     N_3   0.308763 0.373998 0.858734 -0.510781
H18   H     H_    0.334161 0.325198 0.770365 0.296077
H19   H     H_    0.246915 0.441684 0.838058 0.214556
N10   N     N_3   0.794853 0.654888 0.884776 -0.555116
H20   H     H_    0.840110 0.590991 0.942882 0.236925
H21   H     H_    0.840865 0.739100 0.906466 0.281219
N11   N     N_3   0.575179 0.766461 0.135976 -0.551767
H22   H     H_    0.491388 0.758589 0.080942 0.222520
H23   H     H_    0.617156 0.851829 0.117855 0.271447
N12   N     N_3   0.882185 0.388258 0.723641 -0.478952
H24   H     H_    0.925396 0.461210 0.779948 0.214960
H25   H     H_    0.910699 0.309308 0.770569 0.304599
N13   N     N_R   0.871104 0.391366 0.255303 0.157190
O17   O     O_R   0.871843 0.277550 0.288949 -0.281814
O18   O     O_R   0.830341 0.416232 0.132990 -0.359501

loop_
_geom_bond_atom_site_label_1
_geom_bond_atom_site_label_2
_geom_bond_distance
_ccdc_geom_bond_type
N4    H16   1.046736 S    
N10   H20   1.045939 S    
C16   H10   1.078953 S    
Cu2   N1    2.045554 S    
Cu1   Cu2   2.721678 S    
C23   N2    1.385028 A    
C22   N7    1.431250 S    
Cu1   O7    1.987658 S    
C10   C11   1.555429 S    
C6    C10   1.573743 S    
C12   H7    1.115704 S    
H3    C7    1.115193 S    
N11   H23   1.044610 S    
O4    C2    1.301974 A    
O7    C4    1.313622 A    
N5    O10   1.302312 A    
C5    H1    1.104781 S    
C6    N12   1.469973 S    
C13   C20   1.481436 S    
Cu1   O5    1.992724 S    
N6    O12   1.300399 A    
O5    C3    1.312053 A    
C19   N4    1.464328 S    
C13   C14   1.378945 A    
C26   H13   1.111741 S    
C8    H6    1.098483 S    
N9    H18   1.036899 S    
C3    C17   1.464652 S    
C25   H12   1.095333 S    
C7    C11   1.554601 S    
C8    C12   1.537591 S    
C11   H8    1.113378 S    
N10   H21   1.044288 S    
N6    O11   1.302058 A    
O3    Cu1   1.983160 S    
N3    H15   1.045138 S    
C6    H2    1.106327 S    
C12   N13   1.474303 S    
N8    O15   1.300527 A    
Cu1   N2    2.044177 S    
N11   H22   1.046311 S    
O3    C2    1.309836 A    
C19   C20   1.542890 S    
N12   H25   1.045853 S    
N5    O9    1.301489 A    
C19   N5    1.466543 S    
C20   N6    1.462846 S    
O1    C1    1.302428 A    
N7    O14   1.300629 A    
N1    C22   1.374113 A    
C17   C18   1.393294 A    
C24   C25   1.487307 S    
Cu2   O8    1.983159 S    
C5    N8    1.473828 S    
C15   H9    1.076324 S    
C26   N11   1.456928 S    
C4    C10   1.498819 S    
C25   C26   1.530276 S    
O8    C4    1.301003 A    
N13   O18   1.300160 A    
N4    H17   1.045214 S    
C8    H5    1.112113 S    
C21   N1    1.360716 A    
N3    H14   1.046082 S    
C5    C6    1.557017 S    
N2    C24   1.372031 A    
C20   H11   1.110620 S    
C16   C17   1.419031 A    
C23   N9    1.422024 S    
O1    Cu1   1.977592 S    
C25   N10   1.459153 S    
O2    Cu2   1.992722 S    
C22   C23   1.423083 A    
O6    C3    1.304613 A    
O4    Cu2   1.987657 S    
H4    C11   1.098126 S    
C10   C12   1.577459 S    
C13   C18   1.357611 A    
N7    O13   1.293450 A    
C7    C9    1.565676 S    
O2    C1    1.307028 A    
C14   C15   1.406082 A    
C18   C19   1.506573 S    
C2    C9    1.493804 S    
C5    C9    1.562267 S    
C15   C16   1.411069 A    
C21   C24   1.411061 A    
C1    C14   1.449957 S    
C21   C26   1.481440 S    
N12   H24   1.043091 S    
Cu2   O6    1.977592 S    
N13   O17   1.299095 A    
C8    C9    1.560189 S    
N9    H19   1.040794 S    
N8    O16   1.299437 A    
C7    N3    1.469318 S    
