data_mof_unit_22378.cif
_audit_creation_date              2012-10-26T20:07:50-0400
_audit_creation_method            fapswitch 2.2
_symmetry_space_group_name_H-M    P1
_symmetry_Int_Tables_number       1
_space_group_crystal_system       triclinic
_cell_length_a                    9.558127
_cell_length_b                    10.982593
_cell_length_c                    17.207347
_cell_angle_alpha                 84.544691
_cell_angle_beta                  92.698171
_cell_angle_gamma                 91.620916
_cell_volume                      1795.61729111

loop_
_atom_site_label
_atom_site_type_symbol
_atom_type_description
_atom_site_fract_x
_atom_site_fract_y
_atom_site_fract_z
_atom_type_partial_charge
C1    C     C_R   0.497474 0.262496 0.497536 0.574690
C2    C     C_R   0.072662 0.576310 0.447234 0.067380
C3    C     C_R   0.516146 0.505878 0.650832 0.575748
C4    C     C_R   0.483854 0.494118 0.349169 0.575745
C5    C     C_R   0.521535 0.524228 0.736370 -0.014402
C6    C     C_R   0.478468 0.475763 0.263630 -0.014406
C7    C     C_R   0.396489 0.540716 0.775567 -0.058854
C8    C     C_R   0.603517 0.459290 0.224432 -0.058851
C9    C     C_R   0.399179 0.535874 0.857784 0.118958
C10   C     C_R   0.600827 0.464133 0.142215 0.118961
C11   C     C_R   0.528680 0.541213 0.900153 0.198173
C12   C     C_R   0.502526 0.737504 0.502464 0.574689
C13   C     C_R   0.471326 0.458788 0.099846 0.198174
C14   C     C_R   0.652266 0.554948 0.859193 -0.019078
C15   C     C_R   0.347740 0.445038 0.140807 -0.019085
C16   C     C_R   0.651216 0.532842 0.779714 0.069876
C17   C     C_R   0.348787 0.467132 0.220288 0.069871
C18   C     C_R   0.381156 0.054395 0.524854 -0.041216
C19   C     C_R   0.618845 0.945604 0.475147 -0.041216
C20   C     C_1   0.734104 0.426866 0.266548 0.230777
C21   C     C_1   0.265905 0.573150 0.733451 0.230779
C22   C     C_3   0.806308 0.580475 0.101955 -0.255971
C23   C     C_R   0.391730 0.926887 0.534475 0.091478
C24   C     C_3   0.193699 0.419537 0.898041 -0.255978
C25   C     C_1   0.780854 0.595194 0.897530 0.219949
C26   C     C_1   0.219149 0.404801 0.102466 0.219947
C27   C     C_3   0.861641 0.417942 0.773524 -0.258421
C28   C     C_3   0.138343 0.582003 0.226506 -0.258426
C29   C     C_1   0.246721 0.103322 0.537433 0.248130
C30   C     C_1   0.753281 0.896679 0.462572 0.248130
C31   C     C_3   0.155095 0.837819 0.552426 -0.218643
C32   C     C_3   0.844905 0.162183 0.447581 -0.218648
C33   C     C_1   0.152408 0.357607 0.617687 0.284403
C34   C     C_R   0.608270 0.073112 0.465526 0.091476
C35   C     C_1   0.847590 0.642398 0.382316 0.284405
C36   C     C_1   0.854567 0.330030 0.600892 0.250387
C37   C     C_1   0.145429 0.669983 0.399116 0.250365
C38   C     C_R   0.506774 0.871440 0.505376 -0.003856
C39   C     C_R   0.493226 0.128559 0.494624 -0.003857
C40   C     C_R   0.076406 0.426920 0.554684 0.084502
C41   C     C_R   0.923594 0.573081 0.445317 0.084504
C42   C     C_R   0.927337 0.423692 0.552767 0.067368
Cu1   Cu    Cu3+1 0.640660 0.500020 0.500000 1.024352
Cu2   Cu    Cu3+1 0.359340 0.499980 0.500000 1.024360
H1    H     H_    0.789726 0.391198 0.119587 0.267759
H2    H     H_    0.953348 0.410773 0.737338 0.158234
H3    H     H_    0.796086 0.332928 0.773435 0.184750
H4    H     H_    0.901883 0.426524 0.834046 0.135203
H5    H     H_    0.160231 0.396639 0.260086 0.269856
H6    H     H_    0.046601 0.589114 0.262678 0.158241
H7    H     H_    0.098159 0.573484 0.165966 0.135206
H8    H     H_    0.203881 0.667024 0.226641 0.184765
H9    H     H_    0.303460 0.874020 0.640697 0.256905
H10   H     H_    0.081476 0.888491 0.584836 0.155354
H11   H     H_    0.125222 0.739485 0.560542 0.185935
H12   H     H_    0.831875 0.604510 0.162281 0.137302
H13   H     H_    0.144319 0.870043 0.489337 0.181027
H14   H     H_    0.696549 0.125978 0.359307 0.256906
H15   H     H_    0.918528 0.111509 0.415175 0.155356
H16   H     H_    0.855676 0.129964 0.510670 0.181018
H17   H     H_    0.874779 0.260517 0.439462 0.185934
H18   H     H_    0.744755 0.655143 0.069923 0.188498
H19   H     H_    0.906168 0.572719 0.072875 0.179658
H20   H     H_    0.210285 0.608812 0.880412 0.267762
H21   H     H_    0.168119 0.395513 0.837714 0.137302
H22   H     H_    0.093848 0.427287 0.927128 0.179662
H23   H     H_    0.255256 0.344865 0.930065 0.188496
H24   H     H_    0.839772 0.603291 0.739898 0.269859
N1    N     N_2   0.536960 0.541073 0.982967 -0.187104
N2    N     N_1   0.115008 0.371242 0.073788 -0.331104
N3    N     N_2   0.780709 0.523061 0.743259 -0.478770
N4    N     N_2   0.219287 0.476875 0.256748 -0.478760
N5    N     N_1   0.135850 0.137739 0.545718 -0.342224
N6    N     N_1   0.864154 0.862263 0.454289 -0.342224
N7    N     N_2   0.297270 0.854889 0.583082 -0.496412
N8    N     N_2   0.702733 0.145111 0.416921 -0.496412
N9    N     N_1   0.211757 0.301930 0.668868 -0.299648
N10   N     N_1   0.788240 0.698079 0.331137 -0.299644
N11   N     N_1   0.796768 0.253020 0.638380 -0.313474
N12   N     N_2   0.463047 0.458929 0.017032 -0.187103
N13   N     N_1   0.203222 0.747003 0.361635 -0.313502
N14   N     N_R   0.852070 0.500030 0.499980 -0.271846
N15   N     N_R   0.147930 0.499970 0.500020 -0.271840
N16   N     N_1   0.838805 0.399611 0.299214 -0.333891
N17   N     N_1   0.161208 0.600413 0.700784 -0.333877
N18   N     N_2   0.728247 0.465511 0.102382 -0.475775
N19   N     N_2   0.271762 0.534498 0.897617 -0.475778
N20   N     N_1   0.884994 0.628762 0.926206 -0.331100
O1    O     O_R   0.618740 0.319660 0.500000 -0.471222
O2    O     O_R   0.381260 0.680340 0.500000 -0.471218
O3    O     O_R   0.381170 0.319630 0.500010 -0.506951
O4    O     O_R   0.618830 0.680370 0.499990 -0.506956
O5    O     O_R   0.631780 0.498870 0.613920 -0.464950
O6    O     O_R   0.368220 0.501130 0.386080 -0.464945
O7    O     O_R   0.394210 0.498840 0.613930 -0.495464
O8    O     O_R   0.605790 0.501160 0.386070 -0.495464

loop_
_geom_bond_atom_site_label_1
_geom_bond_atom_site_label_2
_ccdc_geom_bond_type
C27   H4    S    
C19   C34   A    
C36   C42   S    
C42   N14   A    
Cu1   Cu2   S    
Cu2   N15   S    
H14   N8    S    
C28   N4    S    
Cu1   O1    S    
C12   O2    A    
C32   H17   S    
C30   N6    T    
C11   C14   A    
C29   N5    T    
C2    C41   A    
C7    C9    A    
C5    C16   A    
C24   H23   S    
Cu1   O5    S    
C22   H19   S    
C4    O8    A    
C28   H6    S    
H5    N4    S    
H20   N19   S    
C24   H22   S    
C40   C42   A    
C13   N12   S    
C1    O3    A    
C40   N15   A    
C37   N13   T    
C2    N15   A    
H9    N7    S    
C16   N3    S    
C21   N17   T    
C33   C40   S    
C34   C39   A    
C4    C6    S    
C5    C7    A    
C15   C26   S    
C6    C8    A    
C7    C21   S    
C36   N11   T    
C25   N20   T    
C18   C23   A    
C27   N3    S    
C18   C39   A    
C19   C38   A    
C22   H18   S    
C31   N7    S    
Cu1   O8    S    
C3    O5    A    
C18   C29   S    
C8    C20   S    
C9    C11   A    
Cu2   O3    S    
C24   H21   S    
C4    O6    A    
C27   H2    S    
C13   C15   A    
C26   N2    T    
C14   C16   A    
C32   H16   S    
Cu2   O2    S    
C27   H3    S    
C15   C17   A    
C6    C17   A    
C10   N18   S    
C1    O1    A    
C12   O4    A    
C23   N7    S    
C3    C5    S    
C10   C13   A    
C32   N8    S    
C22   H12   S    
C11   N1    S    
C23   C38   A    
C35   N10   T    
Cu1   O4    S    
C31   H13   S    
C20   N16   T    
H1    N18   S    
Cu2   O7    S    
C14   C25   S    
C9    N19   S    
C28   H8    S    
C2    C37   S    
C33   N9    T    
H24   N3    S    
C41   N14   A    
C28   H7    S    
C22   N18   S    
C31   H10   S    
C12   C38   S    
C35   C41   S    
C24   N19   S    
Cu2   O6    S    
C1    C39   S    
C17   N4    S    
C8    C10   A    
Cu1   N14   S    
N1    N12   D    
C3    O7    A    
C32   H15   S    
C31   H11   S    
C19   C30   S    
C34   N8    S    
