data_mof_unit_12267.cif
_audit_creation_date              2013-03-05T16:23:56-0500
_audit_creation_method            fapswitch 2.2
_symmetry_space_group_name_H-M    P1
_symmetry_Int_Tables_number       1
_space_group_crystal_system       triclinic
_cell_length_a                    15.239542
_cell_length_b                    13.83198
_cell_length_c                    23.558358
_cell_angle_alpha                 89.972592
_cell_angle_beta                  90.826828
_cell_angle_gamma                 89.924901
_cell_volume                      4965.41595508

loop_
_atom_site_label
_atom_site_type_symbol
_atom_site_description
_atom_site_fract_x
_atom_site_fract_y
_atom_site_fract_z
_atom_type_partial_charge
O1    O     O_R   0.371460 0.581430 0.500000 -0.585300
O2    O     O_R   0.628540 0.418570 0.500000 -0.585563
O3    O     O_R   0.628540 0.581430 0.500000 -0.586517
O4    O     O_R   0.371460 0.418570 0.500000 -0.584822
C1    C     C_R   0.329451 0.499909 0.500694 0.866817
C2    C     C_R   0.670248 0.499749 0.500078 0.861960
O5    O     O_R   0.499970 0.581450 0.417880 -0.538629
O6    O     O_R   0.500030 0.418550 0.582120 -0.605937
O7    O     O_R   0.500030 0.581450 0.582120 -0.553530
O8    O     O_R   0.499970 0.418550 0.417880 -0.607933
C3    C     C_R   0.500743 0.499916 0.390695 0.852812
C4    C     C_R   0.499942 0.499934 0.609177 0.863341
Cu1   Cu    Cu3+1 0.500000 0.596430 0.500000 0.962655
Cu2   Cu    Cu3+1 0.500000 0.403570 0.500000 0.922160
C5    C     C_R   0.581936 0.509153 0.879827 0.586767
C6    C     C_R   0.437480 0.467395 0.119992 0.587472
N1    N     N_R   0.506870 0.482869 0.851891 -0.427262
N2    N     N_R   0.515293 0.481091 0.147949 -0.427236
C7    C     C_R   0.434125 0.453948 0.880075 0.569612
C8    C     C_R   0.591916 0.492352 0.119758 0.569381
C9    C     C_R   0.431369 0.459819 0.939921 -0.057910
C10   C     C_R   0.591613 0.500562 0.059929 -0.056310
C11   C     C_R   0.510661 0.480421 0.969883 -0.094511
C12   C     C_R   0.512359 0.479915 0.029943 -0.094316
C13   C     C_R   0.588272 0.501391 0.939625 -0.068049
C14   C     C_R   0.434815 0.458676 0.060186 -0.067775
C15   C     C_R   0.352933 0.443477 0.970401 0.167743
C16   C     C_R   0.667937 0.526455 0.029490 0.167381
C17   C     C_R   0.356998 0.432474 0.029983 0.164739
C18   C     C_R   0.668552 0.516428 0.969827 0.165315
O9    O     O_2   0.648925 0.544650 0.849419 -0.549779
O10   O     O_2   0.363203 0.464863 0.150388 -0.550230
O11   O     O_2   0.366187 0.417110 0.849885 -0.570146
O12   O     O_2   0.667803 0.492692 0.149886 -0.571927
C19   C     C_R   0.512068 0.576608 0.235257 0.331107
C20   C     C_R   0.469636 0.569199 0.764039 0.331695
C21   C     C_R   0.502343 0.582940 0.294636 0.298505
C22   C     C_R   0.471942 0.577367 0.704316 0.287089
C23   C     C_R   0.504961 0.497830 0.327883 -0.223964
C24   C     C_R   0.501570 0.498306 0.671836 -0.216612
C25   C     C_R   0.512380 0.407735 0.300662 -0.312372
C26   C     C_R   0.533238 0.415075 0.699487 -0.312144
H1    H     H_    0.514254 0.341587 0.325338 0.191190
H2    H     H_    0.557228 0.354549 0.674921 0.182097
C27   C     C_R   0.517055 0.400766 0.241664 0.157242
C28   C     C_R   0.535702 0.408714 0.758613 0.158433
C29   C     C_R   0.515914 0.485782 0.208843 0.241234
C30   C     C_R   0.504211 0.486589 0.790980 0.246186
C31   C     C_R   0.090510 0.573707 0.478440 0.443085
C32   C     C_R   0.905207 0.424048 0.472071 0.438213
C33   C     C_R   0.906707 0.565300 0.534638 0.444022
C34   C     C_R   0.094995 0.418271 0.527875 0.437772
C35   C     C_R   0.182498 0.576916 0.478323 0.022290
C36   C     C_R   0.813016 0.425270 0.470689 0.000317
C37   C     C_R   0.814746 0.568451 0.533020 0.020206
C38   C     C_R   0.187210 0.419425 0.527532 0.000737
C39   C     C_R   0.231939 0.498983 0.502305 -0.188818
C40   C     C_R   0.767241 0.498307 0.500968 -0.183659
C41   C     C_R   0.047484 0.495019 0.503308 -0.136843
C42   C     C_R   0.951303 0.493975 0.503832 -0.137214
C43   C     C_R   0.533456 0.107823 0.546640 -0.278979
C44   C     C_R   0.438345 0.892163 0.467605 -0.296203
C45   C     C_R   0.466243 0.107889 0.453591 -0.278084
C46   C     C_R   0.561335 0.891910 0.532765 -0.286701
H3    H     H_    0.558526 0.071952 0.584308 0.125228
H4    H     H_    0.388035 0.928036 0.442526 0.130807
H5    H     H_    0.441101 0.072051 0.415975 0.128780
H6    H     H_    0.611285 0.927548 0.558161 0.130803
C47   C     C_R   0.533870 0.209331 0.545401 0.082685
C48   C     C_R   0.440554 0.790676 0.467470 0.102605
C49   C     C_R   0.466032 0.209405 0.454669 0.071797
C50   C     C_R   0.559346 0.790416 0.532650 0.082262
H7    H     H_    0.561179 0.248420 0.581197 0.117671
H8    H     H_    0.394419 0.751373 0.441234 0.121372
H9    H     H_    0.438807 0.248559 0.418807 0.122817
H10   H     H_    0.604915 0.750913 0.559271 0.110524
N3    N     N_R   0.500000 0.258690 0.500000 -0.172883
N4    N     N_R   0.500000 0.741310 0.500000 -0.166143
C51   C     C_R   0.499815 0.054633 0.500154 0.137058
C52   C     C_R   0.499839 0.945284 0.500183 0.136309
C53   C     C_3   0.263664 0.447049 0.940863 -0.778956
H11   H     H_    0.261785 0.505436 0.908521 0.242875
H12   H     H_    0.248403 0.376167 0.920993 0.257622
H13   H     H_    0.210380 0.466003 0.970488 0.213206
C54   C     C_3   0.745841 0.573913 0.059222 -0.778280
H14   H     H_    0.723190 0.625768 0.091868 0.242991
H15   H     H_    0.789151 0.518130 0.078761 0.257123
H16   H     H_    0.785071 0.618541 0.029808 0.213560
C55   C     C_3   0.281058 0.383988 0.059837 -0.771659
H17   H     H_    0.240498 0.339468 0.030399 0.212404
H18   H     H_    0.305928 0.331851 0.092136 0.245733
H19   H     H_    0.238441 0.439136 0.079791 0.257455
C56   C     C_3   0.756090 0.512570 0.939837 -0.773957
H20   H     H_    0.810979 0.493033 0.969120 0.211919
H21   H     H_    0.755695 0.454375 0.907381 0.245345
H22   H     H_    0.770609 0.583526 0.920057 0.257779
O13   O     O_3   0.509222 0.658758 0.201712 -0.569362
C57   C     C_3   0.590519 0.707358 0.205926 0.089894
H23   H     H_    0.647294 0.656913 0.202584 0.165943
H24   H     H_    0.595821 0.747180 0.246792 0.187671
C58   C     C_3   0.596362 0.780116 0.157745 -0.799719
H25   H     H_    0.542284 0.833702 0.160760 0.252615
H26   H     H_    0.660151 0.818696 0.160295 0.200608
H27   H     H_    0.591262 0.742270 0.116246 0.253968
O14   O     O_3   0.439268 0.644351 0.797239 -0.575827
C59   C     C_3   0.346644 0.647530 0.794134 0.092917
H28   H     H_    0.316525 0.574161 0.795570 0.164990
H29   H     H_    0.324610 0.684555 0.754551 0.186750
C60   C     C_3   0.312933 0.704721 0.844441 -0.797273
H30   H     H_    0.338841 0.779699 0.843235 0.255300
H31   H     H_    0.240107 0.707346 0.842872 0.198719
H32   H     H_    0.334489 0.669731 0.884752 0.253101
O15   O     O_3   0.494623 0.672715 0.319914 -0.566209
C61   C     C_3   0.408558 0.708766 0.311054 0.124712
H33   H     H_    0.366913 0.685390 0.346688 0.121091
H34   H     H_    0.376493 0.683942 0.270741 0.164332
C62   C     C_3   0.411402 0.818658 0.309532 -0.802803
H35   H     H_    0.447059 0.843194 0.271361 0.255052
H36   H     H_    0.343603 0.848129 0.307837 0.195766
H37   H     H_    0.445645 0.846926 0.347900 0.248611
O16   O     O_3   0.436948 0.658154 0.677720 -0.572228
C63   C     C_3   0.497436 0.735194 0.682027 0.115856
H38   H     H_    0.555921 0.720017 0.655768 0.131243
H39   H     H_    0.519712 0.748332 0.726570 0.175951
C64   C     C_3   0.453438 0.827236 0.660553 -0.779209
H40   H     H_    0.398534 0.847090 0.688790 0.242865
H41   H     H_    0.501708 0.887303 0.660165 0.191645
H42   H     H_    0.426985 0.816231 0.616878 0.264555
C65   C     C_3   0.523334 0.301768 0.215403 -0.795636
H43   H     H_    0.463894 0.259350 0.225839 0.225954
H44   H     H_    0.529103 0.304127 0.168569 0.229770
H45   H     H_    0.582052 0.263742 0.232789 0.226799
C66   C     C_3   0.571566 0.317761 0.785468 -0.796175
H46   H     H_    0.641040 0.307875 0.773116 0.223988
H47   H     H_    0.568985 0.318884 0.832460 0.229236
H48   H     H_    0.532857 0.254660 0.770294 0.228192
O17   O     O_3   0.042388 0.652316 0.458616 -0.523876
C67   C     C_3   0.015778 0.635949 0.401753 0.040259
H49   H     H_    0.959837 0.584711 0.400131 0.129732
H50   H     H_    0.070371 0.607544 0.375445 0.124209
C68   C     C_3   0.984718 0.730894 0.375818 -0.752171
H51   H     H_    0.039154 0.784207 0.376218 0.239240
H52   H     H_    0.962602 0.718874 0.331261 0.194415
H53   H     H_    0.929058 0.760308 0.400407 0.260207
O18   O     O_3   0.950166 0.349163 0.446212 -0.523913
C69   C     C_3   0.976689 0.378288 0.391607 0.045841
H54   H     H_    0.033932 0.427604 0.394867 0.127432
H55   H     H_    0.922589 0.414535 0.367282 0.127076
C70   C     C_3   0.004958 0.289604 0.358411 -0.751437
H56   H     H_    0.949150 0.238516 0.353793 0.241827
H57   H     H_    0.026840 0.311550 0.315537 0.196351
H58   H     H_    0.060130 0.252755 0.380935 0.257210
O19   O     O_3   0.953206 0.638675 0.561603 -0.523489
C71   C     C_3   0.979737 0.607959 0.616395 0.041641
H59   H     H_    0.036825 0.558409 0.613602 0.129320
H60   H     H_    0.925562 0.571493 0.639461 0.125575
C72   C     C_3   0.008480 0.695542 0.650879 -0.752266
H61   H     H_    0.952875 0.746909 0.655047 0.240237
H62   H     H_    0.030508 0.672293 0.693908 0.192990
H63   H     H_    0.063676 0.732586 0.629615 0.259509
O20   O     O_3   0.051255 0.337199 0.547459 -0.523867
C73   C     C_3   0.025284 0.352230 0.604092 0.045642
H64   H     H_    0.967000 0.400339 0.605255 0.128170
H65   H     H_    0.079137 0.383611 0.630819 0.125016
C74   C     C_3   0.999451 0.255757 0.629850 -0.753698
H66   H     H_    0.056337 0.205486 0.629888 0.242792
H67   H     H_    0.977978 0.266635 0.674240 0.193616
H68   H     H_    0.944602 0.223287 0.604860 0.257813
C75   C     C_3   0.226346 0.663413 0.451521 -0.776948
H69   H     H_    0.273331 0.638386 0.419204 0.193990
H70   H     H_    0.180277 0.713134 0.429374 0.249131
H71   H     H_    0.259805 0.706746 0.484978 0.245375
C76   C     C_3   0.764559 0.349925 0.435470 -0.735951
H72   H     H_    0.716215 0.385616 0.406581 0.211338
H73   H     H_    0.808236 0.306407 0.408315 0.244361
H74   H     H_    0.730811 0.298157 0.463743 0.247477
C77   C     C_3   0.768510 0.647097 0.565791 -0.775703
H75   H     H_    0.715575 0.615746 0.591949 0.201243
H76   H     H_    0.812369 0.686883 0.595484 0.248634
H77   H     H_    0.741673 0.700879 0.535277 0.240392
C78   C     C_3   0.236416 0.336273 0.555647 -0.724805
H78   H     H_    0.285830 0.364626 0.586477 0.217303
H79   H     H_    0.193613 0.287076 0.579877 0.242316
H80   H     H_    0.268568 0.291197 0.522977 0.245636

loop_
_geom_bond_atom_site_label_1
_geom_bond_atom_site_label_2
_geom_bond_distance
_ccdc_geom_bond_type
C22   C24   1.412344 A    
C27   C65   1.506368 S    
C56   H20   1.109601 S    
C31   O17   1.387702 S    
C48   N4    1.360924 A    
C37   C77   1.513408 S    
C75   H69   1.107939 S    
C2    C40   1.478085 S    
O14   C59   1.413013 S    
C47   N3    1.363437 A    
C67   H49   1.109595 S    
N1    C30   1.435851 S    
C50   H10   1.077146 S    
O3    C2    1.295592 A    
C19   C29   1.403778 A    
N2    C29   1.435956 S    
C17   C55   1.519473 S    
O18   C69   1.412617 S    
C23   C25   1.406945 A    
C45   C51   1.410580 A    
C76   H72   1.110822 S    
O5    C3    1.297326 A    
C74   H66   1.110608 S    
C59   H29   1.111151 S    
O1    C1    1.297597 A    
C46   H6    1.080968 S    
C36   C76   1.518241 S    
C44   C52   1.410237 A    
C56   H22   1.110157 S    
C19   C21   1.411582 A    
C12   C14   1.419664 A    
C69   H54   1.109903 S    
C18   C56   1.519444 S    
C70   H57   1.110502 S    
C54   H14   1.110237 S    
C54   H16   1.109586 S    
C21   O15   1.383041 S    
C38   C78   1.518730 S    
C69   C70   1.520259 S    
C38   C39   1.428928 A    
C44   C48   1.404129 A    
C26   C28   1.395591 A    
Cu2   N3    2.003976 S    
O7    Cu1   1.945569 S    
C50   N4    1.361242 A    
C4    C24   1.476147 S    
C60   H31   1.110463 S    
N1    C7    1.360895 A    
C46   C52   1.410461 A    
C68   H51   1.110614 S    
C72   H61   1.110609 S    
C77   H76   1.107590 S    
C48   H8    1.077350 S    
C66   H48   1.110468 S    
C11   C12   1.414811 A    
C47   H7    1.080554 S    
C55   H18   1.110454 S    
C71   H60   1.115822 S    
O3    Cu1   1.969577 S    
C35   C75   1.513338 S    
C34   O20   1.387446 S    
C65   H45   1.110461 S    
C8    O12   1.348168 S    
C54   H15   1.110136 S    
C9    C15   1.421549 A    
C41   C42   1.466077 S    
C74   H67   1.110502 S    
C10   C16   1.421375 A    
Cu1   Cu2   2.667637 S    
C25   H1    1.083903 S    
O2    C2    1.291001 A    
C26   H2    1.084101 S    
C53   H12   1.110123 S    
O13   C57   1.412585 S    
C69   H55   1.115570 S    
C76   H73   1.107355 S    
C6    C14   1.414130 A    
C78   H79   1.107223 S    
C28   C30   1.407849 A    
C44   H4    1.081080 S    
C22   O16   1.383397 S    
C58   H25   1.110736 S    
C15   C53   1.519824 S    
C71   C72   1.520360 S    
O8    Cu2   1.945572 S    
C62   H37   1.108823 S    
C35   C39   1.426159 A    
C33   C37   1.402036 A    
C78   H78   1.110718 S    
C5    O9    1.348536 S    
C73   H64   1.109806 S    
C53   H11   1.110086 S    
C68   H52   1.110503 S    
C72   H62   1.110537 S    
C45   H5    1.081176 S    
C34   C41   1.404084 A    
C64   H42   1.110262 S    
C73   C74   1.520326 S    
O6    C4    1.293915 A    
C77   H77   1.107997 S    
O16   C63   1.412629 S    
C32   C36   1.404937 A    
C55   H19   1.110184 S    
C3    C23   1.482351 S    
C71   H59   1.109549 S    
C67   H50   1.115758 S    
C70   H58   1.110871 S    
C32   O18   1.387158 S    
C6    N2    1.361629 A    
C74   H68   1.110867 S    
C45   C49   1.404419 A    
C77   H75   1.110667 S    
C58   H27   1.110986 S    
C57   H24   1.111376 S    
C9    C11   1.419877 A    
C7    O11   1.348288 S    
C66   H46   1.110346 S    
C75   H71   1.109125 S    
C10   C12   1.419784 A    
C60   H32   1.110919 S    
O1    Cu1   1.970120 S    
C63   H39   1.113312 S    
C20   C22   1.412410 A    
C55   H17   1.109635 S    
C49   N3    1.363387 A    
C53   H13   1.109586 S    
C64   H41   1.110543 S    
O15   C61   1.415196 S    
C36   C40   1.424508 A    
C78   H80   1.109822 S    
C43   C47   1.404369 A    
C13   C18   1.421967 A    
C5    N1    1.361458 A    
Cu1   N4    2.003976 S    
C33   O19   1.387536 S    
O6    Cu2   1.945767 S    
C7    C9    1.413494 A    
C20   O14   1.384359 S    
C8    C10   1.413926 A    
O4    C1    1.293970 A    
C67   C68   1.520299 S    
C61   H34   1.116247 S    
C61   H33   1.108032 S    
C68   H53   1.110884 S    
C72   H63   1.110887 S    
C6    O10   1.348631 S    
C57   C58   1.520260 S    
O17   C67   1.412485 S    
C62   H35   1.110582 S    
C31   C41   1.403619 A    
C58   H26   1.110450 S    
C1    C39   1.487141 S    
C32   C42   1.405760 A    
C63   C64   1.521090 S    
C62   H36   1.110409 S    
C65   H43   1.110359 S    
C16   C18   1.412608 A    
C21   C23   1.413875 A    
C73   H65   1.115669 S    
O20   C73   1.412517 S    
C70   H56   1.110626 S    
C28   C66   1.506365 S    
C49   H9    1.080772 S    
C64   H40   1.110694 S    
C15   C17   1.412280 A    
C43   C51   1.410326 A    
C31   C35   1.402667 A    
C24   C26   1.404065 A    
C76   H74   1.109631 S    
C20   C30   1.405061 A    
N2    C8    1.360752 A    
C46   C50   1.404219 A    
O4    Cu2   1.969579 S    
O2    Cu2   1.970118 S    
O7    C4    1.294982 A    
C61   C62   1.521110 S    
C5    C13   1.414667 A    
O8    C3    1.294801 A    
C51   C52   1.512515 S    
C43   H3    1.081152 S    
O5    Cu1   1.945769 S    
C11   C13   1.419926 A    
C27   C29   1.407015 A    
C14   C17   1.421627 A    
C56   H21   1.110449 S    
C57   H23   1.114498 S    
C59   H28   1.115066 S    
C37   C40   1.422109 A    
C60   H30   1.110689 S    
C16   C54   1.519716 S    
C66   H47   1.108440 S    
C25   C27   1.396126 A    
C33   C42   1.405372 A    
C65   H44   1.108558 S    
C63   H38   1.112074 S    
C19   O13   1.384038 S    
C59   C60   1.520420 S    
C34   C38   1.405568 A    
O19   C71   1.412147 S    
C75   H70   1.107210 S    
