data_mof_unit_64707.cif
_audit_creation_date              2012-12-10T21:02:17-0500
_audit_creation_method            fapswitch 2.2
_symmetry_space_group_name_H-M    P1
_symmetry_Int_Tables_number       1
_space_group_crystal_system       triclinic
_cell_length_a                    15.066868
_cell_length_b                    15.844499
_cell_length_c                    16.670141
_cell_angle_alpha                 90.117489
_cell_angle_beta                  83.076326
_cell_angle_gamma                 91.139073
_cell_volume                      3949.81055501

loop_
_atom_site_label
_atom_site_type_symbol
_atom_type_description
_atom_site_fract_x
_atom_site_fract_y
_atom_site_fract_z
_atom_type_partial_charge
C1    C     C_R   0.500871 0.661039 0.500207 0.915099
C2    C     C_1   0.503754 0.823958 0.500599 0.026784
C3    C     C_1   0.502967 0.749211 0.500395 -0.126941
C4    C     C_1   0.497025 0.250789 0.499644 -0.126919
C5    C     C_R   0.037123 0.496965 0.573671 0.129501
C6    C     C_R   0.962877 0.503036 0.426329 0.129500
C7    C     C_R   0.094896 0.499880 0.500289 -0.079122
C8    C     C_R   0.905104 0.500121 0.499711 -0.079118
C9    C     C_R   0.057277 0.503271 0.426471 -0.064359
C10   C     C_R   0.942723 0.496732 0.573529 -0.064359
C11   C     C_1   0.192906 0.500109 0.500451 0.155532
C12   C     C_R   0.499129 0.338961 0.499794 0.915093
C13   C     C_1   0.807094 0.499891 0.499549 0.155559
C14   C     C_R   0.486030 0.496442 0.653706 0.911414
C15   C     C_R   0.513970 0.503565 0.346295 0.911391
C16   C     C_R   0.472621 0.483505 0.740299 -0.133556
C17   C     C_R   0.527379 0.516541 0.259706 -0.133586
C18   C     C_R   0.517317 0.419347 0.776614 0.114592
C19   C     C_R   0.482667 0.580708 0.223416 0.114595
C20   C     C_R   0.505129 0.411755 0.860952 0.151339
C21   C     C_R   0.494863 0.588342 0.139081 0.151336
C22   C     C_R   0.448688 0.468094 0.907235 0.021309
C23   C     C_R   0.421856 0.041038 0.483082 0.126855
C24   C     C_R   0.551328 0.532040 0.092777 0.021322
C25   C     C_R   0.394253 0.523401 0.869714 0.028546
C26   C     C_R   0.605782 0.476734 0.130277 0.028565
C27   C     C_R   0.408065 0.531313 0.785991 -0.272690
C28   C     C_R   0.591961 0.468777 0.213997 -0.272680
C29   C     C_2   0.461627 0.482088 0.991525 -0.142714
C30   C     C_2   0.538384 0.518063 0.008484 -0.142715
C31   C     C_R   0.323615 0.573959 0.916188 0.158310
C32   C     C_R   0.259553 0.534551 0.973037 -0.149253
C33   C     C_R   0.190722 0.581270 0.014381 -0.136423
C34   C     C_R   0.578087 0.958962 0.517070 0.126920
C35   C     C_R   0.185114 0.667577 0.999412 -0.090842
C36   C     C_R   0.247887 0.707218 0.942492 -0.088413
C37   C     C_R   0.316663 0.660703 0.900738 -0.118354
C38   C     C_R   0.676451 0.426226 0.083786 0.158301
C39   C     C_R   0.683454 0.339481 0.099204 -0.118293
C40   C     C_R   0.752257 0.293013 0.057431 -0.088420
C41   C     C_R   0.815007 0.332704 0.000525 -0.090905
C42   C     C_R   0.809350 0.419013 0.985590 -0.136430
C43   C     C_R   0.740491 0.465684 0.026952 -0.149331
C44   C     C_R   0.344418 0.902200 0.465634 0.149524
C45   C     C_R   0.498164 0.086997 0.499373 0.003646
C46   C     C_R   0.322406 0.896869 0.386258 -0.085027
C47   C     C_R   0.249970 0.846280 0.368961 -0.092317
C48   C     C_R   0.199768 0.800109 0.430517 -0.087287
C49   C     C_R   0.221560 0.804852 0.509580 -0.110980
C50   C     C_R   0.293553 0.855800 0.527236 -0.127828
C51   C     C_R   0.655562 0.097796 0.534413 0.149501
C52   C     C_R   0.677553 0.103300 0.613786 -0.084978
C53   C     C_R   0.750029 0.153886 0.630992 -0.092329
C54   C     C_R   0.800296 0.199878 0.569344 -0.087350
C55   C     C_R   0.778529 0.194958 0.490281 -0.111041
C56   C     C_R   0.501787 0.913002 0.500760 0.003629
C57   C     C_R   0.706491 0.144016 0.472720 -0.127837
C58   C     C_R   0.882623 0.492168 0.650722 0.142919
C59   C     C_R   0.872702 0.416574 0.695047 -0.117143
C60   C     C_R   0.812853 0.411309 0.765911 -0.095662
C61   C     C_R   0.761909 0.481035 0.792394 -0.096227
C62   C     C_R   0.771289 0.556357 0.748499 -0.123780
C63   C     C_R   0.831523 0.562094 0.677929 -0.117866
C64   C     C_R   0.117375 0.507842 0.349277 0.142925
C65   C     C_R   0.127289 0.583439 0.304958 -0.117128
C66   C     C_R   0.187131 0.588711 0.234090 -0.095663
C67   C     C_R   0.576364 0.047079 0.516570 -0.078897
C68   C     C_R   0.238073 0.518987 0.207597 -0.096218
C69   C     C_R   0.228701 0.443662 0.251487 -0.123751
C70   C     C_R   0.168474 0.437919 0.322062 -0.117872
C71   C     C_R   0.423586 0.952919 0.483559 -0.078854
C72   C     C_1   0.496222 0.176041 0.499484 0.026834
H1    H     H_    0.630985 0.424414 0.243896 0.168084
H2    H     H_    0.635200 0.307647 0.142898 0.129968
H3    H     H_    0.756851 0.226179 0.069141 0.138707
H4    H     H_    0.868213 0.296667 0.968234 0.133078
H5    H     H_    0.858554 0.449868 0.942113 0.150574
H6    H     H_    0.737972 0.532805 0.015558 0.131482
H7    H     H_    0.361694 0.931374 0.337901 0.150714
H8    H     H_    0.233309 0.842189 0.307685 0.147026
H9    H     H_    0.144169 0.760493 0.416932 0.129167
H10   H     H_    0.182844 0.768824 0.557132 0.144911
H11   H     H_    0.310231 0.858597 0.588608 0.134585
H12   H     H_    0.369056 0.575675 0.756075 0.168068
H13   H     H_    0.638218 0.068932 0.662211 0.150744
H14   H     H_    0.766671 0.158116 0.692267 0.147055
H15   H     H_    0.855929 0.239492 0.582857 0.129199
H16   H     H_    0.817299 0.230841 0.442656 0.144912
H17   H     H_    0.689832 0.141081 0.411347 0.134611
H18   H     H_    0.910804 0.361781 0.674387 0.135121
H19   H     H_    0.805189 0.352899 0.799828 0.155521
H20   H     H_    0.714781 0.476566 0.846640 0.146626
H21   H     H_    0.731549 0.610162 0.768950 0.140697
H22   H     H_    0.837782 0.620594 0.644031 0.141972
H23   H     H_    0.592196 0.532883 0.960887 0.151547
H24   H     H_    0.089185 0.638229 0.325623 0.135100
H25   H     H_    0.194790 0.647124 0.200177 0.155515
H26   H     H_    0.285195 0.523460 0.153346 0.146573
H27   H     H_    0.268440 0.389859 0.231028 0.140687
H28   H     H_    0.162220 0.379416 0.355956 0.141961
H29   H     H_    0.407817 0.467261 0.039122 0.151553
H30   H     H_    0.262034 0.467432 0.984456 0.131459
H31   H     H_    0.141500 0.550453 0.057868 0.150530
H32   H     H_    0.131929 0.703651 0.031689 0.133061
H33   H     H_    0.243331 0.774051 0.930757 0.138709
H34   H     H_    0.364934 0.692498 0.857032 0.129963
I1    I     I_    0.597374 0.330739 0.704282 -0.340909
I2    I     I_    0.402575 0.669268 0.295777 -0.340805
I3    I     I_    0.430987 0.685640 0.080060 -0.381324
I4    I     I_    0.568983 0.314469 0.920009 -0.381360
I5    I     I_    0.303136 0.105114 0.461122 -0.369121
I6    I     I_    0.696792 0.894894 0.539081 -0.369095
I7    I     I_    0.093509 0.496823 0.685530 -0.388370
I8    I     I_    0.906489 0.503178 0.314470 -0.388374
N1    N     N_1   0.729450 0.499980 0.500020 -0.070717
N2    N     N_1   0.270550 0.500020 0.499980 -0.070717
O1    O     O_R   0.426350 0.621980 0.500000 -0.600277
O2    O     O_R   0.573650 0.378020 0.500000 -0.600256
O3    O     O_R   0.573690 0.621980 0.499960 -0.600578
O4    O     O_R   0.426310 0.378020 0.500040 -0.600568
O5    O     O_R   0.417630 0.500010 0.615820 -0.605518
O6    O     O_R   0.582370 0.499990 0.384180 -0.605524
O7    O     O_R   0.564960 0.500010 0.615780 -0.591707
O8    O     O_R   0.435040 0.499990 0.384220 -0.591706
Zn1   Zn    Zn3+2 0.401630 0.500000 0.500020 1.019027
Zn2   Zn    Zn3+2 0.598370 0.500000 0.499980 1.019037

loop_
_geom_bond_atom_site_label_1
_geom_bond_atom_site_label_2
_ccdc_geom_bond_type
C25   C31   S    
C66   C68   A    
C34   C56   A    
C8    C13   S    
C23   C45   A    
C15   O6    A    
C9    C64   S    
C34   I6    S    
C41   C42   A    
C35   C36   A    
C6    C9    A    
C53   C54   A    
C43   H6    S    
C7    C11   S    
C63   H22   S    
C29   C30   D    
N1    Zn2   S    
C57   H17   S    
C66   H25   S    
C36   C37   A    
C19   C21   A    
C24   C26   A    
C54   H15   S    
C48   H9    S    
C44   C71   S    
C7    C9    A    
C1    O3    A    
C39   H2    S    
C55   H16   S    
C18   I1    S    
C6    I8    S    
C17   C19   A    
C12   O4    A    
C65   H24   S    
C46   H7    S    
C31   C32   A    
C44   C46   A    
C68   C69   A    
C22   C25   A    
C45   C67   A    
C53   H14   S    
C51   C57   A    
C64   C70   A    
C4    C12   S    
C18   C20   A    
C61   H20   S    
C5    I7    S    
C19   I2    S    
C16   C27   A    
C59   C60   A    
C14   O5    A    
C45   C72   S    
C61   C62   A    
C47   H8    S    
C28   H1    S    
C70   H28   S    
C50   H11   S    
C24   C30   S    
C15   O8    A    
C51   C52   A    
C23   C71   A    
C52   H13   S    
C35   H32   S    
C39   C40   A    
C5    C7    A    
O4    Zn1   S    
C26   C38   S    
O7    Zn2   S    
C1    O1    A    
C58   C59   A    
C31   C37   A    
C60   C61   A    
C1    C3    S    
C59   H18   S    
C49   H10   S    
O6    Zn2   S    
O5    Zn1   S    
C62   C63   A    
C21   I3    S    
C47   C48   A    
C56   C71   A    
C29   H29   S    
C51   C67   S    
C11   N2    T    
C13   N1    T    
C20   I4    S    
C69   H27   S    
C16   C18   A    
C48   C49   A    
C20   C22   A    
C49   C50   A    
N2    Zn1   S    
C55   C57   A    
C14   C16   S    
C62   H21   S    
C42   C43   A    
C4    C72   T    
C52   C53   A    
C12   O2    A    
C60   H19   S    
C44   C50   A    
C58   C63   A    
C15   C17   S    
C54   C55   A    
C27   H12   S    
C14   O7    A    
C10   C58   S    
C36   H33   S    
C33   H31   S    
C17   C28   A    
C37   H34   S    
C34   C67   A    
C6    C8    A    
C25   C27   A    
C23   I5    S    
C26   C28   A    
C40   H3    S    
C64   C65   A    
C2    C3    T    
C5    C10   A    
C2    C56   S    
C32   C33   A    
C41   H4    S    
C38   C39   A    
C33   C35   A    
C30   H23   S    
C32   H30   S    
C69   C70   A    
C68   H26   S    
C46   C47   A    
O3    Zn2   S    
C38   C43   A    
C42   H5    S    
C8    C10   A    
C65   C66   A    
C21   C24   A    
C22   C29   S    
C40   C41   A    
O2    Zn2   S    
O1    Zn1   S    
O8    Zn1   S    
