data_mof_unit_50699.cif
_audit_creation_date              2012-12-10T16:54:04-0500
_audit_creation_method            fapswitch 2.2
_symmetry_space_group_name_H-M    P1
_symmetry_Int_Tables_number       1
_space_group_crystal_system       triclinic
_cell_length_a                    9.926369
_cell_length_b                    10.895673
_cell_length_c                    13.342785
_cell_angle_alpha                 93.878151
_cell_angle_beta                  74.06555
_cell_angle_gamma                 88.342065
_cell_volume                      1382.75798227

loop_
_atom_site_label
_atom_site_type_symbol
_atom_type_description
_atom_site_fract_x
_atom_site_fract_y
_atom_site_fract_z
_atom_type_partial_charge
C1    C     C_R   0.496523 0.734518 0.504635 0.891212
C2    C     C_R   0.438304 0.588205 0.981786 -0.071808
C3    C     C_R   0.481605 0.583261 0.870636 -0.102234
C4    C     C_R   0.544320 0.571444 0.034726 0.019035
C5    C     C_R   0.686857 0.552785 0.974994 -0.058501
C6    C     C_R   0.725389 0.580949 0.871065 -0.222854
C7    C     C_R   0.622721 0.605396 0.821915 0.625224
C8    C     C_R   0.514640 0.563675 0.143067 -0.210033
C9    C     C_R   0.753106 0.491402 0.126728 -0.239435
C10   C     C_R   0.382625 0.557557 0.813025 -0.121126
C11   C     C_2   0.567072 0.071341 0.555550 -0.222093
C12   C     C_R   0.424920 0.517348 0.699156 0.843639
C13   C     C_2   0.503088 0.133290 0.497076 -0.392567
C14   C     C_2   0.578670 0.936303 0.547980 0.657782
C15   C     C_2   0.485557 0.868250 0.515606 -0.416148
C16   C     C_2   0.050621 0.570617 0.563020 0.769826
C17   C     C_2   0.905762 0.586078 0.545463 0.117809
C18   C     C_R   0.501042 0.266085 0.500417 0.837398
C19   C     C_R   0.575046 0.503555 0.301006 0.769520
C20   C     C_R   0.789104 0.510092 0.020702 0.620668
C21   C     C_R   0.615691 0.519038 0.188475 -0.153722
C22   C     C_R   0.239394 0.568377 0.866372 -0.197523
C23   C     C_R   0.195635 0.597881 0.973593 -0.133191
C24   C     C_R   0.291947 0.604236 0.032001 0.581328
Cu1   Cu    Cu3+1 0.361370 0.499980 0.499980 1.030168
Cu2   Cu    Cu3+1 0.638630 0.500020 0.500020 1.029732
H1    H     H_    0.832474 0.455749 0.160415 0.169941
H2    H     H_    0.450804 0.087339 0.444734 0.142377
H3    H     H_    0.392824 0.910966 0.501942 0.127491
H4    H     H_    0.848575 0.673343 0.573452 0.198954
H5    H     H_    0.834686 0.586831 0.828445 0.228362
H6    H     H_    0.413869 0.590868 0.194906 0.252374
H7    H     H_    0.160295 0.556145 0.825046 0.252318
H8    H     H_    0.085169 0.613235 0.013014 0.218542
H9    H     H_    0.617864 0.120835 0.607367 0.185652
N1    N     N_2   0.152660 0.501340 0.501130 -0.044739
N2    N     N_2   0.846520 0.501370 0.501160 -0.031252
O1    O     O_R   0.382960 0.678040 0.499980 -0.556868
O2    O     O_R   0.617100 0.678080 0.500020 -0.514705
O3    O     O_R   0.325800 0.499940 0.650950 -0.552665
O4    O     O_R   0.559930 0.499980 0.650990 -0.527521
O5    O     O_R   0.382900 0.321920 0.499980 -0.614320
O6    O     O_R   0.617040 0.321960 0.500020 -0.588515
O7    O     O_R   0.440070 0.500020 0.349010 -0.595322
O8    O     O_R   0.674200 0.500060 0.349050 -0.619665
F1    F     F_    0.684796 0.882289 0.578326 -0.626022
F2    F     F_    0.074266 0.635751 0.646409 -0.688589
O9    O     O_3   0.141433 0.482538 0.401891 -0.525503
C25   C     C_3   0.206941 0.366131 0.355397 0.238609
H10   H     H_    0.148873 0.290358 0.394236 0.116323
H11   H     H_    0.309063 0.344527 0.363700 0.177113
C26   C     C_3   0.228491 0.356091 0.236217 -0.396614
H12   H     H_    0.140128 0.400765 0.214045 0.253903
H13   H     H_    0.322440 0.404741 0.198500 0.241795
C27   C     C_3   0.252756 0.222433 0.190606 -0.929198
H14   H     H_    0.161440 0.168198 0.225873 0.264174
H15   H     H_    0.347921 0.180437 0.205722 0.257116
H16   H     H_    0.268067 0.218827 0.104812 0.282722
O10   O     O_3   0.907453 0.386621 0.492979 -0.529664
C28   C     C_3   0.892054 0.318074 0.402197 0.237668
H17   H     H_    0.972201 0.337148 0.332491 0.103964
H18   H     H_    0.803210 0.344295 0.375491 0.187576
C29   C     C_3   0.895642 0.179288 0.415961 -0.378699
H19   H     H_    0.001710 0.144925 0.416083 0.205346
H20   H     H_    0.824846 0.161959 0.492796 0.258345
C30   C     C_3   0.852258 0.105165 0.329468 -0.879802
H21   H     H_    0.744870 0.134864 0.328369 0.249365
H22   H     H_    0.853690 0.005812 0.343202 0.284957
H23   H     H_    0.925577 0.117926 0.251965 0.251913
F3    F     F_    0.921396 0.478719 0.961084 -0.704214
F4    F     F_    0.237446 0.632234 0.135918 -0.695411
F5    F     F_    0.659248 0.664111 0.732850 -0.639715

loop_
_geom_bond_atom_site_label_1
_geom_bond_atom_site_label_2
_ccdc_geom_bond_type
Cu1   O5    S    
C12   O3    A    
C30   H22   S    
C23   C24   A    
C19   O8    A    
Cu2   N2    S    
N1    O9    S    
C6    C7    A    
C1    C15   S    
Cu1   O1    S    
C9    C20   A    
C2    C4    A    
C24   F4    S    
Cu2   O8    S    
C26   C27   S    
C4    C8    A    
C23   H8    S    
C9    C21   A    
C29   H20   S    
C25   C26   S    
C27   H14   S    
C11   H9    S    
C2    C3    A    
C29   C30   S    
O10   C28   S    
C13   H2    S    
C3    C10   A    
C17   N2    D    
C18   O6    A    
C16   N1    D    
C17   H4    S    
C11   C13   D    
C20   F3    S    
N2    O10   S    
C10   C12   S    
C13   C18   S    
C28   H17   S    
C28   C29   S    
C1    O1    A    
Cu1   O7    S    
O9    C25   S    
C19   C21   S    
C26   H13   S    
Cu2   O6    S    
C15   H3    S    
C3    C7    A    
C27   H15   S    
Cu1   O3    S    
C2    C24   A    
C5    C6    A    
C11   C14   S    
Cu2   O2    S    
C30   H23   S    
C1    O2    A    
Cu1   N1    S    
C29   H19   S    
C8    H6    S    
C30   H21   S    
C19   O7    A    
C9    H1    S    
C12   O4    A    
C28   H18   S    
C25   H10   S    
C27   H16   S    
C7    F5    S    
C5    C20   A    
C22   H7    S    
C16   F2    S    
C14   C15   D    
C16   C17   S    
C6    H5    S    
C18   O5    A    
C25   H11   S    
Cu1   Cu2   S    
C22   C23   A    
C10   C22   A    
Cu2   O4    S    
C26   H12   S    
C4    C5    A    
C14   F1    S    
C8    C21   A    
