data_mof_unit_13163.cif
_audit_creation_date              2012-12-10T16:49:27-0500
_audit_creation_method            fapswitch 2.2
_symmetry_space_group_name_H-M    P1
_symmetry_Int_Tables_number       1
_space_group_crystal_system       triclinic
_cell_length_a                    19.312428
_cell_length_b                    8.675723
_cell_length_c                    7.476416
_cell_angle_alpha                 103.361708
_cell_angle_beta                  95.122795
_cell_angle_gamma                 93.079617
_cell_volume                      1210.31184034

loop_
_atom_site_label
_atom_site_type_symbol
_atom_type_description
_atom_site_fract_x
_atom_site_fract_y
_atom_site_fract_z
_atom_type_partial_charge
C1    C     C_R   0.497788 0.199543 0.452852 0.877565
C2    C     C_R   0.502212 0.800457 0.547148 0.877565
C3    C     C_2   0.496607 0.031242 0.426699 -0.356789
C4    C     C_2   0.503393 0.968758 0.573301 -0.356789
C5    C     C_R   0.367348 0.499360 0.500938 0.855447
C6    C     C_R   0.632652 0.500640 0.499062 0.855447
C7    C     C_R   0.262435 0.587748 0.659334 0.040836
C8    C     C_R   0.737565 0.412252 0.340668 0.040835
C9    C     C_R   0.189555 0.590303 0.660510 -0.056653
C10   C     C_R   0.810445 0.409697 0.339493 -0.056649
C11   C     C_R   0.145567 0.508047 0.502306 -0.141515
C12   C     C_R   0.854433 0.491955 0.497697 -0.141514
C13   C     C_R   0.173400 0.418536 0.346175 -0.043915
C14   C     C_R   0.826600 0.581468 0.653826 -0.043914
C15   C     C_R   0.246317 0.413230 0.347825 0.062982
C16   C     C_R   0.753683 0.586773 0.652175 0.062980
C17   C     C_R   0.290831 0.499824 0.502974 -0.049865
C18   C     C_R   0.709169 0.500178 0.497027 -0.049864
C19   C     C_R   0.930049 0.494640 0.495416 0.475825
C20   C     C_R   0.069951 0.505362 0.504587 0.475829
Cu1   Cu    Cu3+1 0.507710 0.517380 0.684380 0.996650
Cu2   Cu    Cu3+1 0.492290 0.482620 0.315620 0.996650
H1    H     H_    0.490087 0.958532 0.285917 0.176591
H2    H     H_    0.509912 0.041467 0.714082 0.176591
N1    N     N_R   0.034142 0.378292 0.538444 -0.196891
N2    N     N_R   0.965858 0.621711 0.461559 -0.196890
N3    N     N_R   0.965110 0.373318 0.534761 -0.140034
N4    N     N_R   0.034890 0.626684 0.465242 -0.140033
N5    N     N_2   0.480680 0.456420 0.038530 0.004029
N6    N     N_2   0.519320 0.543580 0.961470 0.004029
O1    O     O_R   0.505010 0.286130 0.619770 -0.565837
O2    O     O_R   0.494990 0.713870 0.380230 -0.565837
O3    O     O_R   0.491990 0.256780 0.308370 -0.594442
O4    O     O_R   0.508010 0.743220 0.691630 -0.594442
O5    O     O_R   0.406650 0.514660 0.655750 -0.548739
O6    O     O_R   0.593350 0.485340 0.344250 -0.548738
O7    O     O_R   0.393640 0.485310 0.344340 -0.573440
O8    O     O_R   0.606360 0.514690 0.655660 -0.573440
N7    N     N_3   0.308388 0.681334 0.812249 -0.564028
H3    H     H_    0.294726 0.798869 0.839763 0.226389
H4    H     H_    0.303345 0.635698 0.928446 0.263344
N8    N     N_3   0.691613 0.318665 0.187753 -0.564029
H5    H     H_    0.705274 0.201130 0.160243 0.226387
H6    H     H_    0.696657 0.364298 0.071554 0.263342
C21   C     C_2   0.159739 0.678687 0.827873 0.868187
O9    O     O_2   0.116486 0.774296 0.814145 -0.525527
O10   O     O_R   0.181117 0.652140 0.001139 -0.774354
H7    H     H_    0.157040 0.718684 0.103960 0.362661
C22   C     C_2   0.840261 0.321310 0.172132 0.868184
O11   O     O_2   0.883512 0.225696 0.185863 -0.525526
O12   O     O_R   0.818886 0.347861 0.998866 -0.774349
H8    H     H_    0.842964 0.281314 0.896046 0.362661
C23   C     C_2   0.126113 0.332919 0.180118 0.892063
O13   O     O_2   0.133330 0.194106 0.107321 -0.560208
O14   O     O_R   0.072841 0.411354 0.108160 -0.723793
H9    H     H_    0.044129 0.341122 0.995837 0.372661
C24   C     C_2   0.873886 0.667087 0.819883 0.892066
O15   O     O_2   0.866669 0.805900 0.892678 -0.560208
O16   O     O_R   0.927158 0.588654 0.891842 -0.723790
H10   H     H_    0.955871 0.658887 0.004164 0.372663
N9    N     N_3   0.276008 0.320983 0.191968 -0.582269
H11   H     H_    0.257332 0.355449 0.072581 0.244934
H12   H     H_    0.261417 0.200736 0.177940 0.255075
N10   N     N_3   0.723992 0.679021 0.808030 -0.582269
H13   H     H_    0.742667 0.644557 0.927418 0.244933
H14   H     H_    0.738582 0.799268 0.822056 0.255075
N11   N     N_3   0.430417 0.351842 0.921532 -0.407868
H15   H     H_    0.382158 0.382833 0.965486 0.224780
H16   H     H_    0.437832 0.239171 0.943963 0.206140
N12   N     N_3   0.569583 0.648158 0.078467 -0.407869
H17   H     H_    0.562168 0.760828 0.056036 0.206140
H18   H     H_    0.617842 0.617166 0.034514 0.224780

loop_
_geom_bond_atom_site_label_1
_geom_bond_atom_site_label_2
_ccdc_geom_bond_type
C7    C17   A    
C2    C4    S    
O14   H9    S    
C6    O8    A    
C9    C21   S    
N5    N6    D    
Cu1   O5    S    
Cu2   N5    S    
C5    O7    A    
N1    N3    A    
Cu1   O1    S    
Cu1   N6    S    
Cu2   O2    S    
N2    N4    A    
O10   H7    S    
C8    N8    S    
N10   H13   S    
C2    O4    A    
C22   O12   S    
C13   C15   A    
C15   N9    S    
C1    O3    A    
O16   H10   S    
N7    H4    S    
C16   C18   A    
N5    N11   S    
C21   O9    D    
Cu2   O7    S    
C9    C11   A    
C24   O15   D    
N12   H17   S    
N8    H6    S    
Cu2   O3    S    
C6    C18   S    
C10   C12   A    
C12   C19   S    
C8    C10   A    
C19   N3    A    
N6    N12   S    
C6    O6    A    
C13   C23   S    
C23   O14   S    
N9    H11   S    
C4    H2    S    
C14   C16   A    
C11   C20   S    
C24   O16   S    
C11   C13   A    
C5    C17   S    
N8    H5    S    
O12   H8    S    
C20   N4    A    
C5    O5    A    
C1    O1    A    
Cu2   O6    S    
C19   N2    A    
C2    O2    A    
C22   O11   D    
C20   N1    A    
C21   O10   S    
N7    H3    S    
N9    H12   S    
C14   C24   S    
C7    C9    A    
C7    N7    S    
Cu1   O4    S    
C16   N10   S    
C1    C3    S    
Cu1   Cu2   S    
C15   C17   A    
C10   C22   S    
C3    H1    S    
N12   H18   S    
C8    C18   A    
Cu1   O8    S    
N11   H15   S    
C23   O13   D    
C12   C14   A    
N11   H16   S    
C3    C4    D    
N10   H14   S    
