data_mof_unit_13913.cif
_audit_creation_date              2012-12-10T17:46:27-0500
_audit_creation_method            fapswitch 2.2
_symmetry_space_group_name_H-M    P1
_symmetry_Int_Tables_number       1
_space_group_crystal_system       triclinic
_cell_length_a                    20.928476
_cell_length_b                    21.806881
_cell_length_c                    14.672997
_cell_angle_alpha                 91.073337
_cell_angle_beta                  128.884416
_cell_angle_gamma                 87.602388
_cell_volume                      5207.86682166

loop_
_atom_site_label
_atom_site_type_symbol
_atom_type_description
_atom_site_fract_x
_atom_site_fract_y
_atom_site_fract_z
_atom_type_partial_charge
C1    C     C_R   0.602671 0.912986 0.630663 0.881888
C2    C     C_R   0.626262 0.289967 0.982710 -0.253041
C3    C     C_R   0.703149 0.761657 0.941927 -0.088783
C4    C     C_R   0.212184 0.740722 0.943342 -0.066757
C5    C     C_R   0.783441 0.267753 0.043845 -0.108337
C6    C     C_R   0.762370 0.714528 0.020078 -0.106478
C7    C     C_R   0.203075 0.261602 0.941830 -0.088692
C8    C     C_R   0.355202 0.764425 0.051351 0.486834
C9    C     C_R   0.634180 0.252641 0.912789 0.580852
C10   C     C_R   0.651927 0.789581 0.966132 0.525355
C11   C     C_R   0.326150 0.196246 0.014390 0.533936
C12   C     C_R   0.855203 0.264493 0.051277 0.486561
C13   C     C_R   0.668048 0.776190 0.071970 -0.274667
C14   C     C_R   0.134138 0.752695 0.912734 0.580735
C15   C     C_R   0.151864 0.289534 0.966047 0.525373
C16   C     C_R   0.826255 0.696333 0.014529 0.534349
C17   C     C_3   0.330329 0.919764 0.007783 -0.248293
C18   C     C_3   0.488718 0.151156 0.880674 -0.150761
C19   C     C_3   0.830531 0.419742 0.008083 -0.248308
C20   C     C_3   0.988746 0.651188 0.880735 -0.150615
C21   C     C_3   0.414335 0.742221 0.342652 -0.247369
C22   C     C_3   0.728641 0.093969 0.966989 -0.182155
C23   C     C_3   0.533679 0.757013 0.664210 -0.303441
C24   C     C_R   0.330676 0.223913 0.934202 -0.258068
C25   C     C_3   0.230126 0.068144 0.029610 -0.166487
C26   C     C_3   0.914396 0.242168 0.342480 -0.247347
C27   C     C_3   0.228566 0.593996 0.966957 -0.181988
C28   C     C_3   0.033601 0.257025 0.664050 -0.303409
C29   C     C_3   0.730173 0.568095 0.029950 -0.167366
C30   C     C_3   0.486108 0.726686 0.190023 -0.187189
C31   C     C_3   0.533792 0.282248 0.723688 -0.313162
C32   C     C_3   0.520326 0.830753 0.870775 -0.219779
C33   C     C_3   0.458173 0.185220 0.182735 -0.238883
C34   C     C_3   0.986278 0.227018 0.189889 -0.187086
C35   C     C_R   0.846826 0.251528 0.949569 -0.302894
C36   C     C_3   0.033968 0.782226 0.723526 -0.313106
C37   C     C_3   0.020276 0.330730 0.870697 -0.219765
C38   C     C_3   0.958182 0.685400 0.183086 -0.238859
C39   C     C_R   0.126225 0.790027 0.982651 -0.253059
C40   C     C_R   0.167987 0.276143 0.071883 -0.274693
C41   C     C_R   0.830776 0.723996 0.934339 -0.258156
C42   C     C_R   0.316337 0.991259 0.651658 -0.233726
C43   C     C_R   0.653865 0.053674 0.321068 -0.227144
C44   C     C_R   0.816355 0.491211 0.651685 -0.233735
C45   C     C_R   0.395770 0.085716 0.367592 0.869912
C46   C     C_R   0.153866 0.553683 0.321078 -0.227102
C47   C     C_R   0.350859 0.996515 0.595812 0.060551
C48   C     C_R   0.637478 0.029128 0.391002 0.084144
C49   C     C_R   0.850864 0.496497 0.595826 0.060589
C50   C     C_R   0.137482 0.529126 0.391011 0.084338
C51   C     C_R   0.483163 0.002616 0.778365 0.428965
C52   C     C_R   0.521569 0.981489 0.228245 0.422230
C53   C     C_R   0.983164 0.502624 0.778367 0.428968
C54   C     C_R   0.021597 0.481475 0.228254 0.421905
C55   C     C_R   0.448986 0.006913 0.837533 -0.088538
C56   C     C_R   0.395200 0.916681 0.364488 0.894167
C57   C     C_R   0.526781 0.012840 0.148797 -0.018720
C58   C     C_R   0.948990 0.506915 0.837541 -0.088442
C59   C     C_R   0.026778 0.512857 0.148805 -0.018399
C60   C     C_R   0.365756 0.994702 0.774387 -0.014948
C61   C     C_R   0.596209 0.049287 0.198768 -0.011012
C62   C     C_R   0.865778 0.494657 0.774413 -0.015042
C63   C     C_R   0.096205 0.549305 0.198775 -0.010832
C64   C     C_R   0.495030 0.023668 0.957417 -0.130603
C65   C     C_R   0.470856 0.004864 0.023597 -0.090375
C66   C     C_R   0.995030 0.523677 0.957423 -0.130553
C67   C     C_R   0.601473 0.086986 0.630866 0.845879
C68   C     C_R   0.970862 0.504871 0.023610 -0.090369
C69   C     C_R   0.388677 0.986177 0.960486 0.485814
C70   C     C_R   0.554105 0.069246 0.005340 0.467368
C71   C     C_R   0.888706 0.486145 0.960516 0.485817
C72   C     C_R   0.054105 0.569256 0.005345 0.467297
C73   C     C_R   0.334417 0.987604 0.835485 0.073973
C74   C     C_R   0.606351 0.080542 0.125778 0.091818
C75   C     C_R   0.834461 0.487512 0.835528 0.074165
C76   C     C_R   0.106345 0.580560 0.125782 0.091858
C77   C     C_R   0.658285 0.137544 0.703008 -0.225084
C78   C     C_R   0.102669 0.412983 0.630660 0.881896
C79   C     C_R   0.326396 0.879212 0.274181 -0.205930
C80   C     C_R   0.333041 0.133844 0.291428 -0.209453
C81   C     C_R   0.660686 0.861316 0.702517 -0.216255
C82   C     C_R   0.158281 0.637547 0.703013 -0.225142
C83   C     C_R   0.826412 0.379192 0.274200 -0.205904
C84   C     C_R   0.833054 0.633854 0.291451 -0.209736
C85   C     C_R   0.160667 0.361300 0.702494 -0.216250
C86   C     C_R   0.766330 0.205979 0.754748 -0.180362
C87   C     C_R   0.180745 0.863970 0.134279 -0.165288
C88   C     C_R   0.241802 0.219793 0.253200 -0.187717
C89   C     C_R   0.895768 0.585715 0.367591 0.869823
C90   C     C_R   0.787096 0.801564 0.790282 -0.184203
C91   C     C_R   0.266366 0.705955 0.754818 -0.180407
C92   C     C_R   0.680768 0.363901 0.134350 -0.165192
C93   C     C_R   0.741835 0.719812 0.253258 -0.187736
C94   C     C_R   0.287045 0.301512 0.790215 -0.184227
C95   C     C_R   0.700583 0.169222 0.671781 0.114990
C96   C     C_R   0.245094 0.898676 0.222035 0.073744
C97   C     C_R   0.300458 0.174966 0.330128 0.117166
C98   C     C_R   0.734576 0.850460 0.719479 0.115077
C99   C     C_R   0.200617 0.669207 0.671830 0.114918
C100  C     C_R   0.895203 0.416677 0.364492 0.894067
C101  C     C_R   0.745104 0.398619 0.222094 0.073708
C102  C     C_R   0.800467 0.674966 0.330160 0.117178
C103  C     C_R   0.234553 0.350429 0.719453 0.115075
C104  C     C_R   0.673418 0.155316 0.807828 0.508707
C105  C     C_R   0.341277 0.826938 0.231219 0.464670
C106  C     C_R   0.303812 0.138366 0.175508 0.475525
C107  C     C_R   0.641262 0.821505 0.755918 0.519304
C108  C     C_R   0.173375 0.655337 0.807800 0.508656
C109  C     C_R   0.841305 0.326934 0.231216 0.464666
C110  C     C_R   0.803866 0.638416 0.175556 0.475342
C111  C     C_R   0.101472 0.586987 0.630866 0.845880
C112  C     C_R   0.141219 0.321486 0.755863 0.519290
C113  C     C_R   0.718135 0.207964 0.865514 -0.035134
C114  C     C_R   0.275133 0.802105 0.121096 -0.031198
C115  C     C_R   0.262639 0.193232 0.111493 -0.049206
C116  C     C_R   0.704395 0.783654 0.851422 -0.023296
C117  C     C_R   0.218105 0.707978 0.865499 -0.035471
C118  C     C_R   0.775160 0.302099 0.121097 -0.031175
C119  C     C_R   0.762712 0.693290 0.111583 -0.049173
C120  C     C_R   0.204331 0.283609 0.851338 -0.023318
C121  C     C_R   0.777342 0.222958 0.855707 -0.025420
C122  C     C_R   0.346845 0.751481 0.949654 -0.303006
C123  C     C_R   0.194401 0.817187 0.081514 -0.003625
C124  C     C_R   0.223548 0.229569 0.145031 -0.018662
C125  C     C_R   0.773592 0.769129 0.857808 -0.027066
C126  C     C_R   0.277347 0.722946 0.855747 -0.025476
C127  C     C_R   0.694431 0.317143 0.081556 -0.003571
C128  C     C_R   0.723606 0.729613 0.145113 -0.018717
C129  C     C_R   0.273521 0.269070 0.857713 -0.026966
C130  C     C_R   0.712221 0.240698 0.943371 -0.066769
C131  C     C_R   0.283418 0.767740 0.043864 -0.108312
C132  C     C_R   0.262283 0.214459 0.019964 -0.106632
Cu1   Cu    Cu3+1 0.526640 0.000000 0.436960 1.041589
Cu2   Cu    Cu3+1 0.473360 0.000000 0.563040 1.044679
Cu3   Cu    Cu3+1 0.026640 0.500000 0.436960 1.041570
Cu4   Cu    Cu3+1 0.973360 0.500000 0.563040 1.044686
H1    H     H_    0.397249 0.758856 0.948557 0.153652
H2    H     H_    0.618616 0.377970 0.098468 0.174300
H3    H     H_    0.713793 0.749297 0.280713 0.183633
H4    H     H_    0.341840 0.291591 0.798825 0.168693
H5    H     H_    0.805553 0.223726 0.737699 0.170367
H6    H     H_    0.118594 0.878068 0.098363 0.174289
H7    H     H_    0.213768 0.249287 0.280655 0.183599
H8    H     H_    0.841896 0.791654 0.798899 0.168748
H9    H     H_    0.679814 0.036330 0.484273 0.183030
H10   H     H_    0.311579 0.995004 0.502080 0.184865
H11   H     H_    0.179820 0.536320 0.484285 0.183013
H12   H     H_    0.565170 0.301196 0.954297 0.146378
H13   H     H_    0.811582 0.494989 0.502098 0.184895
H14   H     H_    0.251168 0.984379 0.597333 0.197511
H15   H     H_    0.709935 0.077955 0.363558 0.201609
H16   H     H_    0.751191 0.484316 0.597372 0.197529
H17   H     H_    0.209938 0.577963 0.363571 0.201598
H18   H     H_    0.350266 0.885857 0.971430 0.160037
H19   H     H_    0.262508 0.920588 0.953173 0.179953
H20   H     H_    0.354486 0.903152 0.095284 0.213118
H21   H     H_    0.508933 0.192423 0.936704 0.160953
H22   H     H_    0.432864 0.133969 0.864128 0.115406
H23   H     H_    0.637709 0.803324 0.098453 0.168316
H24   H     H_    0.469016 0.164633 0.793835 0.247382
H25   H     H_    0.850262 0.385863 0.971413 0.160124
H26   H     H_    0.762754 0.420515 0.953881 0.179949
H27   H     H_    0.855005 0.403144 0.095712 0.213518
H28   H     H_    0.009023 0.692455 0.936779 0.161108
H29   H     H_    0.932893 0.634032 0.864255 0.115380
H30   H     H_    0.969013 0.664655 0.793874 0.247356
H31   H     H_    0.377864 0.709470 0.269292 0.177761
H32   H     H_    0.388424 0.747928 0.389435 0.156286
H33   H     H_    0.477325 0.721592 0.404861 0.172737
H34   H     H_    0.381787 0.211304 0.935284 0.140689
H35   H     H_    0.755730 0.057123 0.945866 0.146228
H36   H     H_    0.715801 0.074443 0.022785 0.231167
H37   H     H_    0.775675 0.128395 0.023472 0.121778
H38   H     H_    0.557353 0.724620 0.737586 0.161634
H39   H     H_    0.552603 0.740429 0.611787 0.150585
H40   H     H_    0.465665 0.757348 0.606558 0.188694
H41   H     H_    0.186551 0.071861 0.049231 0.131128
H42   H     H_    0.233779 0.019179 0.011558 0.218038
H43   H     H_    0.205459 0.094919 0.949257 0.166218
H44   H     H_    0.878020 0.209437 0.269043 0.177727
H45   H     H_    0.897189 0.258947 0.948402 0.153579
H46   H     H_    0.888389 0.247761 0.389156 0.156315
H47   H     H_    0.977405 0.221579 0.404752 0.172727
H48   H     H_    0.255663 0.557150 0.945845 0.146203
H49   H     H_    0.215711 0.574469 0.022735 0.231160
H50   H     H_    0.275599 0.628419 0.023457 0.121791
H51   H     H_    0.057243 0.224608 0.737379 0.161631
H52   H     H_    0.052533 0.240461 0.611631 0.150594
H53   H     H_    0.965584 0.257379 0.606367 0.188742
H54   H     H_    0.686912 0.571485 0.050150 0.131635
H55   H     H_    0.733962 0.519222 0.011597 0.218440
H56   H     H_    0.065130 0.801284 0.954204 0.146518
H57   H     H_    0.705048 0.595016 0.949580 0.165725
H58   H     H_    0.507533 0.721755 0.137451 0.142556
H59   H     H_    0.458648 0.683473 0.188105 0.126106
H60   H     H_    0.541075 0.733979 0.282139 0.213995
H61   H     H_    0.581201 0.296818 0.717174 0.169002
H62   H     H_    0.510531 0.322171 0.744967 0.176888
H63   H     H_    0.481614 0.265547 0.636249 0.225361
H64   H     H_    0.519328 0.849420 0.940831 0.148802
H65   H     H_    0.501652 0.782095 0.852280 0.128467
H66   H     H_    0.473434 0.857777 0.790084 0.208572
H67   H     H_    0.137658 0.303285 0.098375 0.168325
H68   H     H_    0.443986 0.216937 0.228793 0.155651
H69   H     H_    0.485385 0.210456 0.150010 0.159439
H70   H     H_    0.505007 0.150636 0.247515 0.228452
H71   H     H_    0.007821 0.222300 0.137436 0.142608
H72   H     H_    0.958963 0.183681 0.187830 0.126072
H73   H     H_    0.041152 0.234335 0.282054 0.214142
H74   H     H_    0.081316 0.796238 0.716502 0.169133
H75   H     H_    0.011352 0.822488 0.745064 0.176544
H76   H     H_    0.981395 0.765673 0.636251 0.225372
H77   H     H_    0.019281 0.349384 0.940764 0.148803
H78   H     H_    0.881913 0.711410 0.935467 0.140782
H79   H     H_    0.001582 0.282077 0.852161 0.128456
H80   H     H_    0.973398 0.357772 0.790026 0.208603
H81   H     H_    0.943857 0.716831 0.229309 0.155604
H82   H     H_    0.985275 0.710962 0.150520 0.159353
H83   H     H_    0.005161 0.650826 0.247674 0.228474
H84   H     H_    0.305622 0.723682 0.737813 0.170373
I1    I     I_    0.211051 0.984055 0.254731 -0.428016
I2    I     I_    0.695860 0.148782 0.190962 -0.429195
I3    I     I_    0.704604 0.485261 0.740951 -0.421646
I4    I     I_    0.195848 0.648805 0.190966 -0.429232
I5    I     I_    0.536247 0.886511 0.220038 -0.314868
I6    I     I_    0.609905 0.978036 0.881701 -0.250295
I7    I     I_    0.036597 0.386539 0.220146 -0.315650
I8    I     I_    0.109902 0.478022 0.881707 -0.250366
I9    I     I_    0.666046 0.174009 0.502262 -0.434489
I10   I     I_    0.775082 0.904238 0.646049 -0.358639
I11   I     I_    0.333035 0.174598 0.499941 -0.366730
I12   I     I_    0.711018 0.483961 0.254834 -0.428274
I13   I     I_    0.166148 0.673982 0.502354 -0.434705
I14   I     I_    0.275090 0.404210 0.646065 -0.358712
I15   I     I_    0.832998 0.674558 0.499944 -0.366658
I16   I     I_    0.204487 0.985604 0.740820 -0.422021
N1    N     N_R   0.433280 0.000000 0.657760 -0.213902
N2    N     N_R   0.566720 0.000000 0.342240 -0.211304
N3    N     N_R   0.933280 0.500000 0.657760 -0.213892
N4    N     N_R   0.066720 0.500000 0.342240 -0.211185
O1    O     O_R   0.600040 0.935040 0.546740 -0.554462
O2    O     O_R   0.444990 0.064930 0.346780 -0.535462
O3    O     O_R   0.444990 0.935070 0.346780 -0.547426
O4    O     O_R   0.555010 0.064930 0.653220 -0.516012
O5    O     O_R   0.055010 0.435070 0.653220 -0.526482
O6    O     O_R   0.944990 0.564930 0.346780 -0.535408
O7    O     O_R   0.944990 0.435070 0.346780 -0.547558
O8    O     O_R   0.055010 0.564930 0.653220 -0.516024
O9    O     O_3   0.357674 0.979852 0.019848 -0.549214
O10   O     O_3   0.554990 0.107426 0.931996 -0.526505
O11   O     O_3   0.857680 0.479845 0.019846 -0.549457
O12   O     O_R   0.399960 0.064960 0.453260 -0.565343
O13   O     O_3   0.054985 0.607432 0.931993 -0.526598
O14   O     O_3   0.418941 0.799241 0.303497 -0.524440
O15   O     O_3   0.654128 0.118283 0.862328 -0.496705
O16   O     O_3   0.559135 0.817106 0.705522 -0.530769
O17   O     O_3   0.309795 0.086708 0.124087 -0.503718
O18   O     O_3   0.918983 0.299253 0.303478 -0.524551
O19   O     O_3   0.154063 0.618316 0.862285 -0.496688
O20   O     O_3   0.059088 0.317101 0.705451 -0.530771
O21   O     O_3   0.809844 0.586791 0.124069 -0.503631
O22   O     O_3   0.431361 0.778251 0.152183 -0.524227
O23   O     O_R   0.399960 0.935040 0.453260 -0.581454
O24   O     O_3   0.563831 0.234191 0.806042 -0.573629
O25   O     O_3   0.598032 0.838390 0.899599 -0.527088
O26   O     O_3   0.388250 0.153974 0.091561 -0.537520
O27   O     O_3   0.931329 0.278455 0.152024 -0.524507
O28   O     O_3   0.063770 0.734265 0.805989 -0.573636
O29   O     O_3   0.097989 0.338357 0.899537 -0.527081
O30   O     O_3   0.888398 0.654099 0.091744 -0.537501
O31   O     O_R   0.600040 0.064960 0.546740 -0.594477
O32   O     O_R   0.100040 0.435040 0.546740 -0.554448
O33   O     O_R   0.899960 0.564960 0.453260 -0.565325
O34   O     O_R   0.899960 0.435040 0.453260 -0.581383
O35   O     O_R   0.100040 0.564960 0.546740 -0.594451
O36   O     O_R   0.555010 0.935070 0.653220 -0.526489

loop_
_geom_bond_atom_site_label_1
_geom_bond_atom_site_label_2
_ccdc_geom_bond_type
C44   C49   A    
C50   H11   S    
C66   C68   A    
C81   C107  A    
C58   C62   A    
Cu2   O23   S    
C49   N3    A    
C10   O25   S    
C80   C97   A    
Cu2   O36   S    
C82   C99   A    
C11   C24   A    
Cu4   O33   S    
C67   C77   S    
Cu2   O12   S    
C72   O13   S    
C72   C76   A    
C3    C6    A    
C92   H2    S    
C11   C132  A    
C53   N3    A    
C31   H63   S    
C109  O18   S    
C106  C115  A    
C20   O13   S    
C23   H38   S    
C110  C119  A    
C9    C130  A    
C89   O6    A    
C20   H29   S    
C33   H69   S    
C21   H33   S    
C44   H16   S    
C21   H32   S    
C30   H58   S    
C93   H3    S    
C91   C126  A    
C3    C116  A    
C28   H52   S    
C53   I8    S    
C19   H25   S    
C81   C98   A    
Cu1   O2    S    
C25   H41   S    
C107  C116  A    
Cu1   O31   S    
C26   H44   S    
C23   H39   S    
C63   C76   A    
C86   C121  A    
C2    H12   S    
C20   H28   S    
C9    O24   S    
C80   C106  A    
C60   C73   A    
C32   H65   S    
C78   O5    A    
C39   C123  A    
Cu3   N4    S    
Cu4   O8    S    
C27   H49   S    
C37   H77   S    
C91   H84   S    
C38   H82   S    
C27   H48   S    
C1    O36   A    
Cu1   O1    S    
C21   O14   S    
C47   N1    A    
C13   C128  A    
C24   C129  A    
C58   C66   A    
C30   H60   S    
C111  O8    A    
C110  O21   S    
C70   C74   A    
C106  O17   S    
C29   O21   S    
C88   C124  A    
C29   H55   S    
C69   C73   A    
C111  O35   A    
C45   C80   S    
C24   H34   S    
C117  C126  A    
C70   O10   S    
C88   H7    S    
C51   C55   A    
C88   C97   A    
C85   C103  A    
C52   N2    A    
C84   C102  A    
C115  C132  A    
C25   O17   S    
C2    C127  A    
C85   C112  A    
C107  O16   S    
C7    C15   A    
C14   C39   A    
C47   H10   S    
C75   I3    S    
C102  I15   S    
C19   O11   S    
C98   I10   S    
C55   C60   A    
C28   H53   S    
C89   O33   A    
C36   O28   S    
C38   H81   S    
C37   O29   S    
C105  O14   S    
C8    C131  A    
C17   H18   S    
C7    C120  A    
C71   O11   S    
C14   O28   S    
C109  C118  A    
C4    C131  A    
C54   C59   A    
C40   C124  A    
C66   C72   A    
C33   H70   S    
C71   C75   A    
C94   C129  A    
C113  C130  A    
C120  C129  A    
C41   C125  A    
C105  C114  A    
Cu3   Cu4   S    
C56   O23   A    
C90   C98   A    
C5    C12   A    
C3    C10   A    
C52   C57   A    
C28   H51   S    
C42   C60   A    
C112  C120  A    
C48   H9    S    
C25   H42   S    
C37   H79   S    
C23   H40   S    
Cu3   O6    S    
C6    C16   A    
C77   C95   A    
C76   I4    S    
C41   H78   S    
C100  O34   A    
C31   O24   S    
C30   O22   S    
C27   H50   S    
C118  C127  A    
C122  C126  A    
C64   C70   A    
C114  C131  A    
C18   H22   S    
C34   H73   S    
Cu3   O7    S    
C59   C68   A    
C34   O27   S    
C16   O30   S    
C30   H59   S    
C26   O18   S    
C40   H67   S    
C35   C121  A    
C53   C58   A    
C55   C64   A    
C51   I6    S    
C83   C109  A    
C7    C132  A    
C32   O25   S    
C51   N1    A    
C19   H27   S    
C112  O20   S    
C12   C35   A    
C38   O30   S    
Cu2   O4    S    
C22   O15   S    
C26   H47   S    
C1    O1    A    
C92   C101  A    
C36   H76   S    
C90   C125  A    
C114  C123  A    
C26   H46   S    
C78   C85   S    
C5    C130  A    
C56   O3    A    
C94   C103  A    
C103  I14   S    
C78   O32   A    
C83   C100  S    
C32   H66   S    
Cu1   Cu2   S    
C34   H71   S    
Cu2   N1    S    
C4    C117  A    
C28   O20   S    
Cu1   N2    S    
C8    O22   S    
C17   H19   S    
C92   C127  A    
C6    C119  A    
C31   H61   S    
C22   H37   S    
C43   H15   S    
C43   C61   A    
C95   I9    S    
C43   C48   A    
C82   C108  A    
C65   C69   A    
C46   H17   S    
C74   I2    S    
C115  C124  A    
C83   C101  A    
C29   H54   S    
C5    C118  A    
C34   H72   S    
C108  C117  A    
C37   H80   S    
Cu4   O34   S    
C22   H35   S    
C122  H1    S    
C57   C65   A    
C23   O16   S    
C77   C104  A    
C10   C13   A    
C93   C102  A    
C48   N2    A    
C67   O4    A    
C25   H43   S    
C87   C96   A    
C57   C61   A    
C69   O9    S    
C61   C74   A    
C35   H45   S    
C27   O19   S    
C46   C50   A    
C33   H68   S    
C59   C63   A    
C21   H31   S    
C104  O15   S    
C49   H13   S    
C33   O26   S    
C116  C125  A    
C20   H30   S    
C44   C62   A    
C82   C111  S    
C50   N4    A    
C93   C128  A    
C67   O31   A    
C79   C96   A    
C45   O12   A    
C18   H21   S    
C119  C128  A    
C87   C123  A    
C39   H56   S    
C2    C9    A    
C22   H36   S    
C8    C122  A    
C97   I11   S    
C46   C63   A    
C18   O10   S    
C68   C71   A    
C29   H57   S    
C16   C41   A    
C64   C65   A    
C17   O9    S    
Cu3   O32   S    
C11   O26   S    
C13   H23   S    
Cu4   O5    S    
C101  I12   S    
Cu3   O35   S    
C42   C47   A    
C73   I16   S    
C87   H6    S    
C4    C14   A    
C42   H14   S    
C84   C110  A    
C15   C40   A    
C12   O27   S    
C18   H24   S    
C86   C95   A    
C36   H75   S    
C54   N4    A    
C104  C113  A    
C52   I5    S    
C113  C121  A    
C90   H8    S    
C79   C105  A    
C32   H64   S    
C96   I1    S    
C84   C89   S    
Cu4   N3    S    
C36   H74   S    
C100  O7    A    
C94   H4    S    
C108  O19   S    
C99   I13   S    
C91   C99   A    
C15   O29   S    
C17   H20   S    
C1    C81   S    
C45   O2    A    
C19   H26   S    
C31   H62   S    
Cu1   O3    S    
C62   C75   A    
C38   H83   S    
C86   H5    S    
C54   I7    S    
C56   C79   S    
