data_mof_unit_46911.cif
_audit_creation_date              2013-03-05T16:42:03-0500
_audit_creation_method            fapswitch 2.2
_symmetry_space_group_name_H-M    P1
_symmetry_Int_Tables_number       1
_space_group_crystal_system       triclinic
_cell_length_a                    9.857206
_cell_length_b                    10.642135
_cell_length_c                    13.018801
_cell_angle_alpha                 89.589329
_cell_angle_beta                  72.907599
_cell_angle_gamma                 89.598189
_cell_volume                      1305.32385752

loop_
_atom_site_label
_atom_site_type_symbol
_atom_site_description
_atom_site_fract_x
_atom_site_fract_y
_atom_site_fract_z
_atom_type_partial_charge
O1    O     O_R   0.385310 0.683210 0.499990 -0.613282
O2    O     O_R   0.614650 0.683240 0.500000 -0.599299
C1    C     C_R   0.501560 0.740187 0.495071 0.904168
O3    O     O_R   0.328390 0.499940 0.653610 -0.624827
O4    O     O_R   0.557730 0.499980 0.653620 -0.604077
C2    C     C_R   0.424972 0.480025 0.701711 0.912863
Zn1   Zn    Zn3+2 0.346870 0.499980 0.499990 0.996446
Zn2   Zn    Zn3+2 0.653130 0.500020 0.500010 1.001422
O5    O     O_R   0.385350 0.316760 0.500000 -0.626781
O6    O     O_R   0.614690 0.316790 0.500010 -0.586689
O7    O     O_R   0.442270 0.500020 0.346380 -0.549139
O8    O     O_R   0.671610 0.500060 0.346390 -0.633380
C3    C     C_R   0.502607 0.260140 0.493763 0.940445
C4    C     C_R   0.575965 0.491353 0.295979 0.875402
C5    C     C_R   0.796530 0.434904 0.010515 -0.169801
H1    H     H_    0.837931 0.503243 0.152046 0.186150
H2    H     H_    0.846027 0.356333 0.809958 0.170288
H3    H     H_    0.906048 0.445795 0.962739 0.137133
C6    C     C_R   0.616360 0.456913 0.181318 -0.181037
C7    C     C_R   0.240763 0.409041 0.866913 -0.291057
C8    C     C_R   0.201769 0.347514 0.965878 -0.207313
C9    C     C_R   0.304491 0.314043 0.015709 0.630911
C10   C     C_R   0.446821 0.355664 0.969732 -0.093795
C11   C     C_R   0.488313 0.378241 0.858625 -0.067984
C12   C     C_R   0.549724 0.380283 0.025166 -0.044808
C13   C     C_R   0.694097 0.394941 0.963183 0.094819
C14   C     C_R   0.734630 0.366703 0.853982 -0.325358
C15   C     C_R   0.630835 0.350419 0.801961 0.337319
C16   C     C_R   0.513671 0.406628 0.136113 0.291193
C17   C     C_R   0.757517 0.468248 0.118173 -0.231375
C18   C     C_R   0.384963 0.422722 0.810194 -0.085604
H4    H     H_    0.158612 0.437509 0.831628 0.168577
H5    H     H_    0.092029 0.322055 0.002733 0.163256
C19   C     C_R   0.385789 0.937277 0.475244 0.135736
C20   C     C_R   0.508658 0.871468 0.473653 -0.101397
C21   C     C_R   0.639091 0.934412 0.447946 -0.224892
H6    H     H_    0.738359 0.884195 0.435987 0.168871
C22   C     C_R   0.639568 0.064582 0.448234 -0.176377
H7    H     H_    0.738973 0.113235 0.437601 0.177054
C23   C     C_R   0.509602 0.129198 0.472852 -0.064505
C24   C     C_R   0.386157 0.065366 0.474527 0.164881
C25   C     C_3   0.240499 0.073240 0.552238 -0.452184
C26   C     C_3   0.240702 0.930948 0.553110 -0.509227
H8    H     H_    0.239632 0.114746 0.630618 0.216873
H9    H     H_    0.162060 0.114377 0.515084 0.211637
H10   H     H_    0.240599 0.889886 0.631914 0.208705
H11   H     H_    0.163451 0.889800 0.515834 0.202676
C27   C     C_R   0.910618 0.598442 0.543489 0.103142
N1    N     N_R   0.856940 0.500860 0.500710 -0.126624
C28   C     C_R   0.947582 0.407339 0.451094 -0.029700
H12   H     H_    0.908445 0.330908 0.413570 0.150549
C29   C     C_R   0.090277 0.406005 0.453256 -0.011714
H13   H     H_    0.156662 0.326867 0.420175 0.197296
N2    N     N_R   0.142580 0.500820 0.500710 -0.102021
C30   C     C_R   0.053640 0.597900 0.544336 0.121241
C31   C     C_3   0.015419 0.637142 0.659485 -0.593642
C32   C     C_3   0.860891 0.637431 0.658850 0.374184
H14   H     H_    0.038438 0.562063 0.711876 0.183053
H15   H     H_    0.060660 0.729202 0.669898 0.204204
H16   H     H_    0.799095 0.561777 0.710233 0.122194
O9    O     O_3   0.783733 0.753123 0.679414 -0.574827
C33   C     C_3   0.856343 0.858495 0.622965 -0.211842
H17   H     H_    0.914406 0.838364 0.537790 0.121917
H18   H     H_    0.928014 0.898506 0.665762 0.170676
H19   H     H_    0.776821 0.932566 0.622516 0.221650
N3    N     N_R   0.374879 0.379729 0.204339 0.234256
O10   O     O_R   0.357309 0.283230 0.268795 -0.421249
O11   O     O_R   0.271799 0.459953 0.213123 -0.405400
O12   O     O_3   0.264721 0.228707 0.099803 -0.574251
C34   C     C_3   0.342857 0.116154 0.070791 -0.232520
H20   H     H_    0.455725 0.128904 0.067960 0.171001
H21   H     H_    0.335414 0.079524 0.992673 0.150492
H22   H     H_    0.297431 0.044025 0.133118 0.196985
N4    N     N_R   0.663614 0.276450 0.706060 0.224118
O13   O     O_R   0.570330 0.195783 0.695069 -0.441548
O14   O     O_R   0.794648 0.263229 0.647247 -0.454258

loop_
_geom_bond_atom_site_label_1
_geom_bond_atom_site_label_2
_geom_bond_distance
_ccdc_geom_bond_type
C5    H3    1.082466 S    
N3    O11   1.302045 A    
C30   C31   1.496129 S    
C27   C30   1.413052 A    
C24   C25   1.495899 S    
C20   C21   1.403456 A    
C15   N4    1.433961 S    
C27   C32   1.497123 S    
Zn1   O7    1.943739 S    
C13   C14   1.393414 A    
N4    O14   1.300779 A    
C21   H6    1.082416 S    
O4    C2    1.292264 A    
O7    C4    1.290994 A    
C8    H5    1.082089 S    
H1    C17   1.083258 S    
C31   C32   1.525639 S    
C19   C20   1.389737 A    
O5    C3    1.281159 A    
C3    C23   1.419077 S    
C33   H18   1.108992 S    
C28   C29   1.415072 A    
C10   C11   1.402121 A    
C34   H20   1.111527 S    
C9    O12   1.384007 S    
C2    C18   1.478412 S    
C8    C9    1.396706 A    
O12   C34   1.411786 S    
C19   C24   1.363126 A    
C25   H8    1.112520 S    
O3    Zn1   1.954177 S    
C29   N2    1.367139 A    
C12   C16   1.412041 A    
N4    O13   1.301204 A    
H2    C14   1.084286 S    
O3    C2    1.299673 A    
C32   H16   1.107424 S    
C12   C13   1.423727 A    
O1    C1    1.284877 A    
C25   H9    1.111527 S    
C33   H17   1.109820 S    
C1    C20   1.420870 S    
Zn2   O8    1.954178 S    
C34   H22   1.109251 S    
C28   H12   1.081647 S    
C23   C24   1.392255 A    
O8    C4    1.301523 A    
C25   C26   1.514245 S    
C6    C16   1.421131 A    
C29   H13   1.074615 S    
C5    C17   1.388026 A    
C7    H4    1.082482 S    
Zn1   O5    1.983795 S    
N2    C30   1.364395 A    
C27   N1    1.363008 A    
C33   H19   1.108962 S    
O1    Zn1   1.989039 S    
C4    C6    1.475665 S    
O2    Zn2   1.983796 S    
C19   C26   1.491866 S    
C11   C15   1.411953 A    
C5    C13   1.398429 A    
O6    C3    1.285914 A    
O4    Zn2   1.943737 S    
C32   O9    1.427552 S    
C31   H15   1.104838 S    
C21   C22   1.385363 A    
O2    C1    1.282999 A    
C11   C18   1.423370 A    
C22   C23   1.402223 A    
C22   H7    1.083387 S    
C31   H14   1.111634 S    
N3    O10   1.301348 A    
C10   C12   1.433565 A    
O9    C33   1.414244 S    
C26   H10   1.111961 S    
C16   N3    1.424818 S    
C7    C8    1.391684 A    
Zn2   O6    1.989038 S    
N1    C28   1.365131 A    
C14   C15   1.395347 A    
C9    C10   1.426218 A    
C34   H21   1.114257 S    
Zn1   N2    2.010951 S    
C6    C17   1.398188 A    
C26   H11   1.109985 S    
Zn2   N1    2.011778 S    
C7    C18   1.404008 A    
