data_mof_unit_38395.cif
_audit_creation_date              2012-12-10T18:49:56-0500
_audit_creation_method            fapswitch 2.2
_symmetry_space_group_name_H-M    P1
_symmetry_Int_Tables_number       1
_space_group_crystal_system       triclinic
_cell_length_a                    10.732393
_cell_length_b                    9.824308
_cell_length_c                    10.701021
_cell_angle_alpha                 89.843952
_cell_angle_beta                  90.132915
_cell_angle_gamma                 89.846994
_cell_volume                      1128.28656784

loop_
_atom_site_label
_atom_site_type_symbol
_atom_type_description
_atom_site_fract_x
_atom_site_fract_y
_atom_site_fract_z
_atom_type_partial_charge
C1    C     C_R   0.260318 0.500163 0.499855 0.910137
C2    C     C_R   0.563106 0.927508 0.589847 -0.014125
C3    C     C_R   0.436693 0.928406 0.410147 -0.024329
C4    C     C_R   0.436764 0.072408 0.410127 -0.035625
C5    C     C_R   0.494180 0.500227 0.258195 0.952528
C6    C     C_R   0.740452 0.499931 0.499876 1.003955
C7    C     C_R   0.493189 0.499964 0.741709 0.860196
C8    C     C_3   0.420701 0.630157 0.072549 -0.246287
C9    C     C_3   0.426068 0.367759 0.070945 -0.263726
C10   C     C_3   0.438714 0.640144 0.929337 -0.217918
C11   C     C_3   0.408481 0.379848 0.927475 -0.227460
C12   C     C_3   0.630804 0.480510 0.927636 -0.216808
C13   C     C_3   0.631708 0.503824 0.073992 0.548369
C14   C     C_3   0.492044 0.500271 0.121894 -0.119390
C15   C     C_3   0.491834 0.500433 0.878425 -0.108560
C16   C     C_1   0.288575 0.633306 0.113591 0.197312
C17   C     C_1   0.309657 0.330296 0.137728 0.212254
C18   C     C_1   0.326148 0.691692 0.862756 0.235111
C19   C     C_1   0.276707 0.392535 0.886283 0.238960
C20   C     C_1   0.718678 0.573444 0.862754 0.278293
C21   C     C_1   0.675908 0.341744 0.896183 0.277763
C22   C     C_R   0.066763 0.389222 0.549774 -0.176758
C23   C     C_R   0.065915 0.611581 0.449905 -0.197804
C24   C     C_R   0.939226 0.388046 0.551063 0.374090
C25   C     C_R   0.938255 0.612502 0.448463 0.407558
C26   C     C_R   0.873627 0.500049 0.499639 -0.238763
C27   C     C_R   0.128866 0.500403 0.499840 -0.157247
C28   C     C_R   0.562873 0.071458 0.589919 -0.008972
Cl1   Cl    Cl    0.702976 0.664346 0.116797 -0.507236
Cl2   Cl    Cl    0.728768 0.380196 0.155465 -0.530512
Cl3   Cl    Cl    0.869899 0.245063 0.622557 -0.570177
Cl4   Cl    Cl    0.867456 0.756094 0.377876 -0.450218
H1    H     H_    0.461506 0.724168 0.112996 0.194237
H2    H     H_    0.613650 0.872517 0.661630 0.147035
H3    H     H_    0.490206 0.280464 0.088177 0.183717
H4    H     H_    0.386024 0.874091 0.338471 0.126801
H5    H     H_    0.386200 0.127309 0.338437 0.138644
H6    H     H_    0.510632 0.719413 0.912156 0.169673
H7    H     H_    0.440450 0.281742 0.886768 0.151279
H8    H     H_    0.117570 0.304064 0.589942 0.200711
H9    H     H_    0.116115 0.696928 0.410093 0.196009
H10   H     H_    0.612865 0.125613 0.661825 0.173848
N1    N     N_R   0.499970 0.857200 0.499970 -0.087446
N2    N     N_R   0.499970 0.142800 0.499970 -0.093870
N3    N     N_1   0.185663 0.636396 0.145589 -0.131163
N4    N     N_1   0.219169 0.300994 0.189829 -0.146100
N5    N     N_1   0.238839 0.732064 0.810711 -0.150950
N6    N     N_1   0.173959 0.401832 0.854206 -0.151389
N7    N     N_1   0.787079 0.645575 0.811831 -0.142827
N8    N     N_1   0.710756 0.233092 0.873258 -0.109570
O1    O     O_R   0.316750 0.614620 0.499990 -0.633820
O2    O     O_R   0.316750 0.385380 0.499990 -0.634336
O3    O     O_R   0.499970 0.614670 0.314790 -0.603190
O4    O     O_R   0.499970 0.385330 0.314790 -0.606940
O5    O     O_R   0.683220 0.614710 0.500010 -0.569587
O6    O     O_R   0.683220 0.385290 0.500010 -0.550436
O7    O     O_R   0.500010 0.614660 0.685200 -0.641855
O8    O     O_R   0.500010 0.385340 0.685200 -0.643677
Zn1   Zn    Zn3+2 0.499980 0.653120 0.500000 1.015691
Zn2   Zn    Zn3+2 0.499980 0.346880 0.500000 1.014898

loop_
_geom_bond_atom_site_label_1
_geom_bond_atom_site_label_2
_ccdc_geom_bond_type
C16   N3    T    
C2    C28   A    
C9    C14   S    
C20   N7    T    
C23   C27   A    
C9    C11   S    
C2    N1    A    
C7    O8    A    
C23   H9    S    
C12   C15   S    
N1    Zn1   S    
C6    O5    A    
C10   H6    S    
C22   H8    S    
C18   N5    T    
C2    H2    S    
C25   Cl4   S    
C7    C15   S    
O3    Zn1   S    
C24   Cl3   S    
C8    C16   S    
O4    Zn2   S    
C13   C14   S    
C12   C13   S    
C11   H7    S    
C1    O1    A    
C11   C19   S    
C5    C14   S    
C6    C26   S    
C3    H4    S    
N2    Zn2   S    
C3    N1    A    
C9    C17   S    
C21   N8    T    
C24   C26   A    
C4    H5    S    
O5    Zn1   S    
C10   C15   S    
C23   C25   A    
C22   C27   A    
C10   C18   S    
C1    O2    A    
C22   C24   A    
O7    Zn1   S    
C12   C20   S    
C7    O7    A    
O8    Zn2   S    
C3    C4    A    
C5    O4    A    
O1    Zn1   S    
C17   N4    T    
C5    O3    A    
C8    C10   S    
C13   Cl1   S    
C1    C27   S    
C19   N6    T    
C9    H3    S    
C8    C14   S    
C4    N2    A    
O2    Zn2   S    
C25   C26   A    
C13   Cl2   S    
C11   C15   S    
C12   C21   S    
C28   N2    A    
O6    Zn2   S    
C6    O6    A    
C8    H1    S    
C28   H10   S    
