data_mof_unit_29552.cif
_audit_creation_date              2012-12-10T17:43:39-0500
_audit_creation_method            fapswitch 2.2
_symmetry_space_group_name_H-M    P1
_symmetry_Int_Tables_number       1
_space_group_crystal_system       triclinic
_cell_length_a                    14.865517
_cell_length_b                    10.641306
_cell_length_c                    9.944158
_cell_angle_alpha                 89.302245
_cell_angle_beta                  90.416058
_cell_angle_gamma                 92.503014
_cell_volume                      1571.3985891

loop_
_atom_site_label
_atom_site_type_symbol
_atom_type_description
_atom_site_fract_x
_atom_site_fract_y
_atom_site_fract_z
_atom_type_partial_charge
C1    C     C_R   0.502776 0.258930 0.501680 0.868735
C2    C     C_R   0.183213 0.388808 0.472227 -0.265554
C3    C     C_R   0.232197 0.500061 0.498145 -0.036927
C4    C     C_R   0.327313 0.499116 0.499562 0.840380
C5    C     C_R   0.191280 0.612670 0.521251 -0.258178
C6    C     C_R   0.514700 0.101714 0.757098 -0.152237
C7    C     C_R   0.487659 0.037920 0.874461 -0.158718
C8    C     C_R   0.437095 0.925289 0.865967 -0.194777
C9    C     C_R   0.422388 0.869899 0.741430 -0.121106
C10   C     C_R   0.455917 0.929469 0.623201 0.067735
C11   C     C_R   0.489777 0.053854 0.628801 0.091249
C12   C     C_R   0.910146 0.615404 0.515625 0.106180
C13   C     C_R   0.496452 0.123046 0.505578 -0.161888
C14   C     C_R   0.478590 0.063450 0.382683 -0.306399
C15   C     C_R   0.459973 0.935650 0.378476 0.228142
C16   C     C_R   0.484754 0.736614 0.499371 0.881856
C17   C     C_R   0.460079 0.866954 0.499675 -0.196463
C18   C     C_R   0.384964 0.329286 0.140583 -0.132547
C19   C     C_R   0.328549 0.244566 0.071055 -0.212515
C20   C     C_R   0.328365 0.244857 0.931801 -0.167627
C21   C     C_R   0.384951 0.329389 0.861285 -0.113855
C22   C     C_R   0.444482 0.414554 0.928357 0.077178
C23   C     C_R   0.946174 0.276076 0.452252 -0.224570
C24   C     C_R   0.444589 0.414441 0.072608 0.096005
C25   C     C_R   0.549268 0.587883 0.071642 0.187140
C26   C     C_R   0.549877 0.587044 0.927364 0.169562
C27   C     C_R   0.672784 0.500426 0.500190 0.879982
C28   C     C_R   0.816982 0.614096 0.515627 -0.275397
C29   C     C_R   0.768173 0.500692 0.499720 -0.051861
C30   C     C_R   0.809789 0.388284 0.477901 -0.265186
C31   C     C_R   0.902946 0.388029 0.474646 0.142685
C32   C     C_R   0.953509 0.502043 0.494731 0.051388
C33   C     C_3   0.350368 0.827638 0.235491 -0.753685
C34   C     C_R   0.039614 0.276461 0.450336 -0.222746
C35   C     C_3   0.687827 0.676849 0.174983 -0.676501
C36   C     C_3   0.693377 0.662620 0.832920 -0.683736
C37   C     C_3   0.132095 0.909246 0.435014 -0.833882
C38   C     C_R   0.090153 0.388570 0.471840 0.150758
C39   C     C_R   0.047163 0.502441 0.494219 0.003512
C40   C     C_R   0.097913 0.616143 0.517019 0.086668
C41   C     C_R   0.054132 0.729542 0.536595 0.215000
C42   C     C_R   0.960162 0.727920 0.536093 -0.301242
H1    H     H_    0.782354 0.700914 0.526781 0.119746
H2    H     H_    0.769516 0.301868 0.463508 0.127807
H3    H     H_    0.907770 0.188499 0.436479 0.143871
H4    H     H_    0.072376 0.189187 0.433080 0.146787
H5    H     H_    0.217761 0.302780 0.454529 0.120523
H6    H     H_    0.232873 0.696708 0.541399 0.156363
H7    H     H_    0.926286 0.814773 0.551404 0.147399
H8    H     H_    0.478483 0.115864 0.288581 0.172267
H9    H     H_    0.464638 0.928803 0.170321 0.198179
H10   H     H_    0.303855 0.906268 0.226043 0.219181
H11   H     H_    0.329683 0.765935 0.321719 0.243157
H12   H     H_    0.556756 0.185960 0.769810 0.166769
H13   H     H_    0.345347 0.770222 0.143141 0.229456
H14   H     H_    0.578150 0.777189 0.109275 0.199351
H15   H     H_    0.729466 0.748184 0.118623 0.190546
H16   H     H_    0.711140 0.581341 0.153127 0.238863
H17   H     H_    0.698785 0.697572 0.282920 0.242577
H18   H     H_    0.586624 0.773535 0.881412 0.212588
H19   H     H_    0.736054 0.723537 0.899001 0.197308
H20   H     H_    0.710111 0.690932 0.728644 0.237985
H21   H     H_    0.709903 0.562655 0.849703 0.240865
H22   H     H_    0.073460 0.904509 0.622809 0.226505
H23   H     H_    0.504504 0.077302 0.971779 0.138728
H24   H     H_    0.072475 0.942460 0.379046 0.239103
H25   H     H_    0.169411 0.845717 0.369958 0.254025
H26   H     H_    0.177306 0.991648 0.459899 0.238033
H27   H     H_    0.412709 0.877593 0.955639 0.139481
H28   H     H_    0.385089 0.780251 0.737909 0.153980
H29   H     H_    0.378344 0.327492 0.247162 0.201989
H30   H     H_    0.283692 0.179667 0.125691 0.146537
H31   H     H_    0.283648 0.179811 0.877856 0.152438
H32   H     H_    0.379494 0.326316 0.754506 0.203940
N1    N     N_R   0.499150 0.498800 0.142780 -0.139976
N2    N     N_R   0.499120 0.498720 0.857170 -0.145983
N3    N     N_2   0.441946 0.877080 0.252510 -0.282633
N4    N     N_2   0.593445 0.688541 0.142487 -0.248821
N5    N     N_2   0.599047 0.682771 0.854734 -0.253077
N6    N     N_2   0.103973 0.845041 0.557698 -0.308226
O1    O     O_R   0.500000 0.316780 0.614690 -0.652068
O2    O     O_R   0.499990 0.316750 0.385360 -0.639171
O3    O     O_R   0.367850 0.499980 0.614680 -0.642708
O4    O     O_R   0.367840 0.499960 0.385350 -0.635476
O5    O     O_R   0.500010 0.683250 0.614640 -0.604875
O6    O     O_R   0.500000 0.683220 0.385310 -0.556843
O7    O     O_R   0.632160 0.500040 0.614650 -0.598337
O8    O     O_R   0.632150 0.500020 0.385320 -0.600462
Zn1   Zn    Zn3+2 0.500010 0.500020 0.653130 0.933614
Zn2   Zn    Zn3+2 0.499990 0.499980 0.346870 0.952140

loop_
_geom_bond_atom_site_label_1
_geom_bond_atom_site_label_2
_ccdc_geom_bond_type
C33   H13   S    
H18   N5    S    
C23   H3    S    
C27   C29   S    
C41   C42   A    
C19   C20   A    
C22   N2    A    
C41   N6    S    
C7    C8    A    
C14   H8    S    
C33   H10   S    
C8    H27   S    
C12   C28   A    
C35   H16   S    
C18   C24   A    
C28   C29   A    
C38   C39   A    
C10   C17   A    
C1    O1    A    
C37   H26   S    
H14   N4    S    
C35   H17   S    
C18   C19   A    
C32   C39   A    
C12   C42   A    
N1    Zn2   S    
C8    C9    A    
C26   N2    A    
C34   H4    S    
C36   H21   S    
C9    C10   A    
N2    Zn1   S    
O1    Zn1   S    
C13   C14   A    
C12   C32   A    
C16   O6    A    
H22   N6    S    
C30   H2    S    
C19   H30   S    
O4    Zn2   S    
C6    H12   S    
C36   H20   S    
C5    H6    S    
C33   H11   S    
O3    Zn1   S    
C37   N6    S    
C25   N4    S    
C9    H28   S    
O6    Zn2   S    
C6    C11   A    
O5    Zn1   S    
C16   C17   S    
C1    O2    A    
C21   H32   S    
C25   N1    A    
C23   C31   A    
H9    N3    S    
C29   C30   A    
C7    H23   S    
C2    C38   A    
C31   C32   A    
C4    O4    A    
C30   C31   A    
C23   C34   A    
C37   H24   S    
C27   O7    A    
C40   C41   A    
O8    Zn2   S    
O7    Zn1   S    
C16   O5    A    
C22   C24   A    
C1    C13   S    
C36   H19   S    
C39   C40   A    
C18   H29   S    
C15   C17   A    
C35   N4    S    
C34   C38   A    
C3    C5    A    
C36   N5    S    
C24   N1    A    
C6    C7    A    
C2    H5    S    
C28   H1    S    
C26   N5    S    
O2    Zn2   S    
C35   H15   S    
C2    C3    A    
C25   C26   A    
C11   C13   A    
C33   N3    S    
C15   N3    S    
C4    O3    A    
C37   H25   S    
C20   H31   S    
C27   O8    A    
C10   C11   A    
C42   H7    S    
C20   C21   A    
C5    C40   A    
C14   C15   A    
C21   C22   A    
C3    C4    S    
