data_mof_unit_30280.cif
_audit_creation_date              2012-12-10T17:40:54-0500
_audit_creation_method            fapswitch 2.2
_symmetry_space_group_name_H-M    P1
_symmetry_Int_Tables_number       1
_space_group_crystal_system       triclinic
_cell_length_a                    14.566491
_cell_length_b                    15.384291
_cell_length_c                    9.930379
_cell_angle_alpha                 89.415085
_cell_angle_beta                  92.127119
_cell_angle_gamma                 89.923763
_cell_volume                      2223.69709888

loop_
_atom_site_label
_atom_site_type_symbol
_atom_type_description
_atom_site_fract_x
_atom_site_fract_y
_atom_site_fract_z
_atom_type_partial_charge
Br1   Br    Br    0.583380 0.739089 0.247347 -0.527806
Br2   Br    Br    0.774396 0.093670 0.249789 -0.543999
Br3   Br    Br    0.083382 0.239090 0.247345 -0.527806
Br4   Br    Br    0.274398 0.593669 0.249792 -0.544002
C1    C     C_R   0.376232 0.881905 0.498257 0.869847
C2    C     C_R   0.765124 0.174740 0.393766 0.283203
C3    C     C_R   0.173864 0.244133 0.393153 0.282214
C4    C     C_R   0.265124 0.674740 0.393766 0.283201
C5    C     C_R   0.659347 0.790282 0.511236 -0.203282
C6    C     C_R   0.718156 0.154963 0.511004 -0.203134
C7    C     C_R   0.159346 0.290282 0.511236 -0.203283
C8    C     C_R   0.218156 0.654963 0.511004 -0.203131
C9    C     C_R   0.334553 0.017974 0.133381 -0.195903
C10   C     C_R   0.834553 0.517972 0.133381 -0.195903
C11   C     C_R   0.253537 0.038082 0.061729 -0.264285
C12   C     C_R   0.383637 0.123969 0.498223 0.885605
C13   C     C_R   0.753537 0.538082 0.061731 -0.264281
C14   C     C_R   0.252855 0.044009 0.921883 0.113741
C15   C     C_R   0.752855 0.544009 0.921884 0.113748
C16   C     C_R   0.333333 0.025518 0.855270 -0.141554
C17   C     C_R   0.833333 0.525519 0.855270 -0.141571
C18   C     C_R   0.418299 0.012686 0.924680 0.135941
C19   C     C_R   0.918298 0.512685 0.924680 0.135948
C20   C     C_R   0.418466 0.010935 0.068801 0.168161
C21   C     C_R   0.918466 0.510934 0.068801 0.168162
C22   C     C_R   0.577414 0.985097 0.075951 -0.016698
C23   C     C_R   0.876233 0.381905 0.498257 0.869846
C24   C     C_R   0.077414 0.485097 0.075951 -0.016701
C25   C     C_R   0.632459 0.105605 0.502641 0.903326
C26   C     C_R   0.608722 0.871340 0.502469 0.919338
C27   C     C_R   0.132459 0.605605 0.502641 0.903324
C28   C     C_R   0.108721 0.371340 0.502469 0.919336
C29   C     C_R   0.577104 0.984290 0.933332 -0.174717
C30   C     C_R   0.077104 0.484291 0.933332 -0.174712
C31   C     C_R   0.366471 0.247933 0.720122 -0.156048
C32   C     C_R   0.239077 0.849168 0.707579 -0.171812
C33   C     C_R   0.866470 0.747932 0.720123 -0.156047
C34   C     C_R   0.883637 0.623969 0.498223 0.885603
C35   C     C_R   0.739075 0.349170 0.707575 -0.171812
C36   C     C_R   0.340122 0.274442 0.846595 -0.234152
C37   C     C_R   0.208290 0.820800 0.832024 -0.221833
C38   C     C_R   0.840121 0.774440 0.846597 -0.234153
C39   C     C_R   0.708284 0.320803 0.832018 -0.221828
C40   C     C_R   0.746984 0.786425 0.870750 0.138442
C41   C     C_R   0.707339 0.231590 0.862843 0.137968
C42   C     C_R   0.246985 0.286427 0.870749 0.138437
C43   C     C_R   0.207345 0.731586 0.862846 0.137966
C44   C     C_R   0.681474 0.781877 0.763321 0.169964
C45   C     C_R   0.251630 0.193476 0.386923 -0.265179
C46   C     C_R   0.727502 0.171625 0.761003 0.172971
C47   C     C_R   0.181474 0.281877 0.763321 0.169954
C48   C     C_R   0.227504 0.671622 0.761003 0.172977
C49   C     C_R   0.712177 0.771002 0.630101 -0.014462
C50   C     C_R   0.737473 0.203240 0.628252 0.018269
C51   C     C_R   0.212177 0.271001 0.630100 -0.014455
C52   C     C_R   0.237474 0.703239 0.628252 0.018267
C53   C     C_R   0.300081 0.238248 0.614113 0.078774
C54   C     C_R   0.262921 0.789077 0.610119 0.066298
C55   C     C_R   0.800082 0.738248 0.614113 0.078773
C56   C     C_R   0.314696 0.751498 0.388146 -0.210630
C57   C     C_R   0.762920 0.289078 0.610118 0.066299
C58   C     C_R   0.315861 0.191800 0.495491 -0.145138
C59   C     C_R   0.311435 0.810604 0.494766 -0.173672
C60   C     C_R   0.815861 0.691800 0.495491 -0.145138
C61   C     C_R   0.811435 0.310604 0.494765 -0.173674
C62   C     C_R   0.751630 0.693476 0.386923 -0.265180
C63   C     C_R   0.814697 0.251498 0.388146 -0.210623
C64   C     C_R   0.673864 0.744133 0.393153 0.282212
H1    H     H_    0.260403 0.153973 0.298878 0.178888
H2    H     H_    0.239592 0.917118 0.682895 0.131447
H3    H     H_    0.938334 0.733746 0.706404 0.166864
H4    H     H_    0.739592 0.417120 0.682889 0.131435
H5    H     H_    0.391208 0.279382 0.928206 0.150852
H6    H     H_    0.189387 0.867973 0.906135 0.152639
H7    H     H_    0.891207 0.779377 0.928209 0.150852
H8    H     H_    0.689379 0.367977 0.906126 0.152642
H9    H     H_    0.640483 0.971553 0.132850 0.190856
H10   H     H_    0.140484 0.471555 0.132850 0.190855
H11   H     H_    0.328995 0.006455 0.238801 0.208276
H12   H     H_    0.355956 0.764304 0.301596 0.224788
H13   H     H_    0.828996 0.506454 0.238802 0.208277
H14   H     H_    0.190806 0.046731 0.115323 0.179324
H15   H     H_    0.690807 0.546732 0.115326 0.179320
H16   H     H_    0.120272 0.088594 0.909694 0.226321
H17   H     H_    0.144577 0.010276 0.800510 0.170887
H18   H     H_    0.620260 0.588567 0.909703 0.226305
H19   H     H_    0.644594 0.510293 0.800461 0.170877
H20   H     H_    0.751121 0.856447 0.041072 0.185586
H21   H     H_    0.742591 0.748083 0.064515 0.223509
H22   H     H_    0.677474 0.254496 0.059473 0.199858
H23   H     H_    0.760403 0.653972 0.298879 0.178886
H24   H     H_    0.621430 0.171108 0.986777 0.187314
H25   H     H_    0.251113 0.356462 0.041057 0.185583
H26   H     H_    0.242603 0.248099 0.064523 0.223502
H27   H     H_    0.177502 0.754491 0.059484 0.199865
H28   H     H_    0.121434 0.671116 0.986787 0.187315
H29   H     H_    0.560810 0.828941 0.830702 0.232149
H30   H     H_    0.546648 0.754397 0.708026 0.197316
H31   H     H_    0.752960 0.070841 0.896575 0.218744
H32   H     H_    0.723434 0.039012 0.737898 0.196634
H33   H     H_    0.060811 0.328941 0.830705 0.232151
H34   H     H_    0.855957 0.264303 0.301597 0.224789
H35   H     H_    0.046648 0.254399 0.708026 0.197317
H36   H     H_    0.252960 0.570835 0.896570 0.218741
H37   H     H_    0.223437 0.539011 0.737891 0.196632
H38   H     H_    0.326033 0.018306 0.750027 0.197356
H39   H     H_    0.826032 0.518307 0.750028 0.197352
H40   H     H_    0.639140 0.967337 0.884403 0.140421
H41   H     H_    0.139140 0.467337 0.884402 0.140418
H42   H     H_    0.438335 0.233747 0.706403 0.166863
N1    N     N_R   0.498810 1.000000 0.142780 -0.117817
N2    N     N_3   0.185329 0.701823 0.995115 -0.416705
N3    N     N_3   0.586244 0.770978 0.793837 -0.406876
N4    N     N_3   0.759532 0.085182 0.794441 -0.447109
N5    N     N_3   0.086244 0.270978 0.793838 -0.406888
N6    N     N_3   0.259534 0.585179 0.794438 -0.447108
N7    N     N_R   0.998810 0.500000 0.142780 -0.117817
N8    N     N_R   0.498740 1.000000 0.857170 -0.124630
N9    N     N_R   0.998740 0.500000 0.857170 -0.124628
N10   N     N_3   0.170478 0.066587 0.845533 -0.439818
N11   N     N_3   0.670478 0.566594 0.845535 -0.439800
N12   N     N_3   0.718527 0.800363 0.004998 -0.418861
N13   N     N_3   0.685318 0.201828 0.995112 -0.416702
N14   N     N_3   0.218529 0.300370 0.004997 -0.418862
O1    O     O_R   0.408390 0.908380 0.614690 -0.626894
O2    O     O_R   0.591620 0.908390 0.614640 -0.656347
O3    O     O_R   0.091620 0.591610 0.614640 -0.635037
O4    O     O_R   0.091620 0.408390 0.614640 -0.656346
O5    O     O_R   0.591610 0.091610 0.385310 -0.571919
O6    O     O_R   0.591610 0.908390 0.385310 -0.565939
O7    O     O_R   0.091610 0.591610 0.385310 -0.571920
O8    O     O_R   0.091610 0.408390 0.385310 -0.565938
O9    O     O_R   0.408390 0.091620 0.614690 -0.640004
O10   O     O_R   0.908390 0.408380 0.614690 -0.626892
O11   O     O_R   0.908390 0.591620 0.614690 -0.640004
O12   O     O_R   0.408370 0.908380 0.385360 -0.624837
O13   O     O_R   0.408370 0.091620 0.385360 -0.638171
O14   O     O_R   0.908370 0.408380 0.385360 -0.624837
O15   O     O_R   0.908370 0.591620 0.385360 -0.638171
O16   O     O_R   0.591620 0.091610 0.614640 -0.635038
Zn1   Zn    Zn3+2 0.500010 1.000000 0.653130 0.912135
Zn2   Zn    Zn3+2 0.000010 0.500000 0.653130 0.912137
Zn3   Zn    Zn3+2 0.499980 0.000000 0.346870 0.979062
Zn4   Zn    Zn3+2 0.999980 0.500000 0.346870 0.979062

loop_
_geom_bond_atom_site_label_1
_geom_bond_atom_site_label_2
_ccdc_geom_bond_type
O8    Zn4   S    
C1    O12   A    
C62   C64   A    
C26   O2    A    
C11   C14   A    
H22   N13   S    
H37   N6    S    
H35   N5    S    
C12   O13   A    
H25   N14   S    
C27   O3    A    
Br4   C4    S    
N8    Zn1   S    
H31   N4    S    
C9    H11   S    
C49   C55   A    
C53   C58   A    
C41   N13   S    
C36   C42   A    
H28   N2    S    
C38   H7    S    
C46   C50   A    
C12   C58   S    
C56   C59   A    
C15   C17   A    
O12   Zn3   S    
Br3   C3    S    
C24   N7    A    
C19   N9    A    
H21   N12   S    
C43   N2    S    
C30   N9    A    
Br1   C64   S    
C36   H5    S    
C1    C59   S    
C14   C16   A    
C33   C38   A    
C27   O7    A    
C37   H6    S    
H36   N6    S    
O11   Zn2   S    
C25   O5    A    
C30   H41   S    
O1    Zn1   S    
C61   C63   A    
C35   H4    S    
C24   H10   S    
C34   C60   S    
N1    Zn3   S    
C62   H23   S    
O13   Zn3   S    
C24   C30   A    
C29   N8    A    
C45   H1    S    
H16   N10   S    
C10   C13   A    
C42   N14   S    
C32   C37   A    
Br2   C2    S    
C20   N1    A    
C38   C40   A    
C12   O9    A    
C32   H2    S    
C11   H14   S    
C16   H38   S    
C48   N6    S    
C17   C19   A    
C37   C43   A    
C44   C49   A    
C35   C57   A    
C23   O14   A    
C22   H9    S    
N7    Zn4   S    
H32   N4    S    
O16   Zn1   S    
C3    C45   A    
H20   N12   S    
H24   N13   S    
H19   N11   S    
H30   N3    S    
C35   C39   A    
C26   O6    A    
C42   C47   A    
C47   N5    S    
C9    C20   A    
C46   N4    S    
O3    Zn2   S    
C60   C62   A    
C8    C52   A    
H17   N10   S    
C3    C7    A    
C23   C61   S    
O10   Zn2   S    
O15   Zn4   S    
C22   C29   A    
C9    C11   A    
C4    C8    A    
H18   N11   S    
C55   C60   A    
C33   C55   A    
C34   O11   A    
O6    Zn3   S    
C39   C41   A    
C17   H39   S    
C31   H42   S    
C5    C26   S    
C29   H40   S    
C2    C63   A    
C16   C18   A    
C7    C28   S    
C33   H3    S    
C8    C27   S    
H33   N5    S    
C18   C20   A    
C5    C49   A    
H29   N3    S    
C14   N10   S    
C28   O8    A    
C7    C51   A    
H27   N2    S    
C34   O15   A    
C39   H8    S    
C18   N8    A    
C25   O16   A    
C15   N11   S    
C45   C58   A    
C56   H12   S    
C23   O10   A    
O9    Zn1   S    
C54   C59   A    
C21   N7    A    
C2    C6    A    
C43   C48   A    
O5    Zn3   S    
C50   C57   A    
O2    Zn1   S    
C32   C54   A    
C31   C53   A    
C28   O4    A    
C51   C53   A    
C31   C36   A    
C5    C64   A    
C40   C44   A    
O14   Zn4   S    
C4    C56   A    
C6    C25   S    
C41   C46   A    
C40   N12   S    
C13   C15   A    
C52   C54   A    
C47   C51   A    
C19   C21   A    
C10   C21   A    
C6    C50   A    
C57   C61   A    
C1    O1    A    
N9    Zn2   S    
C10   H13   S    
C13   H15   S    
O4    Zn2   S    
C22   N1    A    
O7    Zn4   S    
C48   C52   A    
C63   H34   S    
C44   N3    S    
H26   N14   S    
