data_mof_unit_50052.cif
_audit_creation_date              2012-12-10T17:33:00-0500
_audit_creation_method            fapswitch 2.2
_symmetry_space_group_name_H-M    P1
_symmetry_Int_Tables_number       1
_space_group_crystal_system       triclinic
_cell_length_a                    12.354751
_cell_length_b                    13.23693
_cell_length_c                    14.246693
_cell_angle_alpha                 93.005654
_cell_angle_beta                  107.94085
_cell_angle_gamma                 116.917301
_cell_volume                      1925.22812328

loop_
_atom_site_label
_atom_site_type_symbol
_atom_type_description
_atom_site_fract_x
_atom_site_fract_y
_atom_site_fract_z
_atom_type_partial_charge
C1    C     C_R   0.650808 0.714173 0.508644 0.803287
C2    C     C_R   0.889348 0.558487 0.926837 0.087693
C3    C     C_R   0.845765 0.584773 0.000874 0.100758
C4    C     C_R   0.009145 0.556535 0.957551 0.021713
C5    C     C_R   0.074152 0.564843 0.061565 -0.012169
C6    C     C_R   0.035267 0.602879 0.134493 0.342654
C7    C     C_R   0.920983 0.609889 0.103243 -0.244964
C8    C     C_R   0.067974 0.549634 0.888186 -0.160800
C9    C     C_R   0.181120 0.541262 0.918348 -0.191735
C10   C     C_R   0.233842 0.531068 0.016468 0.155943
C11   C     C_R   0.176952 0.537405 0.087548 0.111436
C12   C     C_R   0.619919 0.518391 0.687044 0.792443
C13   C     C_R   0.340854 0.511527 0.043801 -0.176908
C14   C     C_R   0.389456 0.494778 0.140255 -0.185518
C15   C     C_R   0.218105 0.507161 0.179363 -0.143370
C16   C     C_R   0.139716 0.966588 0.363668 -0.145043
C17   C     C_R   0.249484 0.162303 0.463947 -0.061825
C18   C     C_R   0.730312 0.921480 0.573927 -0.212082
C19   C     C_R   0.821305 0.038481 0.593573 0.437666
C20   C     C_R   0.923309 0.072753 0.558672 -0.175439
C21   C     C_R   0.932661 0.990390 0.498623 0.035346
C22   C     C_R   0.830451 0.873201 0.468523 0.079233
C23   C     C_R   0.345422 0.285280 0.485187 0.818844
C24   C     C_R   0.039154 0.020750 0.466247 0.117593
C25   C     C_R   0.035490 0.937345 0.396626 0.149308
C26   C     C_R   0.926571 0.826625 0.358772 -0.208949
C27   C     C_R   0.824666 0.795397 0.392903 -0.157579
C28   C     C_R   0.150015 0.131509 0.501660 -0.187160
C29   C     C_R   0.246024 0.079028 0.396632 -0.165299
C30   C     C_R   0.735876 0.837610 0.514077 -0.163042
C31   C     C_R   0.251399 0.675440 0.667987 -0.295632
C32   C     C_R   0.651834 0.340039 0.365714 -0.061631
C33   C     C_R   0.723960 0.293653 0.342724 0.318994
C34   C     C_R   0.382654 0.485085 0.313359 0.809877
C35   C     C_R   0.859301 0.345667 0.397769 0.314016
C36   C     C_R   0.925038 0.452775 0.471155 -0.137700
C37   C     C_R   0.843278 0.491413 0.495850 0.233504
C38   C     C_R   0.065831 0.520498 0.525240 0.027223
C39   C     C_R   0.116986 0.612811 0.609534 0.171353
C40   C     C_R   0.034598 0.644364 0.634246 -0.291799
C41   C     C_R   0.901899 0.587106 0.577351 -0.136329
C42   C     C_R   0.160263 0.505728 0.498100 0.120018
C43   C     C_R   0.336673 0.649482 0.641685 0.072627
C44   C     C_R   0.693983 0.537714 0.795291 -0.055769
C45   C     C_R   0.327584 0.492039 0.208427 -0.072077
C46   C     C_R   0.728898 0.589134 0.971755 -0.157255
C47   C     C_R   0.653976 0.566667 0.869592 -0.179761
C48   C     C_R   0.809501 0.531732 0.824319 -0.214277
Cu1   Cu    Cu3+1 0.416420 0.526630 0.522910 0.979956
Cu2   Cu    Cu3+1 0.583580 0.473370 0.477090 0.945783
H1    H     H_    0.891779 0.637234 0.159644 0.159495
H2    H     H_    0.387019 0.509525 0.990720 0.134328
H3    H     H_    0.322463 0.101985 0.366437 0.175990
H4    H     H_    0.920088 0.763677 0.302573 0.153933
H5    H     H_    0.137103 0.903463 0.310132 0.190447
H6    H     H_    0.161383 0.196715 0.558102 0.151786
H7    H     H_    0.656867 0.896114 0.607530 0.188527
H8    H     H_    0.991130 0.164715 0.577585 0.182216
H9    H     H_    0.740027 0.710397 0.356871 0.169598
H10   H     H_    0.440145 0.696301 0.687467 0.130198
H11   H     H_    0.163079 0.491382 0.228017 0.202311
H12   H     H_    0.073584 0.716013 0.697685 0.156322
H13   H     H_    0.290299 0.744258 0.733738 0.154630
H14   H     H_    0.133631 0.450024 0.428056 0.188133
H15   H     H_    0.547145 0.297036 0.324906 0.176532
H16   H     H_    0.848113 0.619754 0.601628 0.199051
H17   H     H_    0.474867 0.483795 0.161261 0.159246
H18   H     H_    0.224140 0.537653 0.863289 0.145990
H19   H     H_    0.695881 0.610687 0.028102 0.132798
H20   H     H_    0.564993 0.571994 0.848890 0.148827
H21   H     H_    0.834117 0.503718 0.765488 0.165304
H22   H     H_    0.031395 0.554760 0.810600 0.150280
N1    N     N_R   0.290690 0.566960 0.557640 -0.195639
N2    N     N_R   0.709100 0.433710 0.442970 -0.227699
O1    O     O_R   0.545970 0.684450 0.528810 -0.565018
O2    O     O_R   0.687130 0.639470 0.490120 -0.610123
O3    O     O_R   0.519670 0.535100 0.660030 -0.592172
O4    O     O_R   0.660830 0.490120 0.621340 -0.588522
O5    O     O_R   0.312870 0.360530 0.509880 -0.571899
O6    O     O_R   0.454030 0.315550 0.471190 -0.574102
O7    O     O_R   0.339170 0.509880 0.378660 -0.563402
O8    O     O_R   0.480330 0.464900 0.339970 -0.598383
Cl1   Cl    Cl    0.811032 0.142741 0.666305 -0.597873
Cl2   Cl    Cl    0.931983 0.259903 0.384923 -0.599570
Cl3   Cl    Cl    0.638807 0.164731 0.247720 -0.518517
Cl4   Cl    Cl    0.136247 0.666206 0.263830 -0.666174

loop_
_geom_bond_atom_site_label_1
_geom_bond_atom_site_label_2
_ccdc_geom_bond_type
C43   N1    A    
C37   N2    A    
C17   C29   A    
C19   C20   A    
C4    C8    A    
C28   H6    S    
C26   C27   A    
C17   C23   S    
C31   C43   A    
C36   C37   A    
C5    C11   A    
C3    C7    A    
Cu2   N2    S    
C32   N2    A    
C38   C39   A    
C26   H4    S    
C40   H12   S    
C18   C19   A    
Cu1   O7    S    
C33   Cl3   S    
C46   H19   S    
C11   C15   A    
C35   C36   A    
Cu1   O3    S    
C8    C9    A    
C12   O4    A    
C14   H17   S    
Cu1   O1    S    
C18   C30   A    
C34   O7    A    
C23   O6    A    
C9    C10   A    
C44   C47   A    
C21   C22   A    
C17   C28   A    
C19   Cl1   S    
Cu2   O4    S    
C14   C45   A    
C8    H22   S    
C1    O1    A    
C31   H13   S    
C24   C25   A    
C39   C40   A    
C2    C48   A    
C25   C26   A    
Cu1   O5    S    
C2    C4    A    
C47   H20   S    
Cu2   O2    S    
C13   H2    S    
C18   H7    S    
C12   O3    A    
C15   H11   S    
C34   C45   S    
C6    C7    A    
C43   H10   S    
C40   C41   A    
C22   C27   A    
Cu1   N1    S    
C15   C45   A    
C48   H21   S    
C20   H8    S    
C42   H14   S    
Cu2   O8    S    
C16   C25   A    
C46   C47   A    
C42   N1    A    
C22   C30   A    
C1    O2    A    
C24   C28   A    
C4    C5    A    
C10   C13   A    
Cu2   O6    S    
C35   Cl2   S    
C38   C42   A    
C41   H16   S    
C3    C46   A    
C6    Cl4   S    
C32   C33   A    
C36   C38   A    
C2    C3    A    
C16   C29   A    
C16   H5    S    
C7    H1    S    
C12   C44   S    
C27   H9    S    
C5    C6    A    
C29   H3    S    
C1    C30   S    
C33   C35   A    
C31   C39   A    
C37   C41   A    
C9    H18   S    
C10   C11   A    
C20   C21   A    
Cu1   Cu2   S    
C21   C24   A    
C34   O8    A    
C23   O5    A    
C13   C14   A    
C44   C48   A    
C32   H15   S    
