data_mof_unit_28526.cif
_audit_creation_date              2012-12-10T18:02:13-0500
_audit_creation_method            fapswitch 2.2
_symmetry_space_group_name_H-M    P1
_symmetry_Int_Tables_number       1
_space_group_crystal_system       triclinic
_cell_length_a                    10.941788
_cell_length_b                    9.649501
_cell_length_c                    23.513279
_cell_angle_alpha                 89.96805
_cell_angle_beta                  89.619097
_cell_angle_gamma                 89.748522
_cell_volume                      2482.51857951

loop_
_atom_site_label
_atom_site_type_symbol
_atom_type_description
_atom_site_fract_x
_atom_site_fract_y
_atom_site_fract_z
_atom_type_partial_charge
C1    C     C_R   0.262489 0.501047 0.498370 0.776544
C2    C     C_R   0.569929 0.406406 0.699485 -0.367866
C3    C     C_R   0.408033 0.402403 0.242751 0.556347
C4    C     C_R   0.571577 0.400317 0.759350 0.560158
C5    C     C_R   0.485985 0.486753 0.209827 0.225643
C6    C     C_R   0.492732 0.488628 0.790310 0.226135
C7    C     C_R   0.062974 0.380853 0.485818 0.083569
C8    C     C_R   0.936129 0.629428 0.489600 0.079733
C9    C     C_R   0.941262 0.378335 0.504306 0.150206
C10   C     C_R   0.061643 0.631318 0.501440 0.099816
C11   C     C_R   0.872319 0.502301 0.497890 -0.168095
C12   C     C_R   0.737742 0.500152 0.499514 0.786439
C13   C     C_R   0.128307 0.504886 0.494918 -0.191032
C14   C     C_R   0.528683 0.073917 0.451916 0.381942
C15   C     C_R   0.483393 0.927829 0.549274 0.379579
C16   C     C_R   0.468823 0.074236 0.547660 0.390312
C17   C     C_R   0.514657 0.927365 0.450541 0.387754
C18   C     C_R   0.502328 0.499609 0.391337 0.814202
C19   C     C_R   0.495603 0.499574 0.608604 0.818612
C20   C     C_R   0.597676 0.512586 0.880414 0.624931
C21   C     C_R   0.377975 0.509814 0.120148 0.626620
C22   C     C_R   0.383980 0.466550 0.880048 0.561750
C23   C     C_R   0.571102 0.572828 0.236602 -0.239806
C24   C     C_R   0.590813 0.457745 0.119672 0.560371
C25   C     C_R   0.376155 0.483963 0.939871 -0.082186
C26   C     C_R   0.598621 0.479715 0.060218 -0.084896
C27   C     C_R   0.487549 0.496169 0.970087 -0.115486
C28   C     C_R   0.487275 0.494596 0.030167 -0.115677
C29   C     C_R   0.599498 0.508792 0.940324 -0.137617
C30   C     C_R   0.375534 0.506994 0.060159 -0.137445
C31   C     C_R   0.262948 0.492291 0.970502 0.017881
C32   C     C_R   0.711825 0.490668 0.029962 0.019111
C33   C     C_R   0.264858 0.517851 0.029715 0.475594
C34   C     C_R   0.411148 0.576065 0.761457 -0.237519
C35   C     C_R   0.710051 0.518327 0.970947 0.478145
C36   C     C_3   0.138512 0.477678 0.942306 -0.285526
C37   C     C_3   0.103215 0.325290 0.936406 -0.715562
C38   C     C_3   0.836081 0.479260 0.058636 -0.288450
C39   C     C_3   0.879001 0.328530 0.061426 -0.708780
C40   C     C_3   0.136047 0.687902 0.059498 -0.311293
C41   C     C_3   0.836599 0.689732 0.941331 -0.311287
C42   C     C_3   0.696608 0.640085 0.320409 -0.380509
C43   C     C_3   0.791935 0.530633 0.336234 -0.866184
C44   C     C_3   0.294057 0.642927 0.674633 -0.377057
C45   C     C_R   0.584102 0.573048 0.295631 0.136221
C46   C     C_3   0.198949 0.534422 0.658693 -0.861596
C47   C     C_3   0.219256 0.292166 0.241115 -0.252854
C48   C     C_3   0.757119 0.281979 0.765179 -0.253070
C49   C     C_3   0.116721 0.257948 0.453010 -0.363584
C50   C     C_3   0.028768 0.199615 0.408779 -0.926631
C51   C     C_3   0.878806 0.756698 0.461589 -0.310756
C52   C     C_3   0.833175 0.865656 0.504100 -0.812468
C53   C     C_3   0.895643 0.249910 0.535554 -0.364017
C54   C     C_3   0.861592 0.282718 0.597260 -0.854220
C55   C     C_3   0.116594 0.763539 0.525975 -0.315230
C56   C     C_R   0.404036 0.575272 0.702141 0.133259
C57   C     C_3   0.169578 0.860362 0.480521 -0.804519
C58   C     C_3   0.685277 0.130563 0.392301 -0.285219
C59   C     C_3   0.576174 0.881277 0.633339 -0.248131
C60   C     C_3   0.303885 0.128664 0.602631 -0.259537
C61   C     C_3   0.426642 0.898274 0.362878 -0.234355
C62   C     C_R   0.500509 0.496618 0.329002 -0.097126
C63   C     C_R   0.490418 0.496574 0.670910 -0.099595
C64   C     C_R   0.415796 0.409499 0.302521 -0.369447
Cu1   Cu    Cu3+1 0.500000 0.640660 0.500000 0.978865
Cu2   Cu    Cu3+1 0.500000 0.359340 0.500000 0.978895
H1    H     H_    0.632507 0.634293 0.210605 0.161860
H2    H     H_    0.969476 0.322958 0.082445 0.254838
H3    H     H_    0.813577 0.263120 0.085469 0.268904
H4    H     H_    0.887938 0.285770 0.017769 0.231612
H5    H     H_    0.906806 0.537276 0.035017 0.224039
H6    H     H_    0.837052 0.529996 0.100855 0.220445
H7    H     H_    0.211531 0.743242 0.081270 0.185746
H8    H     H_    0.050709 0.709159 0.083738 0.184530
H9    H     H_    0.124180 0.730719 0.015927 0.122292
H10   H     H_    0.761772 0.743642 0.918207 0.187293
H11   H     H_    0.923277 0.711528 0.918360 0.183801
H12   H     H_    0.348336 0.640022 0.785872 0.166539
H13   H     H_    0.844530 0.733791 0.984863 0.121050
H14   H     H_    0.757143 0.462638 0.370769 0.241546
H15   H     H_    0.815472 0.466027 0.298597 0.275252
H16   H     H_    0.876421 0.581970 0.351201 0.232195
H17   H     H_    0.738847 0.712519 0.289261 0.198146
H18   H     H_    0.673048 0.702616 0.358060 0.250669
H19   H     H_    0.236471 0.461775 0.626340 0.245211
H20   H     H_    0.170464 0.474763 0.696932 0.274186
H21   H     H_    0.117088 0.586311 0.640702 0.230889
H22   H     H_    0.250465 0.718721 0.704120 0.197996
H23   H     H_    0.357880 0.345018 0.328911 0.164356
H24   H     H_    0.320180 0.701565 0.636317 0.254329
H25   H     H_    0.180500 0.393408 0.255416 0.165712
H26   H     H_    0.224045 0.217500 0.277016 0.139654
H27   H     H_    0.155128 0.248757 0.209493 0.197313
H28   H     H_    0.799623 0.380744 0.750686 0.168071
H29   H     H_    0.753239 0.205713 0.729882 0.139418
H30   H     H_    0.817444 0.237527 0.798310 0.195839
H31   H     H_    0.953562 0.141851 0.429640 0.245125
H32   H     H_    0.990232 0.284392 0.382284 0.263755
H33   H     H_    0.078570 0.126105 0.380517 0.241429
H34   H     H_    0.628570 0.338833 0.674670 0.167032
H35   H     H_    0.198175 0.290297 0.428079 0.224419
H36   H     H_    0.144614 0.174640 0.482653 0.190607
H37   H     H_    0.750885 0.918188 0.487404 0.218448
H38   H     H_    0.810651 0.818126 0.545758 0.249880
H39   H     H_    0.902853 0.946713 0.510367 0.215592
H40   H     H_    0.944550 0.804300 0.431416 0.182661
H41   H     H_    0.803776 0.726200 0.433105 0.211189
H42   H     H_    0.942290 0.323933 0.620062 0.243952
H43   H     H_    0.786556 0.360040 0.599725 0.251487
H44   H     H_    0.830854 0.186584 0.618940 0.228561
H45   H     H_    0.013089 0.317464 0.915229 0.251585
H46   H     H_    0.818639 0.199730 0.513660 0.212225
H47   H     H_    0.968735 0.170066 0.537510 0.188782
H48   H     H_    0.241867 0.925568 0.499448 0.211920
H49   H     H_    0.209019 0.801128 0.444334 0.261900
H50   H     H_    0.098511 0.931175 0.463976 0.229814
H51   H     H_    0.048160 0.820200 0.551957 0.183098
H52   H     H_    0.186343 0.738522 0.558278 0.208142
H53   H     H_    0.706811 0.180370 0.350923 0.189380
H54   H     H_    0.716725 0.020957 0.389634 0.161788
H55   H     H_    0.736464 0.187142 0.425346 0.158622
H56   H     H_    0.171680 0.266232 0.911188 0.270953
H57   H     H_    0.562607 0.830843 0.675298 0.177728
H58   H     H_    0.596546 0.992295 0.641450 0.173928
H59   H     H_    0.655655 0.829918 0.612543 0.144923
H60   H     H_    0.274760 0.185708 0.641395 0.182441
H61   H     H_    0.276052 0.018736 0.608171 0.160779
H62   H     H_    0.255145 0.175596 0.566136 0.149774
H63   H     H_    0.399508 0.805598 0.338174 0.167092
H64   H     H_    0.457095 0.977915 0.331872 0.203348
H65   H     H_    0.343588 0.936354 0.385836 0.118999
H66   H     H_    0.096454 0.276848 0.979147 0.228368
H67   H     H_    0.065334 0.527816 0.967575 0.229924
H68   H     H_    0.133741 0.534094 0.901355 0.222748
N1    N     N_R   0.491920 0.487719 0.851754 -0.441603
N2    N     N_R   0.483924 0.482299 0.148442 -0.441128
N3    N     N_R   0.500000 0.852070 0.500000 -0.272450
N4    N     N_R   0.500000 0.147930 0.500000 -0.285978
O1    O     O_R   0.319640 0.618740 0.500000 -0.560514
O2    O     O_2   0.275729 0.538938 0.150249 -0.500320
O3    O     O_2   0.286250 0.426698 0.849786 -0.561839
O4    O     O_2   0.687459 0.410114 0.149089 -0.559630
O5    O     O_3   0.156114 0.543107 0.058379 -0.554748
O6    O     O_3   0.818929 0.544704 0.942699 -0.553723
O7    O     O_3   0.335062 0.306326 0.214887 -0.559092
O8    O     O_3   0.639722 0.302355 0.789176 -0.559766
O9    O     O_3   0.558447 0.141411 0.402065 -0.530726
O10   O     O_3   0.469030 0.863318 0.601023 -0.559936
O11   O     O_3   0.431560 0.141986 0.596458 -0.524099
O12   O     O_R   0.680360 0.381260 0.500000 -0.583232
O13   O     O_3   0.524854 0.861198 0.398836 -0.563091
O14   O     O_R   0.680360 0.618740 0.500000 -0.565893
O15   O     O_R   0.319640 0.381260 0.500000 -0.596348
O16   O     O_R   0.499960 0.618810 0.417880 -0.532162
O17   O     O_R   0.500040 0.381190 0.582120 -0.515163
O18   O     O_R   0.500040 0.618810 0.582120 -0.536289
O19   O     O_R   0.499960 0.381190 0.417880 -0.519606
O20   O     O_2   0.700636 0.539583 0.850633 -0.502804

loop_
_geom_bond_atom_site_label_1
_geom_bond_atom_site_label_2
_ccdc_geom_bond_type
C25   C31   A    
C5    N2    S    
C47   O7    S    
C52   H37   S    
C34   C56   A    
C23   C45   A    
C48   H29   S    
C27   C29   A    
C19   O17   A    
C39   H2    S    
C12   O14   A    
C36   H67   S    
C57   H49   S    
C3    C64   A    
C33   O5    S    
C26   C32   A    
C50   H33   S    
Cu1   O16   S    
C48   H28   S    
C36   C37   S    
C24   C26   A    
Cu2   O12   S    
Cu1   O18   S    
C51   H40   S    
C49   H35   S    
Cu2   O17   S    
C15   C16   A    
C45   C62   A    
C40   H7    S    
C54   H44   S    
C47   H26   S    
C23   H1    S    
C62   C64   A    
C14   N4    A    
C24   O4    S    
C50   H31   S    
C22   C25   A    
C48   O8    S    
C31   C33   A    
C16   O11   S    
C32   C38   S    
C48   H30   S    
C21   N2    A    
C1    O1    A    
C61   H63   S    
C35   O6    S    
C46   H19   S    
Cu1   N3    S    
C59   O10   S    
C24   N2    A    
C15   O10   S    
C2    H34   S    
C20   O20   S    
C19   O18   A    
C14   C17   A    
C17   O13   S    
C64   H23   S    
C53   H47   S    
C57   H50   S    
C20   C29   A    
C59   H57   S    
C38   H6    S    
C50   H32   S    
C51   C52   S    
C32   C35   A    
C12   O12   A    
C60   H62   S    
C42   H18   S    
C7    C49   S    
C41   O6    S    
C4    C6    A    
C19   C63   S    
C49   H36   S    
C58   O9    S    
C18   C62   S    
C44   C46   S    
C43   H14   S    
C53   C54   S    
C14   O9    S    
C6    C34   A    
C54   H43   S    
C36   H68   S    
C42   C45   S    
C2    C4    A    
C6    N1    S    
C9    C11   A    
C44   C56   S    
C5    C23   A    
C4    O8    S    
C58   H54   S    
C39   H3    S    
C56   C63   A    
C1    O15   A    
C10   C55   S    
C61   O13   S    
C8    C51   S    
C61   H64   S    
C53   H46   S    
C51   H41   S    
C52   H39   S    
C3    O7    S    
C55   C57   S    
C43   H15   S    
C1    C13   S    
C42   C43   S    
C44   H24   S    
C2    C63   A    
C46   H21   S    
C55   H51   S    
C59   H58   S    
C7    C9    A    
C38   H5    S    
C52   H38   S    
C58   H55   S    
C47   H27   S    
C30   C33   A    
C47   H25   S    
C60   H61   S    
C16   N4    A    
C42   H17   S    
C3    C5    A    
C10   C13   A    
C18   O16   A    
C41   H13   S    
Cu2   O15   S    
C11   C12   S    
C37   H66   S    
C57   H48   S    
C25   C27   A    
C21   C30   A    
C29   C35   A    
C26   C28   A    
C40   H9    S    
C54   H42   S    
C22   N1    A    
Cu1   O14   S    
C60   H60   S    
C18   O19   A    
C59   H59   S    
C34   H12   S    
C41   H10   S    
C41   H11   S    
C38   C39   S    
C8    C11   A    
C22   O3    S    
C28   C30   A    
C58   H53   S    
C39   H4    S    
C40   H8    S    
C60   O11   S    
Cu1   Cu2   S    
C20   N1    A    
C37   H45   S    
C61   H65   S    
Cu2   N4    S    
C37   H56   S    
Cu1   O1    S    
C7    C13   A    
C9    C53   S    
C8    C10   A    
C49   C50   S    
C40   O5    S    
C27   C28   A    
C43   H16   S    
C31   C36   S    
C17   N3    A    
C21   O2    S    
C15   N3    A    
C44   H22   S    
Cu2   O19   S    
C46   H20   S    
C55   H52   S    
