data_mof_unit_36253.cif
_audit_creation_date              2012-12-10T16:57:11-0500
_audit_creation_method            fapswitch 2.2
_symmetry_space_group_name_H-M    P1
_symmetry_Int_Tables_number       1
_space_group_crystal_system       triclinic
_cell_length_a                    15.888152
_cell_length_b                    10.910055
_cell_length_c                    9.688342
_cell_angle_alpha                 89.54997
_cell_angle_beta                  89.269418
_cell_angle_gamma                 89.873827
_cell_volume                      1679.19110066

loop_
_atom_site_label
_atom_site_type_symbol
_atom_type_description
_atom_site_fract_x
_atom_site_fract_y
_atom_site_fract_z
_atom_type_partial_charge
C1    C     C_R   0.502881 0.265282 0.500569 0.858503
C2    C     C_3   0.948953 0.437626 0.617498 -0.416911
C3    C     C_3   0.917162 0.513068 0.491762 0.271840
C4    C     C_3   0.953097 0.646063 0.504709 -0.112240
C5    C     C_3   0.051020 0.642615 0.495576 -0.413453
C6    C     C_1   0.824873 0.511708 0.493352 -0.097211
C7    C     C_1   0.175313 0.503449 0.500893 -0.113515
C8    C     C_1   0.250747 0.501083 0.502614 -0.188667
C9    C     C_2   0.533987 0.934912 0.388951 0.030143
C10   C     C_2   0.503526 0.867537 0.496621 -0.372222
C11   C     C_2   0.523138 0.069002 0.387951 -0.202466
C12   C     C_R   0.340269 0.499768 0.500914 0.829999
C13   C     C_2   0.512851 0.133502 0.504038 -0.349669
C14   C     C_2   0.448465 0.434208 0.923714 -0.068761
C15   C     C_2   0.449834 0.431970 0.079432 -0.067534
C16   C     C_R   0.502445 0.734760 0.499060 0.834733
C17   C     C_R   0.659788 0.502078 0.498983 0.816510
C18   C     C_3   0.046166 0.443516 0.624899 -0.424441
C19   C     C_3   0.049615 0.437490 0.365115 -0.115108
C20   C     C_3   0.951906 0.450374 0.359494 -0.416083
C21   C     C_1   0.749386 0.507632 0.496135 -0.189054
C22   C     C_3   0.083320 0.507853 0.494117 0.269363
Cu1   Cu    Cu3+1 0.500020 0.500020 0.638630 0.931965
Cu2   Cu    Cu3+1 0.499980 0.499980 0.361370 0.948840
H1    H     H_    0.928823 0.340326 0.608765 0.174376
H2    H     H_    0.064096 0.495181 0.718449 0.182294
H3    H     H_    0.921058 0.473385 0.715254 0.167019
H4    H     H_    0.526314 0.116302 0.288904 0.169648
H5    H     H_    0.516427 0.091228 0.605366 0.148955
H6    H     H_    0.402257 0.377144 0.873764 0.151053
H7    H     H_    0.544209 0.551145 0.892567 0.195540
H8    H     H_    0.072032 0.349077 0.635937 0.160891
H9    H     H_    0.539129 0.559192 0.104692 0.207441
H10   H     H_    0.062950 0.338863 0.387201 0.131656
H11   H     H_    0.923897 0.357305 0.350548 0.149141
H12   H     H_    0.931402 0.501076 0.266228 0.166478
H13   H     H_    0.076981 0.690647 0.586647 0.153157
H14   H     H_    0.074773 0.694649 0.405043 0.157671
H15   H     H_    0.937416 0.675469 0.612017 0.120329
N1    N     N_2   0.499090 0.498660 0.846910 -0.280709
N2    N     N_2   0.499070 0.498630 0.153040 -0.280278
O1    O     O_R   0.500010 0.321960 0.617040 -0.579198
O2    O     O_R   0.499990 0.321920 0.382900 -0.575532
O3    O     O_R   0.379450 0.500030 0.617120 -0.576514
O4    O     O_R   0.379420 0.499980 0.382980 -0.567882
O5    O     O_R   0.500010 0.678080 0.617100 -0.581882
O6    O     O_R   0.499990 0.678040 0.382960 -0.557199
O7    O     O_R   0.620580 0.500020 0.617020 -0.576829
O8    O     O_R   0.620550 0.499970 0.382880 -0.574052
C23   C     C_R   0.914979 0.742147 0.407932 0.135244
C24   C     C_R   0.937220 0.749765 0.266645 -0.159486
C25   C     C_R   0.905023 0.843441 0.183230 -0.158616
C26   C     C_R   0.850951 0.931399 0.239376 -0.097924
C27   C     C_R   0.828434 0.925354 0.378940 -0.142343
C28   C     C_R   0.859718 0.831164 0.462546 -0.177240
H16   H     H_    0.981510 0.686297 0.220897 0.133776
H17   H     H_    0.922793 0.848570 0.075119 0.125230
H18   H     H_    0.826275 0.004006 0.174662 0.125273
H19   H     H_    0.786215 0.993322 0.422303 0.129529
H20   H     H_    0.841253 0.828599 0.570505 0.111293
C29   C     C_R   0.577319 0.879083 0.267213 0.147449
C30   C     C_R   0.547430 0.900591 0.133183 -0.154514
C31   C     C_R   0.587052 0.845917 0.019446 -0.148552
C32   C     C_R   0.656735 0.769528 0.038420 -0.173478
C33   C     C_R   0.687033 0.747812 0.171121 -0.107626
C34   C     C_R   0.648073 0.803081 0.284954 -0.084953
H21   H     H_    0.492719 0.958011 0.116874 0.118355
H22   H     H_    0.563395 0.862173 0.916603 0.137392
H23   H     H_    0.687017 0.726789 0.950363 0.129102
H24   H     H_    0.740799 0.688245 0.185924 0.144752
H25   H     H_    0.672200 0.785280 0.387226 0.106499
H26   H     H_    0.473003 0.909731 0.584812 0.139190
H27   H     H_    0.406187 0.370745 0.132250 0.156462
C35   C     C_R   0.090499 0.459696 0.222753 0.109635
C36   C     C_R   0.070866 0.376776 0.117028 -0.161631
C37   C     C_R   0.109249 0.385875 0.986817 -0.145650
C38   C     C_R   0.167763 0.478244 0.959299 -0.137214
C39   C     C_R   0.187419 0.562168 0.061676 -0.133643
C40   C     C_R   0.149360 0.553416 0.192324 -0.128819
H28   H     H_    0.026450 0.303237 0.136345 0.118049
H29   H     H_    0.093992 0.320529 0.907533 0.123660
H30   H     H_    0.198012 0.484709 0.858745 0.133374
H31   H     H_    0.232975 0.633685 0.040228 0.132667
H32   H     H_    0.168324 0.619376 0.267578 0.124621

loop_
_geom_bond_atom_site_label_1
_geom_bond_atom_site_label_2
_ccdc_geom_bond_type
C5    H13   S    
C2    C18   S    
C19   C20   S    
C18   H2    S    
C17   O7    A    
C3    C6    S    
C7    C8    T    
C38   C39   A    
Cu1   O1    S    
C30   H21   S    
C9    C29   S    
Cu2   O4    S    
C11   H4    S    
C13   H5    S    
C40   H32   S    
Cu1   N1    S    
H7    N1    S    
C24   H16   S    
C31   H22   S    
C20   H11   S    
C29   C34   A    
C1    O2    A    
C5    C22   S    
Cu1   Cu2   S    
C2    H3    S    
C36   H28   S    
Cu1   O5    S    
C5    H14   S    
Cu2   N2    S    
C14   H6    S    
C39   H31   S    
C16   O6    A    
C27   H19   S    
C35   C36   A    
C24   C25   A    
C19   C22   S    
C37   C38   A    
C15   N2    D    
C16   O5    A    
C39   C40   A    
C4    C5    S    
C26   C27   A    
C6    C21   T    
C17   C21   S    
Cu1   O3    S    
C4    C23   S    
C36   C37   A    
C30   C31   A    
C34   H25   S    
C4    H15   S    
C8    C12   S    
C23   C24   A    
C3    C20   S    
C32   H23   S    
C9    C11   S    
C15   H27   S    
C35   C40   A    
C1    C13   S    
C17   O8    A    
C3    C4    S    
C25   C26   A    
C9    C10   D    
Cu2   O8    S    
C27   C28   A    
Cu1   O7    S    
C18   C22   S    
Cu2   O6    S    
C19   C35   S    
C12   O4    A    
C19   H10   S    
C37   H29   S    
C26   H18   S    
C7    C22   S    
C23   C28   A    
H9    N2    S    
C32   C33   A    
C2    C3    S    
C12   O3    A    
C10   C16   S    
C11   C13   D    
C38   H30   S    
C2    H1    S    
C29   C30   A    
C25   H17   S    
C14   N1    D    
C31   C32   A    
C20   H12   S    
C1    O1    A    
C18   H8    S    
C33   C34   A    
Cu2   O2    S    
C14   C15   S    
C28   H20   S    
C33   H24   S    
C10   H26   S    
