data_mof_unit_55747.cif
_audit_creation_date              2012-12-10T16:59:21-0500
_audit_creation_method            fapswitch 2.2
_symmetry_space_group_name_H-M    P1
_symmetry_Int_Tables_number       1
_space_group_crystal_system       triclinic
_cell_length_a                    7.709388
_cell_length_b                    8.610381
_cell_length_c                    27.782905
_cell_angle_alpha                 91.067495
_cell_angle_beta                  85.677789
_cell_angle_gamma                 93.693139
_cell_volume                      1835.01065105

loop_
_atom_site_label
_atom_site_type_symbol
_atom_type_description
_atom_site_fract_x
_atom_site_fract_y
_atom_site_fract_z
_atom_type_partial_charge
C1    C     C_R   0.545634 0.794583 0.498730 0.877046
C2    C     C_R   0.584496 0.626945 0.125914 -0.261817
C3    C     C_R   0.505276 0.500181 0.647058 -0.311470
C4    C     C_R   0.494723 0.499817 0.352942 -0.311476
C5    C     C_R   0.580239 0.629760 0.024304 -0.129444
C6    C     C_R   0.419751 0.370231 0.975696 -0.129444
C7    C     C_R   0.437883 0.363880 0.026002 0.007520
C8    C     C_R   0.562106 0.636111 0.973997 0.007520
C9    C     C_R   0.507954 0.497652 0.050340 -0.046524
C10   C     C_R   0.492035 0.502339 0.949660 -0.046523
C11   C     C_R   0.679013 0.745344 0.049368 0.628287
C12   C     C_R   0.454366 0.205417 0.501270 0.877037
C13   C     C_R   0.320976 0.254647 0.950631 0.628288
C14   C     C_R   0.672739 0.748485 0.099443 0.601758
C15   C     C_R   0.327251 0.251507 0.900557 0.601757
C16   C     C_R   0.502113 0.499672 0.594113 0.938218
C17   C     C_R   0.497887 0.500328 0.405887 0.938210
C18   C     C_R   0.599891 0.774569 0.947220 0.739397
C19   C     C_R   0.400099 0.225422 0.052779 0.739398
C20   C     C_2   0.570236 0.956903 0.498193 0.291474
C21   C     C_2   0.429764 0.043097 0.501807 0.291479
C22   C     C_R   0.559256 0.630899 0.822361 0.629399
C23   C     C_R   0.488431 0.503018 0.898802 -0.143801
C24   C     C_R   0.440738 0.369090 0.177639 0.629419
C25   C     C_R   0.423903 0.373591 0.823502 0.675768
C26   C     C_R   0.576087 0.626400 0.176497 0.675746
C27   C     C_R   0.640774 0.443845 0.720492 0.690120
C28   C     C_R   0.359205 0.556118 0.279508 0.690121
C29   C     C_R   0.645448 0.442338 0.670207 -0.273360
C30   C     C_R   0.354534 0.557628 0.329792 -0.273370
C31   C     C_R   0.363287 0.558654 0.675362 0.611557
C32   C     C_R   0.636728 0.441373 0.324637 0.611565
C33   C     C_R   0.359584 0.557967 0.725479 -0.196076
C34   C     C_R   0.511559 0.496973 0.101197 -0.143801
C35   C     C_R   0.640427 0.442056 0.274520 -0.196087
C36   C     C_R   0.498667 0.500726 0.747834 0.021582
C37   C     C_R   0.501327 0.499265 0.252165 0.021585
C38   C     C_1   0.212183 0.616101 0.753902 0.409976
C39   C     C_1   0.787843 0.383949 0.246097 0.409995
C40   C     C_1   0.206342 0.622247 0.356179 0.417166
C41   C     C_1   0.793621 0.377690 0.643820 0.417134
C42   C     C_R   0.554686 0.635135 0.872670 -0.083554
C43   C     C_R   0.445306 0.364855 0.127329 -0.083556
C44   C     C_R   0.604655 0.771273 0.897265 -0.183840
C45   C     C_R   0.395337 0.228718 0.102734 -0.183842
C46   C     C_R   0.415494 0.373046 0.874085 -0.261821
F1    F     F_    0.228628 0.618623 0.654500 -0.626694
F2    F     F_    0.387323 0.082625 0.031488 -0.548663
F3    F     F_    0.738706 0.017385 0.494119 -0.608311
F4    F     F_    0.261294 0.982615 0.505881 -0.608309
F5    F     F_    0.771407 0.381437 0.345498 -0.626702
F6    F     F_    0.226024 0.610945 0.256734 -0.622562
F7    F     F_    0.773939 0.388987 0.743266 -0.622549
F8    F     F_    0.763637 0.866322 0.121502 -0.546715
F9    F     F_    0.236353 0.133669 0.878498 -0.546714
F10   F     F_    0.799565 0.844850 0.026180 -0.527647
F11   F     F_    0.200426 0.155140 0.973820 -0.527647
F12   F     F_    0.612668 0.917365 0.968511 -0.548663
H1    H     H_    0.014982 0.383475 0.463477 0.231205
H2    H     H_    0.985018 0.616525 0.536523 0.231208
H3    H     H_    0.640036 0.878398 0.878038 0.233013
H4    H     H_    0.359957 0.121592 0.121962 0.233012
N1    N     N_R   0.496540 0.500696 0.799118 -0.336942
N2    N     N_R   0.503453 0.499294 0.200881 -0.336942
N3    N     N_2   0.950320 0.457960 0.486880 -0.140850
N4    N     N_2   0.049680 0.542040 0.513120 -0.140851
N5    N     N_1   0.094132 0.662508 0.776694 -0.078058
N6    N     N_1   0.905906 0.337564 0.223304 -0.078047
N7    N     N_1   0.087499 0.673957 0.377167 -0.109083
N8    N     N_1   0.912451 0.325956 0.622832 -0.109096
O1    O     O_R   0.389250 0.738570 0.503220 -0.574360
O2    O     O_2   0.374991 0.244293 0.203284 -0.500509
O3    O     O_2   0.639960 0.750771 0.201339 -0.433087
O4    O     O_2   0.360027 0.249221 0.798661 -0.433078
O5    O     O_R   0.610750 0.261430 0.496780 -0.574364
O6    O     O_R   0.678390 0.711630 0.494810 -0.588680
O7    O     O_R   0.321610 0.288370 0.505190 -0.588680
O8    O     O_R   0.355440 0.513440 0.575450 -0.545367
O9    O     O_R   0.644560 0.486560 0.424550 -0.545360
O10   O     O_R   0.644590 0.486500 0.567040 -0.654753
O11   O     O_R   0.355410 0.513500 0.432960 -0.654759
O12   O     O_2   0.625007 0.755696 0.796715 -0.500508
Zn1   Zn    Zn3+2 0.306940 0.517990 0.505620 1.068698
Zn2   Zn    Zn3+2 0.693060 0.482010 0.494380 1.068699

loop_
_geom_bond_atom_site_label_1
_geom_bond_atom_site_label_2
_ccdc_geom_bond_type
C27   C29   A    
C39   N6    T    
O10   Zn2   S    
O6    Zn2   S    
C1    O1    A    
C23   C42   A    
C22   O12   S    
C35   C37   A    
C26   O3    S    
C5    C11   A    
O9    Zn2   S    
C11   C14   A    
O5    Zn2   S    
C13   F11   S    
O7    Zn1   S    
C45   H4    S    
C17   O9    A    
C33   C36   A    
C25   O4    S    
C25   N1    A    
C3    C29   A    
C26   N2    A    
C10   C23   A    
C22   N1    A    
O8    Zn1   S    
C18   F12   S    
C31   C33   A    
C36   N1    S    
C17   O11   A    
C2    C34   A    
N4    Zn1   S    
H2    N4    S    
C24   N2    A    
C23   C46   A    
C31   F1    S    
C42   C44   A    
C21   F4    S    
O11   Zn1   S    
O1    Zn1   S    
C40   N7    T    
C32   C35   A    
C19   F2    S    
N3    Zn2   S    
C12   C21   S    
C8    C18   A    
C16   O10   A    
C15   F9    S    
C35   C39   S    
C32   F5    S    
C5    C9    A    
C20   F3    S    
C18   C44   A    
C12   O7    A    
C27   F7    S    
C30   C40   S    
C2    C26   A    
C38   N5    T    
C3    C31   A    
C43   C45   A    
C4    C32   A    
C4    C17   S    
C14   F8    S    
C7    C19   A    
C13   C15   A    
C9    C34   A    
C27   C36   A    
C37   N2    S    
C24   O2    S    
C7    C9    A    
C1    C20   S    
C29   C41   S    
C1    O6    A    
C34   C43   A    
C6    C10   A    
C5    C8    A    
C19   C45   A    
C6    C7    A    
C44   H3    S    
C33   C38   S    
C28   C30   A    
H1    N3    S    
C6    C13   A    
C28   F6    S    
C22   C42   A    
C28   C37   A    
C16   O8    A    
C2    C14   A    
C3    C16   S    
C20   C21   D    
C8    C10   A    
N3    N4    D    
C12   O5    A    
C24   C43   A    
C15   C46   A    
C25   C46   A    
C4    C30   A    
C11   F10   S    
C41   N8    T    
