data_mof_unit_47229.cif
_audit_creation_date              2012-10-26T21:01:05-0400
_audit_creation_method            fapswitch 2.2
_symmetry_space_group_name_H-M    P1
_symmetry_Int_Tables_number       1
_space_group_crystal_system       triclinic
_cell_length_a                    10.958206
_cell_length_b                    10.8702
_cell_length_c                    9.565158
_cell_angle_alpha                 90.753472
_cell_angle_beta                  90.773538
_cell_angle_gamma                 90.555688
_cell_volume                      1139.1235238

loop_
_atom_site_label
_atom_site_type_symbol
_atom_type_description
_atom_site_fract_x
_atom_site_fract_y
_atom_site_fract_z
_atom_type_partial_charge
C1    C     C_R   0.496355 0.263246 0.499032 0.564563
C2    C     C_R   0.423913 0.424739 0.072064 -0.027288
C3    C     C_R   0.423663 0.424966 0.923299 -0.018818
C4    C     C_R   0.265024 0.501092 0.498543 0.537063
C5    C     C_R   0.585183 0.566690 0.929001 0.115247
C6    C     C_3   0.603480 0.701952 0.924662 -0.250670
C7    C     C_3   0.596573 0.705227 0.082643 0.133880
C8    C     C_R   0.502025 0.737498 0.500278 0.555790
C9    C     C_R   0.734394 0.496261 0.500798 0.534716
C10   C     C_2   0.929122 0.507771 0.386706 -0.155207
C11   C     C_2   0.865966 0.485666 0.502624 -0.171126
C12   C     C_R   0.491164 0.131124 0.496896 -0.021896
C13   C     C_2   0.062604 0.495633 0.378413 0.097884
C14   C     C_2   0.132232 0.507812 0.496051 -0.114659
C15   C     C_R   0.566477 0.067263 0.586006 -0.033278
C16   C     C_3   0.800401 0.160873 0.495135 -0.278309
C17   C     C_3   0.702425 0.865464 0.195736 0.002097
C18   C     C_3   0.714559 0.957857 0.076853 -0.286036
C19   C     C_3   0.737466 0.088263 0.132669 -0.481946
C20   C     C_3   0.047778 0.417652 0.134381 -0.329004
C21   C     C_3   0.235599 0.178696 0.344986 -0.293589
C22   C     C_3   0.238310 0.840478 0.341073 0.020219
C23   C     C_R   0.418109 0.062821 0.399778 0.114131
C24   C     C_3   0.155250 0.844625 0.211785 -0.268315
C25   C     C_3   0.021771 0.829403 0.249608 -0.487547
C26   C     C_3   0.807143 0.782194 0.583611 -0.305157
C27   C     C_R   0.420770 0.932037 0.401896 0.213467
C28   C     C_R   0.498871 0.870733 0.497893 -0.038982
C29   C     C_R   0.575665 0.943404 0.582327 -0.045905
C30   C     C_3   0.680074 0.945544 0.686639 0.047984
C31   C     C_3   0.666136 0.087167 0.691417 0.059610
C32   C     C_R   0.583847 0.568526 0.076393 0.207975
Cu1   Cu    Cu3+1 0.499990 0.499980 0.640670 0.914545
Cu2   Cu    Cu3+1 0.500010 0.500020 0.359330 0.972346
H1    H     H_    0.881020 0.535399 0.292429 0.180454
H2    H     H_    0.631678 0.122046 0.793261 0.097337
H3    H     H_    0.782010 0.242027 0.692123 0.250286
H4    H     H_    0.740500 0.226831 0.440489 0.148670
H5    H     H_    0.789929 0.068945 0.444824 0.177721
H6    H     H_    0.896474 0.191843 0.483118 0.129079
H7    H     H_    0.777902 0.880599 0.272195 0.151148
H8    H     H_    0.618101 0.883438 0.254346 0.157333
H9    H     H_    0.790955 0.931071 0.007904 0.168509
H10   H     H_    0.628253 0.957587 0.014811 0.140863
H11   H     H_    0.663336 0.116075 0.204292 0.166829
H12   H     H_    0.360690 0.365535 0.125921 0.144607
H13   H     H_    0.739786 0.153258 0.044132 0.148536
H14   H     H_    0.826675 0.093765 0.188994 0.132477
H15   H     H_    0.162689 0.558091 0.210062 0.265942
H16   H     H_    0.110693 0.388402 0.050510 0.128010
H17   H     H_    0.979006 0.480067 0.088047 0.143218
H18   H     H_    0.001951 0.334276 0.175698 0.149269
H19   H     H_    0.336718 0.077225 0.202736 0.267157
H20   H     H_    0.167908 0.106394 0.370756 0.117009
H21   H     H_    0.196349 0.235991 0.261137 0.160918
H22   H     H_    0.252472 0.238042 0.438576 0.162679
H23   H     H_    0.360089 0.365996 0.865846 0.116348
H24   H     H_    0.203865 0.905948 0.421908 0.116201
H25   H     H_    0.234492 0.746805 0.385669 0.152340
H26   H     H_    0.167082 0.934286 0.158978 0.162871
H27   H     H_    0.181061 0.770537 0.137024 0.159799
H28   H     H_    0.007229 0.742913 0.307147 0.162908
H29   H     H_    0.965630 0.826106 0.152215 0.174313
H30   H     H_    0.992608 0.908363 0.315648 0.137818
H31   H     H_    0.869294 0.935002 0.694613 0.263518
H32   H     H_    0.902060 0.764969 0.549782 0.126035
H33   H     H_    0.746077 0.764480 0.492355 0.176102
H34   H     H_    0.695895 0.724276 0.885999 0.136619
H35   H     H_    0.785458 0.718570 0.669444 0.155501
H36   H     H_    0.526154 0.750207 0.873795 0.115457
H37   H     H_    0.512366 0.749563 0.122617 0.157741
H38   H     H_    0.908997 0.455930 0.598900 0.095255
H39   H     H_    0.091443 0.526562 0.596540 0.068241
H40   H     H_    0.657877 0.902354 0.786197 0.086829
N1    N     N_R   0.500780 0.500930 0.147930 -0.258523
N2    N     N_R   0.500780 0.500890 0.852020 -0.237974
N3    N     N_2   0.771585 0.157588 0.642798 -0.499397
N4    N     N_2   0.117086 0.480922 0.243965 -0.495963
N5    N     N_2   0.347640 0.124474 0.296258 -0.501623
N6    N     N_2   0.796978 0.908130 0.630738 -0.512287
O1    O     O_R   0.500000 0.319640 0.618810 -0.511657
O2    O     O_3   0.358801 0.865485 0.298889 -0.584332
O3    O     O_R   0.500010 0.319680 0.381230 -0.483106
O4    O     O_R   0.321940 0.499980 0.618760 -0.513643
O5    O     O_R   0.321950 0.500020 0.381180 -0.482286
O6    O     O_R   0.499990 0.680320 0.618770 -0.514791
O7    O     O_R   0.500000 0.680360 0.381190 -0.465863
O8    O     O_R   0.678050 0.499980 0.618820 -0.508121
O9    O     O_R   0.678060 0.500020 0.381240 -0.486559
O10   O     O_3   0.708535 0.742146 0.146570 -0.579604

loop_
_geom_bond_atom_site_label_1
_geom_bond_atom_site_label_2
_ccdc_geom_bond_type
C24   H27   S    
C32   N1    A    
C2    H12   S    
C12   C23   A    
C26   H33   S    
C22   O2    S    
C28   C29   A    
H19   N5    S    
Cu1   O8    S    
C18   C19   S    
C20   H17   S    
C9    O8    A    
C7    H37   S    
C5    C6    S    
C30   H40   S    
C19   H13   S    
C1    O1    A    
H15   N4    S    
C16   N3    S    
C25   H29   S    
C17   H8    S    
C20   H16   S    
C15   C29   A    
C10   H1    S    
C23   C27   A    
Cu2   N1    S    
Cu2   O7    S    
C5    C32   A    
C30   N6    S    
C6    H34   S    
H31   N6    S    
C13   C14   D    
C1    C12   S    
C31   N3    S    
C26   H32   S    
C14   H39   S    
C24   C25   S    
C9    O9    A    
C22   H25   S    
C21   H21   S    
C19   H14   S    
C4    O5    A    
C7    O10   S    
H3    N3    S    
C26   N6    S    
C25   H30   S    
Cu1   O6    S    
C29   C30   S    
C18   H10   S    
Cu1   N2    S    
C4    O4    A    
C12   C15   A    
C24   H26   S    
C21   N5    S    
C17   C18   S    
C3    N2    A    
C9    C11   S    
C16   H6    S    
C3    H23   S    
C8    C28   S    
C22   C24   S    
Cu2   O3    S    
C6    H36   S    
C13   N4    S    
C7    C32   S    
C11   H38   S    
C27   O2    S    
C17   O10   S    
C10   C13   S    
C22   H24   S    
C21   H22   S    
C19   H11   S    
C15   C31   S    
C6    C7    S    
C1    O3    A    
C20   N4    S    
C21   H20   S    
C8    O7    A    
C5    N2    A    
C2    C3    A    
Cu2   O9    S    
C20   H18   S    
C18   H9    S    
C30   C31   S    
Cu1   Cu2   S    
C8    O6    A    
C25   H28   S    
C4    C14   S    
Cu1   O4    S    
C17   H7    S    
C10   C11   D    
C16   H5    S    
C27   C28   A    
C26   H35   S    
C31   H2    S    
C23   N5    S    
Cu1   O1    S    
Cu2   O5    S    
C2    N1    A    
C16   H4    S    
