data_mof_unit_53345.cif
_audit_creation_date              2012-12-10T17:45:31-0500
_audit_creation_method            fapswitch 2.2
_symmetry_space_group_name_H-M    P1
_symmetry_Int_Tables_number       1
_space_group_crystal_system       triclinic
_cell_length_a                    11.531164
_cell_length_b                    10.623395
_cell_length_c                    9.955917
_cell_angle_alpha                 89.891753
_cell_angle_beta                  90.282383
_cell_angle_gamma                 93.275629
_cell_volume                      1217.59199075

loop_
_atom_site_label
_atom_site_type_symbol
_atom_type_description
_atom_site_fract_x
_atom_site_fract_y
_atom_site_fract_z
_atom_type_partial_charge
C1    C     C_R   0.519018 0.263303 0.500825 0.895938
C2    C     C_R   0.554026 0.056666 0.872824 0.196476
C3    C     C_R   0.473149 0.953230 0.869599 0.449130
C4    C     C_R   0.442299 0.895464 0.747107 0.281631
C5    C     C_R   0.493923 0.942670 0.625812 -0.198222
C6    C     C_R   0.545229 0.064852 0.626852 -0.011728
C7    C     C_R   0.544444 0.131782 0.503611 -0.030231
C8    C     C_R   0.538853 0.067378 0.381588 -0.221370
C9    C     C_R   0.519881 0.939070 0.381595 -0.173090
C10   C     C_R   0.494702 0.875896 0.502358 -0.078850
C11   C     C_R   0.323714 0.366988 0.142465 -0.303049
C12   C     C_R   0.282210 0.500772 0.499678 0.883318
C13   C     C_R   0.214314 0.344123 0.082907 0.344546
C14   C     C_R   0.204568 0.364745 0.944591 0.235658
C15   C     C_R   0.308246 0.374573 0.867172 0.468884
C16   C     C_R   0.409083 0.435902 0.928808 -0.053045
C17   C     C_R   0.412483 0.434203 0.072720 -0.044779
C18   C     C_R   0.584371 0.564647 0.073892 0.515999
C19   C     C_R   0.584636 0.564975 0.929890 0.358963
C20   C     C_R   0.494420 0.740440 0.500351 0.857724
C21   C     C_R   0.717918 0.500785 0.500259 0.899781
C22   C     C_1   0.161771 0.502074 0.499083 -0.177205
C23   C     C_1   0.059533 0.502126 0.499343 0.038669
C24   C     C_1   0.940782 0.501534 0.500152 0.035952
C25   C     C_1   0.838497 0.501072 0.500616 -0.123538
C26   C     C_R   0.586620 0.117549 0.750292 0.318948
H1    H     H_    0.545071 0.116197 0.285996 0.212571
H2    H     H_    0.522116 0.890165 0.286320 0.222395
H3    H     H_    0.336526 0.338549 0.243835 0.217248
N1    N     N_R   0.498930 0.498800 0.142780 -0.123027
N2    N     N_R   0.498900 0.498720 0.857170 -0.148009
O1    O     O_R   0.500000 0.316780 0.614690 -0.516590
O2    O     O_R   0.499990 0.316750 0.385360 -0.668997
O3    O     O_R   0.334450 0.500030 0.614670 -0.542892
O4    O     O_R   0.334440 0.500000 0.385330 -0.632569
O5    O     O_R   0.500010 0.683250 0.614640 -0.608554
O6    O     O_R   0.500000 0.683220 0.385310 -0.583924
O7    O     O_R   0.665560 0.500000 0.614670 -0.604119
O8    O     O_R   0.665550 0.499970 0.385330 -0.561175
Zn1   Zn    Zn3+2 0.500010 0.500020 0.653130 1.035516
Zn2   Zn    Zn3+2 0.499990 0.499980 0.346870 0.996867
O9    O     O_3   0.097400 0.367388 0.881826 -0.784790
H4    H     H_    0.034902 0.367993 0.949588 0.394961
O10   O     O_3   0.320322 0.306286 0.748525 -0.579758
C27   C     C_3   0.220903 0.229376 0.709905 0.154683
H5    H     H_    0.151929 0.288998 0.671820 0.213259
H6    H     H_    0.188661 0.167768 0.794010 0.147408
C28   C     C_3   0.249241 0.143009 0.595222 -0.929291
H7    H     H_    0.290075 0.197689 0.511526 0.243166
H8    H     H_    0.307680 0.071938 0.631471 0.254533
H9    H     H_    0.168414 0.092764 0.558066 0.223141
O11   O     O_3   0.671919 0.635276 0.866232 -0.777349
H10   H     H_    0.643905 0.657347 0.776446 0.387815
O12   O     O_3   0.663009 0.222549 0.747359 -0.736786
H11   H     H_    0.652231 0.272576 0.829726 0.347291
O13   O     O_3   0.595817 0.096885 0.996553 -0.759655
H12   H     H_    0.674231 0.138181 0.984889 0.348975
O14   O     O_3   0.429399 0.902072 0.987951 -0.544750
C29   C     C_3   0.327828 0.963249 0.021431 0.143169
H13   H     H_    0.268424 0.971628 0.933379 0.138919
H14   H     H_    0.351229 0.059143 0.061589 0.140639
C30   C     C_3   0.261534 0.886752 0.128559 -0.790803
H15   H     H_    0.313601 0.883993 0.222348 0.243119
H16   H     H_    0.178368 0.930040 0.150586 0.201877
H17   H     H_    0.242101 0.788856 0.092585 0.279643
O15   O     O_3   0.353470 0.802545 0.749016 -0.708780
H18   H     H_    0.316490 0.798394 0.658907 0.324748
O16   O     O_3   0.667785 0.632588 0.148014 -0.720141
H19   H     H_    0.724781 0.676442 0.087640 0.369003
O17   O     O_3   0.114379 0.310935 0.155786 -0.596567
C31   C     C_3   0.133449 0.220551 0.256374 0.085671
H20   H     H_    0.165102 0.269240 0.348989 0.152718
H21   H     H_    0.196407 0.150748 0.224569 0.122673
C32   C     C_3   0.018777 0.149117 0.288118 -0.776804
H22   H     H_    0.983217 0.101649 0.196234 0.259585
H23   H     H_    0.032300 0.076577 0.366128 0.203785
H24   H     H_    0.955238 0.215309 0.325761 0.263441

loop_
_geom_bond_atom_site_label_1
_geom_bond_atom_site_label_2
_ccdc_geom_bond_type
C8    C9    A    
C4    O15   S    
C19   N2    A    
C1    O2    A    
C7    C8    A    
O8    Zn2   S    
C27   H5    S    
N2    Zn1   S    
C16   N2    A    
C32   H23   S    
O3    Zn1   S    
C15   O10   S    
C5    C6    A    
C13   O17   S    
C18   O16   S    
C15   C16   A    
C12   C22   S    
O13   H12   S    
C18   C19   A    
C30   H16   S    
C19   O11   S    
C28   H9    S    
C21   O7    A    
C10   C20   S    
C16   C17   A    
C32   H24   S    
C23   C24   S    
N1    Zn2   S    
O17   C31   S    
C18   N1    A    
C9    C10   A    
C14   O9    S    
C28   H8    S    
O15   H18   S    
C29   H13   S    
C13   C14   A    
C17   N1    A    
C26   O12   S    
C27   H6    S    
C29   H14   S    
C32   H22   S    
O5    Zn1   S    
C24   C25   T    
C31   H21   S    
O16   H19   S    
O14   C29   S    
C1    O1    A    
C30   H15   S    
C21   O8    A    
C14   C15   A    
C2    C26   A    
C12   O4    A    
C28   H7    S    
O9    H4    S    
C12   O3    A    
C3    C4    A    
O11   H10   S    
C27   C28   S    
C21   C25   S    
O12   H11   S    
C11   C17   A    
C29   C30   S    
C30   H17   S    
C1    C7    S    
O10   C27   S    
C4    C5    A    
C31   C32   S    
C6    C7    A    
O2    Zn2   S    
C2    C3    A    
C5    C10   A    
C2    O13   S    
O7    Zn1   S    
C20   O6    A    
C11   C13   A    
C6    C26   A    
O1    Zn1   S    
O6    Zn2   S    
O4    Zn2   S    
C20   O5    A    
C3    O14   S    
C31   H20   S    
C11   H3    S    
C8    H1    S    
C22   C23   T    
C9    H2    S    
