data_mof_unit_6964.cif
_audit_creation_date              2012-12-10T19:45:47-0500
_audit_creation_method            fapswitch 2.2
_symmetry_space_group_name_H-M    P1
_symmetry_Int_Tables_number       1
_space_group_crystal_system       triclinic
_cell_length_a                    10.814218
_cell_length_b                    14.679986
_cell_length_c                    14.57848
_cell_angle_alpha                 65.662609
_cell_angle_beta                  103.702478
_cell_angle_gamma                 102.865012
_cell_volume                      2028.14733735

loop_
_atom_site_label
_atom_site_type_symbol
_atom_type_description
_atom_site_fract_x
_atom_site_fract_y
_atom_site_fract_z
_atom_type_partial_charge
C1    C     C_R   0.474625 0.119292 0.311510 0.795694
C2    C     C_R   0.620412 0.780500 0.977413 -0.197334
C3    C     C_R   0.390522 0.151343 0.123627 0.389684
C4    C     C_R   0.609478 0.848657 0.876374 0.389699
C5    C     C_R   0.498392 0.289310 0.177519 -0.314125
C6    C     C_R   0.501602 0.710693 0.822482 -0.314126
C7    C     C_R   0.477299 0.360126 0.076986 0.085756
C8    C     C_R   0.522685 0.639878 0.923018 0.085762
C9    C     C_R   0.419608 0.323012 0.998929 0.079495
C10   C     C_R   0.580374 0.676991 0.001075 0.079495
C11   C     C_R   0.511415 0.466322 0.052008 0.084053
C12   C     C_R   0.525376 0.880708 0.688490 0.795701
C13   C     C_R   0.488561 0.533682 0.947997 0.084053
C14   C     C_R   0.434272 0.492461 0.872438 -0.239247
C15   C     C_R   0.565696 0.507544 0.127569 -0.239246
C16   C     C_R   0.262769 0.999044 0.502468 0.790699
C17   C     C_R   0.737230 0.000958 0.497528 0.790693
C18   C     C_R   0.400174 0.389414 0.897794 -0.229335
C19   C     C_R   0.599800 0.610590 0.102212 -0.229323
C20   C     C_R   0.714321 0.282979 0.673371 0.333452
C21   C     C_R   0.285669 0.717017 0.326635 0.333457
C22   C     C_R   0.680825 0.202736 0.639582 -0.028200
C23   C     C_R   0.870648 0.001458 0.495464 -0.079067
C24   C     C_R   0.319169 0.797262 0.360422 -0.028211
C25   C     C_R   0.518689 0.284922 0.510001 0.036578
C26   C     C_R   0.481313 0.715079 0.489996 0.036581
C27   C     C_R   0.548393 0.370758 0.537530 -0.126779
C28   C     C_R   0.451604 0.629241 0.462470 -0.126775
C29   C     C_R   0.646868 0.367712 0.622724 -0.002155
C30   C     C_R   0.353122 0.632285 0.377280 -0.002144
C31   C     C_R   0.483234 0.458331 0.483920 0.034426
C32   C     C_R   0.516761 0.541668 0.516081 0.034424
C33   C     C_R   0.613198 0.534306 0.601872 -0.346407
C34   C     C_R   0.129350 0.998548 0.504526 -0.079068
C35   C     C_R   0.386790 0.465690 0.398132 -0.346419
C36   C     C_R   0.674871 0.448816 0.656107 0.469587
C37   C     C_R   0.325113 0.551178 0.343900 0.469585
C38   C     C_R   0.359908 0.069237 0.775898 -0.075395
C39   C     C_R   0.640064 0.930742 0.224115 -0.075406
C40   C     C_R   0.268039 0.026751 0.713859 -0.101976
C41   C     C_R   0.731934 0.973238 0.286146 -0.101942
C42   C     C_R   0.188561 0.087660 0.629928 0.113890
C43   C     C_R   0.811436 0.912340 0.370065 0.113879
C44   C     C_R   0.200620 0.191053 0.610465 -0.139306
C45   C     C_R   0.905962 0.956153 0.438485 0.001779
C46   C     C_R   0.799402 0.808950 0.389524 -0.139321
C47   C     C_R   0.292317 0.233112 0.672952 -0.140246
C48   C     C_R   0.707705 0.766881 0.327045 -0.140234
C49   C     C_R   0.372265 0.172367 0.755307 -0.131466
C50   C     C_R   0.627732 0.827614 0.244701 -0.131488
C51   C     C_R   0.964574 0.045412 0.555370 -0.234479
C52   C     C_R   0.035424 0.954596 0.444618 -0.234482
C53   C     C_3   0.706971 0.429138 0.822873 0.107542
C54   C     C_3   0.806321 0.411317 0.919503 -0.717581
C55   C     C_3   0.292971 0.570826 0.177139 0.107473
C56   C     C_R   0.094036 0.043854 0.561503 0.001772
C57   C     C_3   0.193621 0.588659 0.080514 -0.717668
C58   C     C_R   0.453819 0.186167 0.202487 -0.162863
C59   C     C_R   0.546179 0.813833 0.797514 -0.162873
C60   C     C_R   0.379579 0.219502 0.022589 -0.197340
Cu1   Cu    Cu3+1 0.466270 0.918260 0.475690 0.946457
Cu2   Cu    Cu3+1 0.533730 0.081740 0.524310 0.946460
H1    H     H_    0.443839 0.205251 0.803054 0.121487
H2    H     H_    0.731029 0.137610 0.677001 0.121466
H3    H     H_    0.643862 0.593901 0.630474 0.146252
H4    H     H_    0.356119 0.406093 0.369534 0.146245
H5    H     H_    0.421780 0.022239 0.839756 0.163800
H6    H     H_    0.578171 0.977729 0.160268 0.163826
H7    H     H_    0.259873 0.946844 0.730293 0.107083
H8    H     H_    0.740080 0.053142 0.269715 0.107078
H9    H     H_    0.140439 0.239224 0.546075 0.138175
H10   H     H_    0.859603 0.760787 0.453905 0.138178
H11   H     H_    0.302195 0.312998 0.656999 0.137824
H12   H     H_    0.556159 0.794722 0.196960 0.121491
H13   H     H_    0.697847 0.686996 0.342995 0.137827
H14   H     H_    0.936987 0.078558 0.600395 0.153548
H15   H     H_    0.063013 0.921451 0.399594 0.153543
H16   H     H_    0.357977 0.361487 0.837353 0.142985
H17   H     H_    0.641993 0.638518 0.162653 0.142981
H18   H     H_    0.450092 0.687620 0.761266 0.173150
H19   H     H_    0.549913 0.312383 0.238733 0.173150
H20   H     H_    0.632646 0.360777 0.835866 0.137893
H21   H     H_    0.661798 0.495571 0.809307 0.133153
H22   H     H_    0.881091 0.478627 0.909942 0.240863
H23   H     H_    0.333357 0.191793 0.962570 0.159494
H24   H     H_    0.758825 0.397399 0.984734 0.195391
H25   H     H_    0.852570 0.344546 0.936289 0.264534
H26   H     H_    0.338106 0.504386 0.190701 0.133183
H27   H     H_    0.367308 0.639166 0.164143 0.137927
H28   H     H_    0.147432 0.655457 0.063717 0.264541
H29   H     H_    0.241097 0.602532 0.015285 0.195401
H30   H     H_    0.118813 0.521377 0.090087 0.240898
H31   H     H_    0.847758 0.215017 0.780799 0.315571
H32   H     H_    0.152227 0.784979 0.219211 0.315566
H33   H     H_    0.712706 0.968931 0.801270 0.319224
H34   H     H_    0.666636 0.808209 0.037432 0.159496
H35   H     H_    0.287301 0.031062 0.198725 0.319227
H36   H     H_    0.417590 0.537053 0.792004 0.142849
H37   H     H_    0.582367 0.462952 0.208005 0.142845
H38   H     H_    0.557561 0.721321 0.550412 0.137386
H39   H     H_    0.442448 0.278682 0.449580 0.137385
H40   H     H_    0.268964 0.862387 0.323005 0.121460
N1    N     N_R   0.584450 0.204570 0.560790 -0.191330
N2    N     N_R   0.415550 0.795430 0.439210 -0.191329
O1    O     O_R   0.455540 0.022090 0.338120 -0.568227
O2    O     O_3   0.231889 0.552393 0.259999 -0.523949
O3    O     O_3   0.812249 0.279478 0.754787 -0.683127
O4    O     O_3   0.187735 0.720517 0.245222 -0.683118
O5    O     O_3   0.664248 0.947237 0.858240 -0.740000
O6    O     O_3   0.335767 0.052760 0.141759 -0.740010
O7    O     O_R   0.544460 0.977910 0.661880 -0.568221
O8    O     O_R   0.512510 0.160150 0.379180 -0.587977
O9    O     O_R   0.487490 0.839850 0.620820 -0.587975
O10   O     O_R   0.291160 0.930970 0.479480 -0.590128
O11   O     O_R   0.708840 0.069030 0.520520 -0.590128
O12   O     O_R   0.348130 0.069020 0.520540 -0.570500
O13   O     O_R   0.651870 0.930980 0.479460 -0.570503
O14   O     O_3   0.768080 0.447597 0.740016 -0.523950

loop_
_geom_bond_atom_site_label_1
_geom_bond_atom_site_label_2
_ccdc_geom_bond_type
C4    O5    S    
C34   C56   A    
C8    C13   A    
C23   C45   A    
C57   H30   S    
C27   C29   A    
C39   H6    S    
C14   C18   A    
C2    C4    A    
C40   H7    S    
C54   H22   S    
C33   H3    S    
C39   C41   A    
C38   C49   A    
C53   C54   S    
C15   C19   A    
C29   C36   A    
H32   O4    S    
C17   C23   S    
C5    C58   A    
C49   H1    S    
C35   C37   A    
Cu2   N1    S    
C50   H12   S    
C1    O8    A    
C54   H25   S    
C3    O6    S    
C33   C36   A    
C44   H9    S    
C51   C56   A    
C55   H26   S    
C16   C34   S    
C12   C59   S    
C23   C51   A    
Cu2   O7    S    
Cu1   O1    S    
C46   H10   S    
C44   C47   A    
C17   O13   A    
C20   O3    S    
C26   N2    A    
C3    C60   A    
C40   C42   A    
C13   C14   A    
C41   C43   A    
C48   H13   S    
C42   C44   A    
C16   O12   A    
C14   H36   S    
C20   C29   A    
C46   C48   A    
C57   H28   S    
C55   O2    S    
Cu1   O13   S    
C28   C32   A    
Cu1   N2    S    
C51   H14   S    
C47   H11   S    
C47   C49   A    
H33   O5    S    
C5    C7    A    
C53   O14   S    
C25   N1    A    
C6    C8    A    
C45   C52   A    
C27   C31   A    
C22   N1    A    
C30   C37   A    
C53   H20   S    
C24   N2    A    
C7    C11   A    
Cu2   O12   S    
C5    H19   S    
C6    H18   S    
C31   C32   A    
C10   C19   A    
C18   H16   S    
C42   C56   S    
C48   C50   A    
C43   C45   S    
C20   C22   A    
C11   C15   A    
C55   C57   S    
Cu1   O9    S    
C31   C35   A    
C52   H15   S    
C2    C10   A    
C36   O14   S    
C17   O11   A    
C54   H24   S    
C12   O9    A    
C7    C9    A    
C57   H29   S    
C26   C28   A    
C6    C59   A    
C15   H37   S    
C16   O10   A    
C60   H23   S    
C25   C27   A    
C21   C30   A    
C34   C52   A    
C35   H4    S    
C53   H21   S    
C9    C60   A    
C32   C33   A    
C28   C30   A    
C37   O2    S    
C55   H27   S    
C1    C58   S    
H31   O3    S    
C38   C40   A    
H35   O6    S    
C11   C13   A    
C25   H39   S    
C4    C59   A    
C2    H34   S    
C24   H40   S    
Cu1   Cu2   S    
C43   C46   A    
C21   O4    S    
C22   H2    S    
C3    C58   A    
C9    C18   A    
Cu2   O11   S    
C39   C50   A    
Cu2   O8    S    
C38   H5    S    
C8    C10   A    
C21   C24   A    
C1    O1    A    
Cu1   O10   S    
C12   O7    A    
C19   H17   S    
C26   H38   S    
C41   H8    S    
