data_mof_unit_50637.cif
_audit_creation_date              2012-12-11T14:29:43-0500
_audit_creation_method            fapswitch 2.2
_symmetry_space_group_name_H-M    P1
_symmetry_Int_Tables_number       1
_space_group_crystal_system       triclinic
_cell_length_a                    6.940392
_cell_length_b                    14.737595
_cell_length_c                    16.239148
_cell_angle_alpha                 90.460174
_cell_angle_beta                  90.004739
_cell_angle_gamma                 89.990682
_cell_volume                      1660.9625614

loop_
_atom_site_label
_atom_site_type_symbol
_atom_type_description
_atom_site_fract_x
_atom_site_fract_y
_atom_site_fract_z
_atom_type_partial_charge
O1    O     O_R   0.494400 0.416610 0.413880 -0.542829
O2    O     O_R   0.823920 0.406790 0.585520 -0.540459
O3    O     O_R   0.994250 0.583390 0.586120 -0.536532
C1    C     C_R   0.654695 0.385136 0.613590 0.745257
O4    O     O_R   0.824110 0.405730 0.414490 -0.541269
O5    O     O_R   0.994440 0.582310 0.413870 -0.540287
C2    C     C_R   0.654873 0.383695 0.386327 0.742934
O6    O     O_R   0.494210 0.417690 0.586130 -0.545853
O7    O     O_3   0.660810 0.557940 0.500000 -0.370131
V1    V     V_3+5 0.935650 0.489250 0.500000 1.409193
O8    O     O_R   0.324160 0.593210 0.414480 -0.544628
C3    C     C_R   0.155428 0.615001 0.386358 0.736474
O9    O     O_R   0.323970 0.594270 0.585510 -0.538764
C4    C     C_R   0.155115 0.616175 0.613891 0.695006
V2    V     V_3+5 0.435660 0.510750 0.500000 1.408455
O10   O     O_3   0.160630 0.442060 0.500000 -0.373985
H1    H     H_    0.832821 0.893355 0.519791 0.114543
C5    C     C_R   0.312098 0.578579 0.775557 -0.141852
C6    C     C_R   0.387717 0.557924 0.852612 -0.123924
C7    C     C_R   0.375041 0.620431 0.916842 -0.119725
C8    C     C_R   0.286801 0.704127 0.904512 -0.131191
C9    C     C_R   0.210984 0.727746 0.826607 0.069646
C10   C     C_R   0.223768 0.663533 0.760671 0.070026
C11   C     C_R   0.119702 0.812788 0.814359 -0.185744
C12   C     C_R   0.041064 0.833408 0.735986 0.069493
C13   C     C_R   0.053783 0.769181 0.670053 0.069275
C14   C     C_R   0.144998 0.684114 0.682309 -0.185955
C15   C     C_R   0.953000 0.918425 0.721083 -0.142090
C16   C     C_R   0.877606 0.939140 0.644004 -0.125016
C17   C     C_R   0.890128 0.876602 0.579784 -0.121198
C18   C     C_R   0.978055 0.792832 0.592140 -0.131442
H2    H     H_    0.322542 0.526718 0.728307 0.110662
H3    H     H_    0.432489 0.603714 0.976817 0.113093
H4    H     H_    0.277303 0.749419 0.957068 0.107222
H5    H     H_    0.942653 0.970301 0.768331 0.111068
H6    H     H_    0.810541 0.004451 0.633907 0.119443
H7    H     H_    0.987443 0.747516 0.539594 0.108430
C19   C     C_2   0.985372 0.709781 0.283024 -0.133952
C20   C     C_2   0.150294 0.682754 0.319510 -0.312734
H8    H     H_    0.849402 0.681745 0.303992 0.136670
H9    H     H_    0.287882 0.710229 0.300656 0.128357
C21   C     C_2   0.973081 0.777257 0.215042 -0.134199
C22   C     C_2   0.126271 0.814477 0.177096 -0.311185
H10   H     H_    0.829119 0.796281 0.195430 0.134425
H11   H     H_    0.271355 0.796080 0.194872 0.128823
C23   C     C_2   0.779285 0.207637 0.781078 -0.138595
C24   C     C_2   0.614159 0.179542 0.816565 -0.312409
H12   H     H_    0.915312 0.179430 0.801836 0.135324
H13   H     H_    0.476185 0.206097 0.797195 0.127617
C25   C     C_2   0.791330 0.276044 0.714037 -0.134123
C26   C     C_2   0.638244 0.317749 0.680110 -0.313122
H14   H     H_    0.934878 0.292212 0.691933 0.134917
H15   H     H_    0.493462 0.302934 0.700755 0.127087
C27   C     C_2   0.779177 0.208996 0.213949 -0.130547
C28   C     C_2   0.614066 0.181869 0.177380 -0.311114
H16   H     H_    0.914998 0.180303 0.193098 0.137162
H17   H     H_    0.476565 0.209888 0.196080 0.127258
C29   C     C_2   0.791647 0.277496 0.281876 -0.136268
C30   C     C_2   0.638296 0.315435 0.319554 -0.308758
H18   H     H_    0.935595 0.296637 0.301680 0.135072
H19   H     H_    0.493206 0.296946 0.301654 0.129020
O11   O     O_R   0.770210 0.079270 0.910680 -0.541398
O12   O     O_R   0.440150 0.091160 0.082270 -0.545587
O13   O     O_R   0.269970 0.914530 0.082860 -0.544501
C31   C     C_R   0.608815 0.113257 0.110488 0.743765
O14   O     O_R   0.440480 0.090100 0.911240 -0.545042
O15   O     O_R   0.270310 0.913460 0.910610 -0.536710
C32   C     C_R   0.609150 0.111706 0.883089 0.745342
O16   O     O_R   0.769870 0.080340 0.082930 -0.538608
O17   O     O_3   0.603660 0.938980 0.996790 -0.369971
V3    V     V_3+5 0.328750 0.007610 0.996740 1.402317
O18   O     O_R   0.940600 0.902510 0.911180 -0.539023
C33   C     C_R   0.109485 0.880686 0.882793 0.694383
O19   O     O_R   0.940270 0.903570 0.082200 -0.540203
C34   C     C_R   0.109550 0.881870 0.110349 0.736271
V4    V     V_3+5 0.828770 0.986010 0.996670 1.414935
O20   O     O_3   0.103730 0.054750 0.996710 -0.374061
H20   H     H_    0.455075 0.492679 0.862690 0.116024

loop_
_geom_bond_atom_site_label_1
_geom_bond_atom_site_label_2
_ccdc_geom_bond_type
O14   C32   A    
O12   C31   A    
C6    C7    A    
O18   V4    S    
C24   H13   S    
C12   C15   A    
C16   H6    S    
C13   C14   A    
O19   V4    S    
C15   C16   A    
C19   C21   S    
O5    C3    A    
C17   C18   A    
C11   C33   S    
C29   H18   S    
V2    O10   S    
O16   V4    S    
C5    C6    A    
O13   V3    S    
C23   C24   D    
O8    V2    S    
C15   H5    S    
C25   H14   S    
O17   V3    S    
O15   C33   A    
C10   C14   A    
C4    C14   S    
O7    V1    S    
C1    O6    A    
C13   C18   A    
O9    C4    A    
H1    C17   S    
O11   V4    S    
C21   H10   S    
C2    C30   S    
C28   C31   S    
C23   H12   S    
C22   C34   S    
C27   H16   S    
C30   H19   S    
O19   C34   A    
C1    C26   S    
C5    C10   A    
V4    O20   S    
C20   H9    S    
O4    C2    A    
C8    H4    S    
C12   C13   A    
C18   H7    S    
C26   H15   S    
C6    H20   S    
O2    C1    A    
C16   C17   A    
O14   V3    S    
C25   C26   D    
C11   C12   A    
C22   H11   S    
O3    C4    A    
O1    V2    S    
C7    H3    S    
O12   V3    S    
O6    V2    S    
C28   H17   S    
O17   V4    S    
C9    C11   A    
C5    H2    S    
C21   C22   D    
O2    V1    S    
C24   C32   S    
V3    O20   S    
C27   C29   S    
C27   C28   D    
O1    C2    A    
O18   C33   A    
O5    V1    S    
O8    C3    A    
C23   C25   S    
O11   C32   A    
C3    C20   S    
O9    V2    S    
C29   C30   D    
O4    V1    S    
O3    V1    S    
V1    O10   S    
C19   H8    S    
C19   C20   D    
C31   O16   A    
O13   C34   A    
O15   V3    S    
O7    V2    S    
C7    C8    A    
C9    C10   A    
C8    C9    A    
