data_mof_unit_61626.cif
_audit_creation_date              2012-12-11T17:26:11-0500
_audit_creation_method            fapswitch 2.2
_symmetry_space_group_name_H-M    P1
_symmetry_Int_Tables_number       1
_space_group_crystal_system       triclinic
_cell_length_a                    6.948109
_cell_length_b                    18.96231
_cell_length_c                    20.740233
_cell_angle_alpha                 107.602515
_cell_angle_beta                  90.250066
_cell_angle_gamma                 90.543885
_cell_volume                      2604.43276542

loop_
_atom_site_label
_atom_site_type_symbol
_atom_type_description
_atom_site_fract_x
_atom_site_fract_y
_atom_site_fract_z
_atom_type_partial_charge
O1    O     O_R   0.505770 0.444240 0.557370 -0.531074
O2    O     O_R   0.169820 0.415250 0.421330 -0.535658
O3    O     O_R   0.005590 0.555760 0.442630 -0.531733
C1    C     C_R   0.338711 0.393628 0.395294 0.723767
O4    O     O_R   0.175660 0.435500 0.555540 -0.531930
O5    O     O_R   0.011460 0.576150 0.577800 -0.534637
C2    C     C_R   0.344456 0.421181 0.575620 0.711091
O6    O     O_R   0.499890 0.423850 0.422200 -0.534702
O7    O     O_3   0.341200 0.546120 0.507150 -0.366823
V1    V     V_3+5 0.063980 0.491440 0.498670 1.485304
O8    O     O_R   0.682100 0.584750 0.578670 -0.537244
C3    C     C_R   0.852040 0.606239 0.604599 0.724721
O9    O     O_R   0.676270 0.564500 0.444460 -0.531266
C4    C     C_R   0.845100 0.578842 0.424367 0.709819
V2    V     V_3+5 0.564720 0.508560 0.501330 1.485925
O10   O     O_3   0.837360 0.453880 0.492850 -0.366322
C5    C     C_R   0.055680 0.748529 0.212093 0.518721
C6    C     C_R   0.902400 0.793540 0.205274 -0.280695
C7    C     C_R   0.735222 0.795228 0.243678 0.512113
C8    C     C_R   0.720944 0.752109 0.288857 0.262542
C9    C     C_R   0.875929 0.707116 0.295192 -0.230583
C10   C     C_R   0.042438 0.705641 0.256558 0.493793
C11   C     C_1   0.916314 0.838123 0.159054 0.251034
C12   C     C_1   0.864487 0.662130 0.341192 0.240765
C13   C     C_1   0.855288 0.624421 0.379297 -0.154094
C14   C     C_1   0.926615 0.875651 0.120816 -0.141637
C15   C     C_1   0.916333 0.831615 0.833088 -0.179978
C16   C     C_1   0.900969 0.780177 0.780818 0.021026
C17   C     C_1   0.881452 0.719789 0.719200 0.021627
C18   C     C_1   0.866092 0.668350 0.666930 -0.179026
C19   C     C_1   0.352940 0.331294 0.332776 -0.178018
C20   C     C_1   0.375705 0.280066 0.280660 0.024511
C21   C     C_1   0.406761 0.220016 0.219283 0.024462
C22   C     C_1   0.429522 0.168781 0.167173 -0.178900
C23   C     C_R   0.553998 0.251512 0.788087 0.273359
C24   C     C_R   0.398518 0.205683 0.794097 -0.121118
C25   C     C_R   0.228310 0.203225 0.754818 0.206582
C26   C     C_R   0.216942 0.247131 0.710065 0.314642
C27   C     C_R   0.373268 0.292569 0.704454 -0.143050
C28   C     C_R   0.540251 0.294671 0.743245 0.463703
C29   C     C_1   0.416311 0.161435 0.840725 0.109328
C30   C     C_1   0.362456 0.337753 0.658611 0.213455
C31   C     C_1   0.353713 0.375548 0.620607 -0.148452
C32   C     C_1   0.428257 0.124182 0.879123 -0.176455
O11   O     O_R   0.282550 0.076220 0.077760 -0.534379
O12   O     O_R   0.606940 0.064510 0.944450 -0.532636
O13   O     O_R   0.770980 0.923830 0.922210 -0.534652
C33   C     C_R   0.438138 0.078853 0.924356 0.715106
O14   O     O_R   0.612630 0.084760 0.078660 -0.535034
O15   O     O_R   0.776710 0.944230 0.057380 -0.529887
C34   C     C_R   0.443738 0.106426 0.104670 0.726779
O16   O     O_R   0.276820 0.055820 0.942590 -0.538985
O17   O     O_3   0.441200 0.953910 0.992830 -0.363057
V3    V     V_3+5 0.718480 0.008550 0.001330 1.477116
O18   O     O_R   0.106020 0.935440 0.055580 -0.529281
C35   C     C_R   0.937133 0.921126 0.075660 0.713394
O19   O     O_R   0.100330 0.915180 0.921370 -0.537163
C36   C     C_R   0.930393 0.893722 0.895422 0.719776
V4    V     V_3+5 0.217720 0.991360 0.998720 1.478670
O20   O     O_3   0.945130 0.046090 0.007170 -0.368701
F1    F     F_    0.192539 0.662328 0.261824 -0.607209
F2    F     F_    0.218479 0.746016 0.175528 -0.584731
F3    F     F_    0.586927 0.838849 0.237127 -0.632569
O21   O     O_3   0.558422 0.752875 0.327234 -0.587192
H1    H     H_    0.462477 0.786610 0.317401 0.371628
F4    F     F_    0.689621 0.339107 0.737403 -0.660353
O22   O     O_3   0.717493 0.253044 0.826780 -0.607349
H2    H     H_    0.814304 0.287139 0.817174 0.361504
O23   O     O_3   0.071302 0.158973 0.758249 -0.628586
H3    H     H_    0.094473 0.132136 0.791581 0.310544
O24   O     O_3   0.054946 0.246992 0.670945 -0.601197
H4    H     H_    0.954818 0.213751 0.679855 0.359549

loop_
_geom_bond_atom_site_label_1
_geom_bond_atom_site_label_2
_ccdc_geom_bond_type
O18   C35   A    
O18   V4    S    
C7    C8    A    
C1    O6    A    
O17   V4    S    
V3    O20   S    
O17   V3    S    
C22   C34   S    
C17   C18   T    
C16   C17   S    
C25   O23   S    
O5    C3    A    
C26   C27   A    
O19   V4    S    
O11   C34   A    
V2    O10   S    
C6    C7    A    
C11   C14   T    
O8    V2    S    
O11   V4    S    
C23   C24   A    
C7    F3    S    
O14   C34   A    
O1    V2    S    
C2    C31   S    
O7    V1    S    
V4    O20   S    
C28   F4    S    
C9    C10   A    
C24   C29   S    
C21   C22   T    
C27   C30   S    
O12   C33   A    
C6    C11   S    
C12   C13   T    
C27   C28   A    
O4    C2    A    
O15   C35   A    
O22   H2    S    
C8    O21   S    
O2    C1    A    
C25   C26   A    
O16   V4    S    
C5    F2    S    
C19   C20   T    
C23   O22   S    
O12   V3    S    
C5    C6    A    
O15   V3    S    
O3    C4    A    
O13   V3    S    
O6    V2    S    
O9    V2    S    
C29   C32   T    
C30   C31   T    
O2    V1    S    
C26   O24   S    
C24   C25   A    
C3    C18   S    
O1    C2    A    
C15   C36   S    
C14   C35   S    
O5    V1    S    
O8    C3    A    
C5    C10   A    
C20   C21   S    
C23   C28   A    
O7    V2    S    
O4    V1    S    
O3    V1    S    
V1    O10   S    
O21   H1    S    
C10   F1    S    
O19   C36   A    
C4    C13   S    
O23   H3    S    
C1    C19   S    
C32   C33   S    
C33   O16   A    
O24   H4    S    
C8    C9    A    
C9    C12   S    
C15   C16   T    
O9    C4    A    
O14   V3    S    
O13   C36   A    
