data_mof_unit_29465.cif
_audit_creation_date              2012-12-10T18:58:16-0500
_audit_creation_method            fapswitch 2.2
_symmetry_space_group_name_H-M    P1
_symmetry_Int_Tables_number       1
_space_group_crystal_system       triclinic
_cell_length_a                    11.067724
_cell_length_b                    10.812845
_cell_length_c                    9.53869
_cell_angle_alpha                 90.116262
_cell_angle_beta                  103.013184
_cell_angle_gamma                 90.078136
_cell_volume                      1112.20855105

loop_
_atom_site_label
_atom_site_type_symbol
_atom_type_description
_atom_site_fract_x
_atom_site_fract_y
_atom_site_fract_z
_atom_type_partial_charge
C1    C     C_R   0.502988 0.262470 0.500545 0.877244
C2    C     C_R   0.512063 0.129240 0.503301 -0.123934
C3    C     C_R   0.566012 0.063601 0.404307 0.443812
C4    C     C_R   0.567137 0.933690 0.408392 -0.284573
C5    C     C_R   0.510626 0.870356 0.504908 -0.083717
C6    C     C_R   0.471983 0.937255 0.611749 -0.025055
C7    C     C_3   0.358768 0.930534 0.672809 0.115172
C8    C     C_3   0.359358 0.072556 0.671662 0.100360
C9    C     C_R   0.593078 0.557183 0.097976 0.252619
C10   C     C_R   0.414851 0.433750 0.052068 -0.061121
C11   C     C_R   0.414961 0.433572 0.903143 -0.065687
C12   C     C_R   0.262699 0.499984 0.441376 0.914283
C13   C     C_R   0.593408 0.556710 0.950675 0.288010
C14   C     C_3   0.628557 0.689933 0.953496 -0.476680
C15   C     C_3   0.626712 0.690910 0.112021 -0.513375
C16   C     C_R   0.501719 0.737460 0.500763 0.863439
C17   C     C_R   0.737395 0.500118 0.558925 0.807962
C18   C     C_2   0.127564 0.500069 0.408311 -0.292897
C19   C     C_2   0.068685 0.500094 0.516146 -0.040878
C20   C     C_2   0.872700 0.500344 0.594800 0.116678
C21   C     C_2   0.933832 0.500221 0.488118 -0.178072
C22   C     C_R   0.472677 0.063799 0.610862 -0.067623
Cu1   Cu    Cu3+1 0.499990 0.499980 0.640670 0.990669
Cu2   Cu    Cu3+1 0.500010 0.500020 0.359330 0.981316
H1    H     H_    0.883199 0.500109 0.376248 0.161209
H2    H     H_    0.381154 0.112879 0.781755 0.089890
H3    H     H_    0.344811 0.381724 0.089549 0.157053
H4    H     H_    0.344932 0.381415 0.828931 0.168148
H5    H     H_    0.722795 0.703532 0.933440 0.225273
H6    H     H_    0.555164 0.748837 0.887664 0.209637
H7    H     H_    0.719576 0.706576 0.183764 0.209084
H8    H     H_    0.550839 0.749050 0.135207 0.213107
H9    H     H_    0.121380 0.499949 0.626715 0.222081
H10   H     H_    0.076425 0.500161 0.296743 0.165937
H11   H     H_    0.611026 0.882841 0.335781 0.156888
H12   H     H_    0.380443 0.892182 0.783638 0.093247
N1    N     N_R   0.500780 0.500930 0.148120 -0.192295
N2    N     N_R   0.500790 0.500890 0.852210 -0.195508
O1    O     O_R   0.500000 0.319640 0.618810 -0.585718
O2    O     O_R   0.500010 0.319680 0.381230 -0.560708
O3    O     O_R   0.320680 0.500000 0.575130 -0.573168
O4    O     O_R   0.320690 0.500040 0.337550 -0.576735
O5    O     O_R   0.499990 0.680320 0.618770 -0.581889
O6    O     O_R   0.500000 0.680360 0.381190 -0.587999
O7    O     O_R   0.679310 0.499960 0.662450 -0.550606
O8    O     O_R   0.679320 0.500000 0.424870 -0.600871
Br1   Br    Br    0.955622 0.500940 0.796047 -0.508771
O9    O     O_3   0.626626 0.126039 0.313485 -0.556528
C23   C     C_3   0.560534 0.111043 0.169349 0.078414
H13   H     H_    0.465549 0.150524 0.153949 0.149247
H14   H     H_    0.553572 0.012059 0.136265 0.129117
C24   C     C_3   0.628858 0.179266 0.071102 -0.716879
H15   H     H_    0.721638 0.137291 0.078801 0.260187
H16   H     H_    0.575400 0.173239 0.957914 0.185547
H17   H     H_    0.640931 0.278055 0.102984 0.249941
Br2   Br    Br    0.218907 0.847642 0.545681 -0.425714
Br3   Br    Br    0.220061 0.154179 0.543067 -0.448564

loop_
_geom_bond_atom_site_label_1
_geom_bond_atom_site_label_2
_ccdc_geom_bond_type
C10   H3    S    
C2    C22   A    
C11   N2    A    
C8    C22   S    
Cu1   Cu2   S    
C15   H7    S    
C12   O3    A    
Cu1   O7    S    
C8    Br3   S    
Cu1   N2    S    
Cu2   O4    S    
C7    H12   S    
C16   O6    A    
Cu1   O3    S    
C24   H17   S    
C23   C24   S    
Cu2   O8    S    
C20   C21   D    
C9    N1    A    
C2    C3    A    
C9    C15   S    
C4    H11   S    
Cu1   O5    S    
C15   H8    S    
C13   C14   S    
C17   O8    A    
C18   H10   S    
C16   O5    A    
C13   N2    A    
C6    C7    S    
C11   H4    S    
C14   H6    S    
C10   N1    A    
Cu1   O1    S    
C7    Br2   S    
O9    C23   S    
C19   C21   S    
C24   H16   S    
Cu2   N1    S    
C5    C6    A    
Cu2   O6    S    
C20   Br1   S    
C10   C11   A    
C1    O1    A    
C14   H5    S    
C12   O4    A    
C3    C4    A    
C6    C22   A    
C3    O9    S    
C7    C8    S    
C17   C20   S    
C8    H2    S    
C24   H15   S    
C1    C2    S    
C19   H9    S    
C12   C18   S    
C23   H13   S    
C21   H1    S    
C14   C15   S    
C18   C19   D    
C5    C16   S    
C9    C13   A    
C1    O2    A    
Cu2   O2    S    
C17   O7    A    
C4    C5    A    
C23   H14   S    
