data_mof_unit_11756.cif
_audit_creation_date              2012-12-11T16:18:03-0500
_audit_creation_method            fapswitch 2.2
_symmetry_space_group_name_H-M    P1
_symmetry_Int_Tables_number       1
_space_group_crystal_system       triclinic
_cell_length_a                    14.044086
_cell_length_b                    14.065179
_cell_length_c                    30.100644
_cell_angle_alpha                 97.271785
_cell_angle_beta                  96.934165
_cell_angle_gamma                 61.237325
_cell_volume                      5158.08754271

loop_
_atom_site_label
_atom_site_type_symbol
_atom_type_description
_atom_site_fract_x
_atom_site_fract_y
_atom_site_fract_z
_atom_type_partial_charge
C1    C     C_R   0.385951 0.710692 0.442192 0.559298
C2    C     C_R   0.416341 0.277506 0.221049 -0.090526
C3    C     C_R   0.426535 0.281461 0.267841 -0.094794
C4    C     C_R   0.335135 0.345944 0.292515 0.028801
C5    C     C_R   0.314786 0.338681 0.198773 0.028225
C6    C     C_1   0.302412 0.324776 0.150800 -0.038321
C7    C     C_1   0.348709 0.354423 0.340580 -0.032693
C8    C     C_1   0.291077 0.305094 0.111078 0.010767
C9    C     C_R   0.766562 0.364946 0.400091 0.003524
C10   C     C_R   0.766590 0.272135 0.375954 -0.122943
C11   C     C_R   0.791000 0.246334 0.331133 0.095266
C12   C     C_R   0.399119 0.381089 0.426383 0.551971
C13   C     C_R   0.817234 0.312869 0.310044 0.006979
C14   C     C_R   0.828612 0.398290 0.334736 -0.099293
C15   C     C_R   0.804513 0.424625 0.379687 0.150136
C16   C     C_R   0.872603 0.376053 0.165520 0.064260
C17   C     C_R   0.898779 0.371104 0.122086 -0.134853
C18   C     C_R   0.847986 0.228411 0.098921 0.161400
C19   C     C_R   0.821560 0.233080 0.143183 0.114103
C20   C     C_R   0.838900 0.303722 0.176628 0.014970
C21   C     C_1   0.829021 0.299502 0.222968 0.069723
C22   C     C_1   0.824184 0.301529 0.262575 0.055358
C23   C     C_R   0.710430 0.405176 0.442337 0.559721
C24   C     C_R   0.892865 0.293857 0.089036 -0.016241
C25   C     C_R   0.368220 0.765616 0.401020 0.024300
C26   C     C_R   0.461002 0.748608 0.380616 -0.141997
C27   C     C_R   0.452559 0.775051 0.336917 -0.112420
C28   C     C_R   0.351352 0.820011 0.313147 0.001350
C29   C     C_R   0.257152 0.846192 0.333989 -0.071783
C30   C     C_R   0.264509 0.820088 0.378004 0.163556
C31   C     C_R   0.251686 0.836536 0.152399 -0.100416
C32   C     C_R   0.233195 0.862697 0.107996 -0.107662
C33   C     C_R   0.386168 0.900608 0.117653 -0.118259
C34   C     C_R   0.389486 0.711694 0.568242 0.555329
C35   C     C_R   0.404373 0.874471 0.162087 -0.100398
C36   C     C_R   0.334702 0.846272 0.179763 0.035944
C37   C     C_1   0.341894 0.836934 0.226786 -0.002852
C38   C     C_1   0.345833 0.830680 0.266325 -0.003673
C39   C     C_R   0.297368 0.899561 0.090834 0.016405
C40   C     C_R   0.360364 0.363862 0.591971 0.005125
C41   C     C_R   0.418823 0.263403 0.612298 0.153930
C42   C     C_R   0.403637 0.258671 0.657229 0.124117
C43   C     C_R   0.327408 0.352088 0.680733 -0.023410
C44   C     C_R   0.259140 0.445151 0.658910 -0.121122
C45   C     C_R   0.400766 0.382891 0.552173 0.573814
C46   C     C_R   0.273009 0.451725 0.614713 0.119932
C47   C     C_R   0.245466 0.426197 0.841666 -0.070890
C48   C     C_R   0.236136 0.407273 0.885119 0.098523
C49   C     C_R   0.379361 0.220689 0.872592 -0.140055
C50   C     C_R   0.387930 0.240540 0.829740 -0.116831
C51   C     C_R   0.318294 0.341625 0.813694 0.016756
C52   C     C_1   0.317219 0.353204 0.767286 0.012347
C53   C     C_1   0.319878 0.354729 0.727792 0.021834
C54   C     C_R   0.299920 0.301557 0.900054 0.029344
C55   C     C_1   0.761589 0.376836 0.612546 0.018771
C56   C     C_R   0.712614 0.408032 0.568595 0.552534
C57   C     C_R   0.868183 0.389264 0.725182 -0.075741
C58   C     C_R   0.886738 0.377271 0.771329 0.109625
C59   C     C_R   0.806607 0.256137 0.762472 -0.121457
C60   C     C_R   0.788012 0.268693 0.716322 -0.101103
C61   C     C_R   0.818979 0.335166 0.697619 0.012026
C62   C     C_R   0.855482 0.310674 0.790196 0.041055
C63   C     C_1   0.878458 0.294636 0.837435 -0.010218
C64   C     C_1   0.791861 0.355338 0.650912 -0.031980
C65   C     C_1   0.906063 0.282480 0.876708 0.026436
C66   C     C_1   0.375122 0.758620 0.613577 0.030026
C67   C     C_1   0.367226 0.364119 0.380463 0.020685
C68   C     C_R   0.310045 0.756334 0.721963 -0.095992
C69   C     C_R   0.300500 0.774636 0.768300 -0.097230
C70   C     C_R   0.379304 0.896156 0.772197 -0.092127
C71   C     C_R   0.388937 0.877759 0.725780 -0.087863
C72   C     C_R   0.353551 0.808372 0.700553 0.035570
C73   C     C_R   0.334973 0.844672 0.793524 0.037808
C74   C     C_1   0.316078 0.871426 0.840437 -0.043946
C75   C     C_1   0.364911 0.786124 0.653003 -0.023387
C76   C     C_1   0.294748 0.901699 0.878939 0.001668
C77   C     C_R   0.949340 0.273738 0.047854 0.565029
C78   C     C_R   0.233602 0.407861 0.270304 -0.083866
C79   C     C_R   0.275197 0.270354 0.065430 0.553851
C80   C     C_R   0.260486 0.954336 0.048883 0.540627
C81   C     C_R   0.952381 0.269016 0.922057 0.554026
C82   C     C_R   0.277375 0.266735 0.939980 0.558595
C83   C     C_R   0.261713 0.950753 0.922878 0.547531
C84   C     C_R   0.223390 0.403866 0.223411 -0.090705
Cr1   Cr    Cr6+3 0.581000 0.584320 0.508140 1.098479
Cr2   Cr    Cr6+3 0.339110 0.576430 0.496080 1.141342
Cr3   Cr    Cr6+3 0.579910 0.339270 0.495810 1.091536
Cr4   Cr    Cr6+3 0.082090 0.079210 0.982490 1.097389
Cr5   Cr    Cr6+3 0.082460 0.324610 0.994920 1.087457
Cr6   Cr    Cr6+3 0.323630 0.087860 0.996130 1.055055
H1    H     H_    0.162763 0.459097 0.289151 0.153641
H2    H     H_    0.164516 0.860652 0.088091 0.162065
H3    H     H_    0.197859 0.814141 0.165990 0.136568
H4    H     H_    0.178360 0.883407 0.315531 0.161255
H5    H     H_    0.541731 0.707853 0.397195 0.180027
H6    H     H_    0.469148 0.881612 0.183219 0.136816
H7    H     H_    0.437059 0.928523 0.105353 0.147946
H8    H     H_    0.144292 0.450307 0.206360 0.153490
H9    H     H_    0.525713 0.755385 0.320949 0.152125
H10   H     H_    0.193443 0.505527 0.829248 0.150687
H11   H     H_    0.196563 0.514758 0.676884 0.159085
H12   H     H_    0.445265 0.175040 0.808272 0.146114
H13   H     H_    0.430552 0.139066 0.882892 0.150962
H14   H     H_    0.890906 0.441873 0.710954 0.147628
H15   H     H_    0.487161 0.225647 0.202259 0.156134
H16   H     H_    0.782801 0.204131 0.776504 0.134869
H17   H     H_    0.748470 0.227602 0.695338 0.152040
H18   H     H_    0.283149 0.701863 0.702763 0.133212
H19   H     H_    0.264925 0.735483 0.784333 0.123283
H20   H     H_    0.404969 0.951591 0.791356 0.123628
H21   H     H_    0.423399 0.917732 0.709607 0.156053
H22   H     H_    0.505638 0.234465 0.284804 0.152908
H23   H     H_    0.930999 0.423478 0.115178 0.174098
H24   H     H_    0.852057 0.447659 0.318472 0.177750
H25   H     H_    0.740784 0.222883 0.390870 0.172998
O1    O     O_R   0.688580 0.499770 0.460490 -0.453920
O2    O     O_R   0.348600 0.476260 0.536540 -0.457704
O3    O     O_R   0.494840 0.313840 0.539010 -0.461349
O4    O     O_R   0.672120 0.351750 0.545910 -0.485980
O5    O     O_3   0.500010 0.500010 0.500010 -0.291485
O6    O     O_R   0.167510 0.972920 0.030390 -0.494449
O7    O     O_R   0.990840 0.178580 0.027590 -0.451667
O8    O     O_R   0.972840 0.345510 0.038590 -0.517892
O9    O     O_R   0.181550 0.320660 0.045200 -0.492595
O10   O     O_R   0.346150 0.177650 0.050510 -0.494845
O11   O     O_R   0.314200 0.996600 0.036060 -0.504042
O12   O     O_R   0.480400 0.672610 0.462660 -0.507364
O13   O     O_R   0.168690 0.969990 0.933130 -0.492972
O14   O     O_R   0.991920 0.175870 0.937430 -0.491077
O15   O     O_R   0.974010 0.342590 0.941330 -0.475059
O16   O     O_R   0.182630 0.317940 0.955040 -0.463211
O17   O     O_R   0.347320 0.174720 0.953250 -0.515029
O18   O     O_R   0.315290 0.993890 0.945900 -0.496314
O19   O     O_3   0.162730 0.163890 0.991180 -0.273381
O20   O     O_R   0.315310 0.685650 0.451800 -0.452213
O21   O     O_R   0.346220 0.474990 0.446280 -0.481841
O22   O     O_R   0.492270 0.312460 0.441630 -0.497666
O23   O     O_R   0.669740 0.350480 0.455640 -0.512668
O24   O     O_R   0.691150 0.501150 0.557860 -0.487931
O25   O     O_R   0.482790 0.673890 0.552920 -0.493291
O26   O     O_R   0.317880 0.687030 0.549170 -0.459237
I1    I     I_    0.758655 0.132112 0.160261 -0.258063
Br1   Br    Br    0.820863 0.134501 0.052577 -0.417748
I2    I     I_    0.779069 0.111144 0.296469 -0.306135
Br2   Br    Br    0.130556 0.859979 0.403930 -0.404254
I3    I     I_    0.125212 0.542385 0.925176 -0.274561
Br3   Br    Br    0.168164 0.585556 0.589470 -0.419967
Br4   Br    Br    0.516301 0.130805 0.579356 -0.378304
I4    I     I_    0.497839 0.112521 0.690811 -0.335742
I5    I     I_    0.961512 0.462386 0.810697 -0.348341
I6    I     I_    0.894018 0.489772 0.213726 -0.407583
Br5   Br    Br    0.822344 0.544727 0.409642 -0.426682

loop_
_geom_bond_atom_site_label_1
_geom_bond_atom_site_label_2
_ccdc_geom_bond_type
C45   O3    A    
C58   C62   A    
C55   C56   S    
C63   C65   T    
C34   O26   A    
Cr1   O5    S    
C41   C42   A    
C23   O23   A    
C35   C36   A    
C83   O13   A    
C34   C66   S    
C57   C58   A    
C17   H23   S    
C32   H2    S    
C35   H6    S    
C40   C46   A    
C27   H9    S    
C26   C27   A    
C29   C30   A    
C74   C76   T    
C18   C24   A    
C36   C37   S    
C4    C7    S    
C29   H4    S    
Cr6   O19   S    
C49   C54   A    
C26   H5    S    
C18   C19   A    
C73   C74   S    
C32   C39   A    
C42   I4    S    
C77   O7    A    
C70   H20   S    
C23   O1    A    
C68   C69   A    
C69   H19   S    
C43   C53   S    
C19   C20   A    
C16   C17   A    
C48   I3    S    
C8    C79   S    
C69   C73   A    
C70   C71   A    
Cr2   O2    S    
C9    C10   A    
Cr1   O24   S    
C68   C72   A    
Cr6   O17   S    
C79   O10   A    
C59   C60   A    
C21   C22   T    
C1    C25   S    
Cr3   O4    S    
Cr4   O14   S    
Cr3   O22   S    
C72   C75   S    
C76   C83   S    
C15   Br5   S    
C44   C46   A    
C80   O6    A    
Cr1   O1    S    
C40   C45   S    
C12   C67   S    
C17   C24   A    
C51   C52   S    
C59   H16   S    
C47   C48   A    
Cr3   O3    S    
Cr4   O7    S    
C5    C84   A    
C9    C23   S    
C47   C51   A    
Cr5   O8    S    
C25   C26   A    
C14   H24   S    
C70   C73   A    
Cr5   O15   S    
C71   H21   S    
C60   C61   A    
C61   C64   S    
C48   C54   A    
C43   C44   A    
C4    C78   A    
C37   C38   T    
C77   O8    A    
C24   C77   S    
C65   C81   S    
C46   Br3   S    
C28   C38   S    
C3    H22   S    
C16   C20   A    
C55   C64   T    
C62   C63   S    
C50   C51   A    
Cr6   O11   S    
C33   C39   A    
Cr1   O25   S    
C60   H17   S    
Cr2   O21   S    
C40   C41   A    
C50   H12   S    
C19   I1    S    
C81   O14   A    
C56   O4    A    
Cr1   O12   S    
C2    C5    A    
C42   C43   A    
Cr3   O23   S    
C82   O17   A    
C3    C4    A    
C28   C29   A    
C54   C82   S    
C52   C53   T    
C30   Br2   S    
C11   I2    S    
C45   O2    A    
C25   C30   A    
C56   O24   A    
C57   H14   S    
C18   Br1   S    
C59   C62   A    
Cr5   O19   S    
C31   C36   A    
C12   O22   A    
C31   C32   A    
C1    O12   A    
Cr4   O6    S    
C49   H13   S    
C6    C8    T    
C44   H11   S    
C57   C61   A    
Cr5   O9    S    
C78   H1    S    
C79   O9    A    
C2    H15   S    
Cr5   O16   S    
C84   H8    S    
C39   C80   S    
C2    C3    A    
C9    C15   A    
Cr4   O19   S    
C71   C72   A    
Cr4   O13   S    
C31   H3    S    
Cr6   O18   S    
C11   C13   A    
C81   O15   A    
C5    C6    S    
C41   Br4   S    
C80   O11   A    
C66   C75   T    
C34   O25   A    
C33   C35   A    
Cr6   O10   S    
C13   C22   S    
C16   I6    S    
C33   H7    S    
C83   O18   A    
C10   C11   A    
C47   H10   S    
C7    C67   T    
C78   C84   A    
Cr2   O20   S    
Cr3   O5    S    
C20   C21   S    
C49   C50   A    
C12   O21   A    
C1    O20   A    
C27   C28   A    
C14   C15   A    
Cr2   O5    S    
C68   H18   S    
C82   O16   A    
C13   C14   A    
C10   H25   S    
C58   I5    S    
Cr2   O26   S    
