data_mof_unit_58479.cif
_audit_creation_date              2013-03-05T15:43:30-0500
_audit_creation_method            fapswitch 2.2
_symmetry_space_group_name_H-M    P1
_symmetry_Int_Tables_number       1
_space_group_crystal_system       triclinic
_cell_length_a                    10.749666
_cell_length_b                    10.943956
_cell_length_c                    9.685848
_cell_angle_alpha                 89.575989
_cell_angle_beta                  89.996954
_cell_angle_gamma                 89.946903
_cell_volume                      1139.44896698

loop_
_atom_site_label
_atom_site_type_symbol
_atom_site_description
_atom_site_fract_x
_atom_site_fract_y
_atom_site_fract_z
_atom_type_partial_charge
O1    O     O_R   0.500020 0.321960 0.617040 -0.583262
O2    O     O_R   0.499980 0.321920 0.382900 -0.581279
C1    C     C_R   0.502111 0.265393 0.500543 0.856219
O3    O     O_R   0.317710 0.500000 0.617070 -0.573929
O4    O     O_R   0.317670 0.499960 0.382930 -0.573624
C2    C     C_R   0.259789 0.501182 0.500140 0.843694
Cu1   Cu    Cu3+1 0.500030 0.500020 0.638630 0.957222
Cu2   Cu    Cu3+1 0.499970 0.499980 0.361370 0.960946
O5    O     O_R   0.500020 0.678080 0.617100 -0.570264
O6    O     O_R   0.499980 0.678040 0.382960 -0.528622
O7    O     O_R   0.682330 0.500040 0.617070 -0.593552
O8    O     O_R   0.682290 0.500000 0.382930 -0.591435
C3    C     C_R   0.502295 0.734811 0.499119 0.923524
C4    C     C_R   0.740084 0.498742 0.500195 0.764562
C5    C     C_3   0.072090 0.395293 0.413482 -0.467457
H1    H     H_    0.109860 0.307821 0.455506 0.179712
H2    H     H_    0.104189 0.400898 0.304685 0.170109
C6    C     C_3   0.928915 0.390481 0.417706 -0.386775
H3    H     H_    0.892199 0.392146 0.310254 0.179271
H4    H     H_    0.898104 0.303151 0.466410 0.173265
H5    H     H_    0.101157 0.393428 0.690036 0.167743
H6    H     H_    0.891261 0.408941 0.703952 0.171946
C7    C     C_3   0.071226 0.484484 0.649941 -0.394316
C8    C     C_3   0.069838 0.631165 0.443975 0.553984
C9    C     C_3   0.121492 0.504398 0.500421 0.019797
C10   C     C_3   0.877880 0.499987 0.500614 0.092667
C11   C     C_3   0.928876 0.491488 0.650630 -0.361890
C12   C     C_3   0.924731 0.619593 0.431747 -0.450655
H7    H     H_    0.896517 0.618415 0.321139 0.152788
H8    H     H_    0.875338 0.699282 0.475948 0.178943
H9    H     H_    0.109000 0.553680 0.722310 0.219021
H10   H     H_    0.898747 0.572799 0.710454 0.204653
C13   C     C_2   0.523334 0.935766 0.383895 0.275080
C14   C     C_2   0.498919 0.867366 0.497612 -0.289759
H11   H     H_    0.468943 0.908332 0.593412 0.133501
C15   C     C_2   0.508351 0.069195 0.386509 -0.223890
C16   C     C_2   0.512155 0.133703 0.503315 -0.351658
H12   H     H_    0.498805 0.115840 0.287622 0.168259
H13   H     H_    0.528548 0.091565 0.603193 0.150118
C17   C     C_2   0.423487 0.434645 0.922618 -0.061125
N1    N     N_2   0.498630 0.498660 0.846910 -0.278727
H14   H     H_    0.354635 0.378345 0.871631 0.145680
H15   H     H_    0.566496 0.549564 0.893558 0.191725
C18   C     C_2   0.426038 0.431828 0.078414 -0.068436
N2    N     N_2   0.498590 0.498630 0.153040 -0.276705
H16   H     H_    0.362011 0.370266 0.130384 0.143733
H17   H     H_    0.556791 0.560071 0.105545 0.197992
N3    N     N_2   0.559914 0.881273 0.256738 -0.391669
H18   H     H_    0.526412 0.926354 0.170514 0.243605
C19   C     C_3   0.691875 0.857082 0.246371 -0.670743
H19   H     H_    0.711512 0.808338 0.148607 0.217136
H20   H     H_    0.723173 0.798412 0.333542 0.221278
H21   H     H_    0.744959 0.944199 0.246945 0.218709
N4    N     N_R   0.105678 0.728982 0.541520 0.112768
O9    O     O_R   0.024743 0.782111 0.621186 -0.404575
O10   O     O_R   0.221884 0.760314 0.553053 -0.392114
N5    N     N_2   0.122139 0.659552 0.307485 -0.427698
H22   H     H_    0.108537 0.593037 0.234330 0.233072
C20   C     C_3   0.100529 0.781021 0.251075 -0.621661
H23   H     H_    0.146277 0.789047 0.148595 0.222481
H24   H     H_    0.141185 0.852019 0.318577 0.269300
H25   H     H_    0.999441 0.798323 0.237689 0.201317

loop_
_geom_bond_atom_site_label_1
_geom_bond_atom_site_label_2
_geom_bond_distance
_ccdc_geom_bond_type
C5    C6    1.540564 S    
C19   H20   1.109032 S    
C5    H2    1.110118 S    
C7    C11   1.532072 S    
O4    Cu2   1.970747 S    
C10   C12   1.549261 S    
C6    C10   1.547601 S    
C17   C18   1.509354 S    
Cu2   O8    1.970986 S    
C4    C10   1.481337 S    
N3    C19   1.446419 S    
C19   H19   1.110428 S    
N5    H22   1.030144 S    
Cu1   Cu2   2.685502 S    
C16   H13   1.082976 S    
O1    Cu1   1.961407 S    
C8    C9    1.587228 S    
Cu1   O7    1.970747 S    
N1    H15   1.025300 S    
C12   H7    1.113619 S    
C10   C11   1.555140 S    
O3    Cu1   1.970984 S    
N3    H18   1.031600 S    
C15   H12   1.086831 S    
C17   N1    1.293979 D    
C12   H8    1.109248 S    
C13   C14   1.352976 D    
O2    C1    1.292732 A    
H6    C11   1.113607 S    
C7    C9    1.559587 S    
H5    C7    1.114040 S    
O4    C2    1.294727 A    
O7    C4    1.291233 A    
N4    O10   1.300719 A    
N5    C20   1.452018 S    
C2    C9    1.487030 S    
C5    C9    1.559794 S    
C8    N4    1.484199 S    
C5    H1    1.113757 S    
C19   H21   1.111623 S    
C20   H23   1.110662 S    
C13   C15   1.469351 S    
C6    H3    1.113120 S    
C18   N2    1.293881 D    
C1    C16   1.445204 S    
C6    H4    1.113355 S    
Cu2   O6    1.961407 S    
C14   H11   1.082450 S    
C8    N5    1.467823 S    
N2    H17   1.025356 S    
Cu1   O5    1.958273 S    
C13   N3    1.427432 S    
O5    C3    1.296710 A    
N4    O9    1.302330 A    
C15   C16   1.338630 D    
C20   H25   1.110306 S    
C3    C14   1.451063 S    
C18   H16   1.084816 S    
O1    C1    1.291234 A    
C11   H10   1.113372 S    
Cu2   N2    2.018072 S    
O3    C2    1.292430 A    
O2    Cu2   1.958273 S    
C8    C12   1.569659 S    
Cu1   N1    2.017370 S    
O8    C4    1.294630 A    
C17   H14   1.084765 S    
C20   H24   1.109224 S    
O6    C3    1.289513 A    
C7    H9    1.112728 S    
