data_mof_unit_64532.cif
_audit_creation_date              2012-12-10T17:27:40-0500
_audit_creation_method            fapswitch 2.2
_symmetry_space_group_name_H-M    P1
_symmetry_Int_Tables_number       1
_space_group_crystal_system       triclinic
_cell_length_a                    18.324711
_cell_length_b                    18.324889
_cell_length_c                    42.894025
_cell_angle_alpha                 89.999765
_cell_angle_beta                  89.999806
_cell_angle_gamma                 90.047029
_cell_volume                      14403.7356097

loop_
_atom_site_label
_atom_site_type_symbol
_atom_type_description
_atom_site_fract_x
_atom_site_fract_y
_atom_site_fract_z
_atom_type_partial_charge
C1    C     C_R   0.943546 0.535001 0.884725 0.249228
C2    C     C_R   0.056455 0.464999 0.115275 0.249225
C3    C     C_R   0.465178 0.056565 0.884723 0.249158
C4    C     C_R   0.534856 0.943457 0.115276 0.249168
C5    C     C_R   0.056454 0.464998 0.884725 0.249225
C6    C     C_R   0.943546 0.535003 0.115275 0.249225
C7    C     C_R   0.534820 0.943433 0.884723 0.249158
C8    C     C_R   0.465144 0.056542 0.115276 0.249168
C9    C     C_R   0.443460 0.034860 0.384724 0.249166
C10   C     C_R   0.556545 0.965146 0.615276 0.249167
C11   C     C_R   0.965309 0.556643 0.384722 0.249101
C12   C     C_R   0.034689 0.443357 0.615278 0.249101
C13   C     C_R   0.556541 0.965140 0.384724 0.249166
C14   C     C_R   0.443456 0.034855 0.615276 0.249165
C15   C     C_R   0.034690 0.443358 0.384722 0.249100
C16   C     C_R   0.965312 0.556644 0.615278 0.249103
C17   C     C_R   0.260144 0.794495 0.722908 -0.185520
C18   C     C_R   0.739858 0.205503 0.277091 -0.185520
C19   C     C_R   0.182339 0.236973 0.734354 -0.182449
C20   C     C_R   0.817663 0.763028 0.265644 -0.182451
C21   C     C_R   0.739856 0.205506 0.722908 -0.185521
C22   C     C_R   0.260141 0.794496 0.277091 -0.185520
C23   C     C_R   0.817659 0.763024 0.734351 -0.182447
C24   C     C_R   0.182338 0.236972 0.265645 -0.182449
C25   C     C_R   0.236970 0.182338 0.265645 -0.182431
C26   C     C_R   0.763027 0.817658 0.734352 -0.182427
C27   C     C_R   0.205508 0.739859 0.277093 -0.185536
C28   C     C_R   0.794490 0.260143 0.722907 -0.185536
C29   C     C_R   0.763031 0.817662 0.265644 -0.182429
C30   C     C_R   0.236971 0.182339 0.734354 -0.182429
C31   C     C_R   0.794490 0.260141 0.277093 -0.185536
C32   C     C_R   0.205512 0.739857 0.722906 -0.185537
C33   C     C_R   0.760141 0.294497 0.222909 -0.185500
C34   C     C_R   0.239857 0.705505 0.777091 -0.185502
C35   C     C_R   0.682337 0.736972 0.234356 -0.182427
C36   C     C_R   0.317660 0.263026 0.765646 -0.182428
C37   C     C_R   0.239859 0.705504 0.222909 -0.185501
C38   C     C_R   0.760143 0.294494 0.777091 -0.185503
C39   C     C_R   0.317662 0.263028 0.234356 -0.182426
C40   C     C_R   0.682341 0.736976 0.765648 -0.182429
C41   C     C_R   0.736974 0.682342 0.765648 -0.182409
C42   C     C_R   0.263029 0.317661 0.234356 -0.182410
C43   C     C_R   0.705509 0.239858 0.777093 -0.185522
C44   C     C_R   0.294493 0.760140 0.222908 -0.185518
C45   C     C_R   0.263028 0.317659 0.765646 -0.182410
C46   C     C_R   0.736970 0.682338 0.234356 -0.182409
C47   C     C_R   0.294489 0.760142 0.777093 -0.185524
C48   C     C_R   0.705508 0.239860 0.222907 -0.185519
C49   C     C_R   0.304005 0.804007 0.750001 -0.017170
C50   C     C_R   0.695994 0.195993 0.249999 -0.017167
C51   C     C_R   0.195996 0.304003 0.750000 -0.009632
C52   C     C_R   0.804003 0.695996 0.250000 -0.009632
C53   C     C_R   0.695994 0.195993 0.750001 -0.017170
C54   C     C_R   0.304006 0.804007 0.249999 -0.017168
C55   C     C_R   0.804003 0.695996 0.750000 -0.009631
C56   C     C_R   0.195997 0.304004 0.250000 -0.009631
C57   C     C_R   0.304003 0.195996 0.250000 -0.009629
C58   C     C_R   0.695997 0.804004 0.750000 -0.009633
C59   C     C_R   0.195994 0.695994 0.250001 -0.017169
C60   C     C_R   0.804006 0.304006 0.749999 -0.017169
C61   C     C_R   0.695997 0.804004 0.250000 -0.009631
C62   C     C_R   0.304003 0.195996 0.750000 -0.009635
C63   C     C_R   0.804006 0.304007 0.250001 -0.017168
C64   C     C_R   0.195994 0.695993 0.749998 -0.017169
C65   C     C_R   0.943832 0.534767 0.917271 -0.149855
C66   C     C_R   0.056169 0.465233 0.082729 -0.149857
C67   C     C_R   0.465422 0.056285 0.917269 -0.149863
C68   C     C_R   0.534612 0.943736 0.082730 -0.149860
C69   C     C_R   0.056167 0.465231 0.917271 -0.149855
C70   C     C_R   0.943833 0.534770 0.082729 -0.149857
C71   C     C_R   0.534577 0.943712 0.917269 -0.149864
C72   C     C_R   0.465388 0.056262 0.082730 -0.149861
C73   C     C_R   0.443739 0.034616 0.417270 -0.149878
C74   C     C_R   0.556265 0.965390 0.582731 -0.149877
C75   C     C_R   0.965563 0.556370 0.417268 -0.149883
C76   C     C_R   0.034435 0.443630 0.582732 -0.149881
C77   C     C_R   0.556262 0.965384 0.417269 -0.149877
C78   C     C_R   0.443736 0.034612 0.582731 -0.149876
C79   C     C_R   0.034436 0.443630 0.417268 -0.149883
C80   C     C_R   0.965566 0.556372 0.582732 -0.149882
C81   C     C_R   0.000000 0.500000 0.665904 0.955599
C82   C     C_R   1.000000 0.500000 0.334096 0.955592
C83   C     C_R   0.500000 0.000000 0.665903 0.955580
C84   C     C_R   0.500000 1.000000 0.334097 0.955575
C85   C     C_R   0.500000 1.000000 0.165903 0.955569
C86   C     C_R   0.500000 0.000000 0.834097 0.955575
C87   C     C_R   1.000000 0.500000 0.165903 0.955552
C88   C     C_R   1.000000 0.500000 0.834097 0.955562
C89   C     C_R   0.860064 0.639935 0.750000 1.044872
C90   C     C_R   0.139936 0.360065 0.250000 1.044872
C91   C     C_R   0.360068 0.860064 0.750001 1.049220
C92   C     C_R   0.639933 0.139935 0.249999 1.049224
C93   C     C_R   0.139936 0.360064 0.750000 1.044871
C94   C     C_R   0.860064 0.639935 0.250000 1.044874
C95   C     C_R   0.639933 0.139935 0.750001 1.049220
C96   C     C_R   0.360067 0.860065 0.249999 1.049224
C97   C     C_R   0.860068 0.360064 0.250001 1.049221
C98   C     C_R   0.139932 0.639936 0.749998 1.049212
C99   C     C_R   0.360064 0.139935 0.250000 1.044872
C100  C     C_R   0.639936 0.860065 0.750000 1.044872
C101  C     C_R   0.139932 0.639936 0.250001 1.049222
C102  C     C_R   0.860068 0.360064 0.749999 1.049214
C103  C     C_R   0.639936 0.860065 0.250000 1.044874
C104  C     C_R   0.360064 0.139935 0.750000 1.044874
C105  C     C_R   0.500001 0.000001 0.531672 0.345554
C106  C     C_R   0.500001 0.000001 0.468328 0.345553
C107  C     C_R   0.000001 0.500000 0.531673 0.345475
C108  C     C_R   0.000000 0.500001 0.468327 0.345474
C109  C     C_R   0.000002 0.500002 0.031672 0.345618
C110  C     C_R   1.000000 0.500000 0.968328 0.345618
C111  C     C_R   0.499999 0.999999 0.031672 0.345547
C112  C     C_R   0.499999 0.999999 0.968327 0.345547
C113  C     C_R   1.000000 0.499999 0.868232 -0.170378
C114  C     C_R   0.000000 0.500001 0.131768 -0.170379
C115  C     C_R   0.500000 1.000000 0.868230 -0.170451
C116  C     C_R   0.500000 1.000000 0.131769 -0.170433
C117  C     C_R   0.500000 1.000000 0.368231 -0.170425
C118  C     C_R   0.500000 0.000000 0.631769 -0.170428
C119  C     C_R   1.000000 0.500000 0.368230 -0.170491
C120  C     C_R   0.000000 0.500000 0.631770 -0.170490
C121  C     C_R   0.160980 0.731574 0.695748 0.531947
C122  C     C_R   0.839026 0.268421 0.304250 0.531954
C123  C     C_R   0.223062 0.115463 0.718311 0.514770
C124  C     C_R   0.776942 0.884540 0.281685 0.514772
C125  C     C_R   0.839025 0.268425 0.695749 0.531952
C126  C     C_R   0.160971 0.731579 0.304249 0.531954
C127  C     C_R   0.776935 0.884532 0.718306 0.514762
C128  C     C_R   0.223060 0.115461 0.281686 0.514772
C129  C     C_R   0.115460 0.223064 0.281687 0.514749
C130  C     C_R   0.884533 0.776928 0.718305 0.514739
C131  C     C_R   0.268420 0.839041 0.304245 0.531942
C132  C     C_R   0.731575 0.160964 0.695753 0.531940
C133  C     C_R   0.884541 0.776936 0.281685 0.514751
C134  C     C_R   0.115462 0.223066 0.718310 0.514747
C135  C     C_R   0.731579 0.160957 0.304245 0.531945
C136  C     C_R   0.268424 0.839040 0.695754 0.531943
C137  C     C_R   0.660970 0.231581 0.195751 0.531939
C138  C     C_R   0.339024 0.768423 0.804250 0.531939
C139  C     C_R   0.723058 0.615460 0.218316 0.514783
C140  C     C_R   0.276936 0.384535 0.781690 0.514777
C141  C     C_R   0.339032 0.768419 0.195752 0.531941
C142  C     C_R   0.660972 0.231577 0.804249 0.531942
C143  C     C_R   0.276940 0.384539 0.218314 0.514781
C144  C     C_R   0.723066 0.615468 0.781694 0.514776
C145  C     C_R   0.615466 0.723070 0.781693 0.514755
C146  C     C_R   0.384540 0.276936 0.218314 0.514763
C147  C     C_R   0.768423 0.339037 0.804246 0.531928
C148  C     C_R   0.231582 0.660958 0.195755 0.531931
C149  C     C_R   0.384537 0.276933 0.781689 0.514758
C150  C     C_R   0.615459 0.723063 0.218315 0.514764
C151  C     C_R   0.231577 0.660960 0.804245 0.531932
C152  C     C_R   0.768419 0.339044 0.195755 0.531934
C153  C     C_R   0.174719 0.771578 0.668720 0.165734
C154  C     C_R   0.825290 0.228414 0.331277 0.165738
C155  C     C_R   0.156343 0.102651 0.703666 0.159990
C156  C     C_R   0.843663 0.897354 0.296326 0.159993
C157  C     C_R   0.825285 0.228424 0.668721 0.165733
C158  C     C_R   0.174706 0.771585 0.331277 0.165737
C159  C     C_R   0.843650 0.897341 0.703658 0.159989
C160  C     C_R   0.156340 0.102648 0.296329 0.159994
C161  C     C_R   0.102645 0.156345 0.296329 0.160027
C162  C     C_R   0.897345 0.843643 0.703657 0.160024
C163  C     C_R   0.228420 0.825307 0.331275 0.165698
C164  C     C_R   0.771570 0.174702 0.668723 0.165694
C165  C     C_R   0.897358 0.843656 0.296327 0.160028
C166  C     C_R   0.102648 0.156349 0.703666 0.160022
C167  C     C_R   0.771577 0.174691 0.331275 0.165697
C168  C     C_R   0.228431 0.825304 0.668724 0.165697
C169  C     C_R   0.674702 0.271591 0.168724 0.165739
C170  C     C_R   0.325287 0.728418 0.831278 0.165740
C171  C     C_R   0.656336 0.602645 0.203676 0.159989
C172  C     C_R   0.343655 0.397348 0.796334 0.159986
C173  C     C_R   0.325301 0.728410 0.168724 0.165738
C174  C     C_R   0.674708 0.271582 0.831278 0.165739
C175  C     C_R   0.343661 0.397354 0.203673 0.159991
C176  C     C_R   0.656349 0.602657 0.796340 0.159981
C177  C     C_R   0.602652 0.656354 0.796340 0.160020
C178  C     C_R   0.397357 0.343657 0.203673 0.160019
C179  C     C_R   0.728424 0.325303 0.831276 0.165697
C180  C     C_R   0.271585 0.674688 0.168726 0.165705
C181  C     C_R   0.397352 0.343651 0.796334 0.160015
C182  C     C_R   0.602641 0.656342 0.203675 0.160020
C183  C     C_R   0.271573 0.674694 0.831275 0.165695
C184  C     C_R   0.728417 0.325314 0.168726 0.165702
C185  C     C_R   1.000000 0.499999 0.933862 -0.036665
C186  C     C_R   0.000002 0.500002 0.066138 -0.036664
C187  C     C_R   0.499999 0.999999 0.933861 -0.036705
C188  C     C_R   0.500000 0.999999 0.066138 -0.036704
C189  C     C_R   0.500001 0.000000 0.433861 -0.036698
C190  C     C_R   0.500001 0.000000 0.566139 -0.036697
C191  C     C_R   1.000000 0.500000 0.433860 -0.036739
C192  C     C_R   0.000001 0.500001 0.566140 -0.036740
H1    H     H_    0.899686 0.561590 0.929512 0.198969
H2    H     H_    0.100315 0.438410 0.070488 0.198970
H3    H     H_    0.438733 0.100513 0.929510 0.198989
H4    H     H_    0.561328 0.899526 0.070489 0.198985
H5    H     H_    0.100313 0.438408 0.929512 0.198969
H6    H     H_    0.899688 0.561593 0.070488 0.198970
H7    H     H_    0.561264 0.899484 0.929510 0.198989
H8    H     H_    0.438671 0.100471 0.070489 0.198986
H9    H     H_    0.399531 0.061336 0.429511 0.198976
H10   H     H_    0.600477 0.938675 0.570489 0.198977
H11   H     H_    0.938968 0.600653 0.429509 0.198992
H12   H     H_    0.061028 0.399346 0.570491 0.198992
H13   H     H_    0.600470 0.938665 0.429511 0.198976
H14   H     H_    0.399524 0.061326 0.570489 0.198977
H15   H     H_    0.061031 0.399347 0.429509 0.198992
H16   H     H_    0.938973 0.600655 0.570491 0.198992
N1    N     N_R   0.053440 0.465304 0.984489 -0.143427
N2    N     N_R   0.946562 0.534697 0.015512 -0.143428
N3    N     N_R   0.534008 0.946138 0.984488 -0.143385
N4    N     N_R   0.465990 0.053859 0.015511 -0.143383
N5    N     N_R   0.946561 0.534696 0.984489 -0.143427
N6    N     N_R   0.053441 0.465305 0.015511 -0.143427
N7    N     N_R   0.465990 0.053859 0.984488 -0.143385
N8    N     N_R   0.534008 0.946138 0.015511 -0.143383
N9    N     N_R   0.553851 0.965978 0.484489 -0.143404
N10   N     N_R   0.446151 0.034024 0.515512 -0.143404
N11   N     N_R   0.033314 0.445729 0.484488 -0.143356
N12   N     N_R   0.966687 0.554272 0.515512 -0.143355
N13   N     N_R   0.446151 0.034024 0.484489 -0.143404
N14   N     N_R   0.553851 0.965978 0.515512 -0.143404
N15   N     N_R   0.966687 0.554272 0.484488 -0.143356
N16   N     N_R   0.033314 0.445729 0.515512 -0.143356
O1    O     O_3   1.000000 0.500000 0.750000 -0.552045
O2    O     O_3   1.000000 0.500000 0.250000 -0.552047
O3    O     O_3   0.500000 1.000000 0.750000 -0.552044
O4    O     O_3   0.500000 0.000000 0.250000 -0.552049
O5    O     O_R   0.060770 0.500000 0.680670 -0.600706
O6    O     O_R   0.939230 0.500000 0.319330 -0.600709
O7    O     O_R   0.500000 0.060770 0.680670 -0.600666
O8    O     O_R   0.500000 0.939230 0.319330 -0.600668
O9    O     O_R   0.939230 0.500000 0.680670 -0.600708
O10   O     O_R   0.060770 0.500000 0.319330 -0.600710
O11   O     O_R   0.500000 0.939230 0.680670 -0.600669
O12   O     O_R   0.500000 0.060770 0.319330 -0.600667
O13   O     O_R   0.560770 1.000000 0.180670 -0.600662
O14   O     O_R   0.439230 0.000000 0.819330 -0.600671
O15   O     O_R   1.000000 0.560770 0.180670 -0.600626
O16   O     O_R   1.000000 0.439230 0.819330 -0.600622
O17   O     O_R   0.439230 1.000000 0.180670 -0.600662
O18   O     O_R   0.560770 0.000000 0.819330 -0.600673
O19   O     O_R   1.000000 0.439230 0.180670 -0.600625
O20   O     O_R   1.000000 0.560770 0.819330 -0.600622
O21   O     O_R   0.853860 0.585440 0.731810 -0.605607
O22   O     O_R   0.146140 0.414560 0.268190 -0.605603
O23   O     O_R   0.414560 0.853860 0.731810 -0.598286
O24   O     O_R   0.585440 0.146140 0.268190 -0.598279
O25   O     O_R   0.146140 0.414560 0.731810 -0.605607
O26   O     O_R   0.853860 0.585440 0.268190 -0.605602
O27   O     O_R   0.585440 0.146140 0.731810 -0.598273
O28   O     O_R   0.414560 0.853860 0.268190 -0.598275
O29   O     O_R   0.853860 0.414560 0.268190 -0.598255
O30   O     O_R   0.146140 0.585440 0.731810 -0.598252
O31   O     O_R   0.414560 0.146140 0.268190 -0.605556
O32   O     O_R   0.585440 0.853860 0.731810 -0.605559
O33   O     O_R   0.146140 0.585440 0.268190 -0.598260
O34   O     O_R   0.853860 0.414560 0.731810 -0.598266
O35   O     O_R   0.585440 0.853860 0.268190 -0.605557
O36   O     O_R   0.414560 0.146140 0.731810 -0.605554
O37   O     O_R   0.353860 0.085440 0.231810 -0.605533
O38   O     O_R   0.646140 0.914560 0.768190 -0.605545
O39   O     O_R   0.914560 0.353860 0.231810 -0.598263
O40   O     O_R   0.085440 0.646140 0.768190 -0.598270
O41   O     O_R   0.646140 0.914560 0.231810 -0.605532
O42   O     O_R   0.353860 0.085440 0.768190 -0.605545
O43   O     O_R   0.085440 0.646140 0.231810 -0.598259
O44   O     O_R   0.914560 0.353860 0.768190 -0.598258
O45   O     O_R   0.353860 0.914560 0.768190 -0.598238
O46   O     O_R   0.646140 0.085440 0.231810 -0.598240
O47   O     O_R   0.914560 0.646140 0.768190 -0.605497
O48   O     O_R   0.085440 0.353860 0.231810 -0.605491
O49   O     O_R   0.646140 0.085440 0.768190 -0.598249
O50   O     O_R   0.353860 0.914560 0.231810 -0.598244
O51   O     O_R   0.085440 0.353860 0.768190 -0.605493
O52   O     O_R   0.914560 0.646140 0.231810 -0.605493
Zn1   Zn    Zn3+2 0.000000 0.586740 0.775960 1.172096
Zn2   Zn    Zn3+2 1.000000 0.413260 0.224040 1.172100
Zn3   Zn    Zn3+2 0.413260 0.000000 0.775960 1.172065
Zn4   Zn    Zn3+2 0.586740 0.000000 0.224040 1.172073
Zn5   Zn    Zn3+2 1.000000 0.413260 0.775960 1.172103
Zn6   Zn    Zn3+2 1.000000 0.586740 0.224040 1.172102
Zn7   Zn    Zn3+2 0.586740 0.000000 0.775960 1.172058
Zn8   Zn    Zn3+2 0.413260 0.000000 0.224040 1.172071
Zn9   Zn    Zn3+2 0.500000 0.086740 0.275960 1.172038
Zn10  Zn    Zn3+2 0.500000 0.913260 0.724040 1.172034
Zn11  Zn    Zn3+2 0.913260 0.500000 0.275960 1.172007
Zn12  Zn    Zn3+2 0.086740 0.500000 0.724040 1.172008
Zn13  Zn    Zn3+2 0.500000 0.913260 0.275960 1.172040
Zn14  Zn    Zn3+2 0.500000 0.086740 0.724040 1.172043
Zn15  Zn    Zn3+2 0.086740 0.500000 0.275960 1.172004
Zn16  Zn    Zn3+2 0.913260 0.500000 0.724040 1.172000
F1    F     F_    0.102537 0.686075 0.694877 -0.606754
F2    F     F_    0.897469 0.313920 0.305121 -0.606753
F3    F     F_    0.273609 0.061543 0.716216 -0.614995
F4    F     F_    0.726395 0.938459 0.283781 -0.614996
F5    F     F_    0.897470 0.313921 0.694879 -0.606750
F6    F     F_    0.102527 0.686082 0.305120 -0.606752
F7    F     F_    0.726389 0.938454 0.716212 -0.615001
F8    F     F_    0.273607 0.061542 0.283783 -0.614999
F9    F     F_    0.061542 0.273613 0.283784 -0.615008
F10   F     F_    0.938452 0.726379 0.716209 -0.615013
F11   F     F_    0.313907 0.897492 0.305111 -0.606774
F12   F     F_    0.686089 0.102512 0.694888 -0.606773
F13   F     F_    0.938459 0.726387 0.283783 -0.615005
F14   F     F_    0.061543 0.273615 0.716214 -0.615007
F15   F     F_    0.686093 0.102504 0.305110 -0.606773
F16   F     F_    0.313907 0.897496 0.694890 -0.606769
F17   F     F_    0.602527 0.186083 0.194881 -0.606789
F18   F     F_    0.397468 0.813921 0.805121 -0.606780
F19   F     F_    0.773607 0.561542 0.216218 -0.615009
F20   F     F_    0.226388 0.438454 0.783787 -0.615007
F21   F     F_    0.397476 0.813916 0.194882 -0.606787
F22   F     F_    0.602527 0.186082 0.805119 -0.606779
F23   F     F_    0.226392 0.438457 0.216217 -0.615010
F24   F     F_    0.773614 0.561549 0.783790 -0.615013
F25   F     F_    0.561547 0.773619 0.783788 -0.615020
F26   F     F_    0.438458 0.226387 0.216216 -0.615019
F27   F     F_    0.813911 0.397489 0.805112 -0.606804
F28   F     F_    0.186094 0.602507 0.194889 -0.606804
F29   F     F_    0.438457 0.226385 0.783784 -0.615017
F30   F     F_    0.561542 0.773613 0.216217 -0.615016
F31   F     F_    0.186092 0.602506 0.805110 -0.606800
F32   F     F_    0.813906 0.397495 0.194890 -0.606804
Br1   Br    Br    0.863036 0.581078 0.863833 -0.324416
Br2   Br    Br    0.136964 0.418921 0.136167 -0.324412
Br3   Br    Br    0.419321 0.137192 0.863825 -0.324082
Br4   Br    Br    0.580759 0.862857 0.136173 -0.324145
Br5   Br    Br    0.136966 0.418923 0.863833 -0.324411
Br6   Br    Br    0.863036 0.581080 0.136167 -0.324414
Br7   Br    Br    0.580674 0.862803 0.863825 -0.324073
Br8   Br    Br    0.419240 0.137142 0.136172 -0.324147
Br9   Br    Br    0.362861 0.080768 0.363827 -0.324231
Br10  Br    Br    0.637149 0.919246 0.636173 -0.324220
Br11  Br    Br    0.919605 0.637349 0.363820 -0.323914
Br12  Br    Br    0.080389 0.362649 0.636180 -0.323911
Br13  Br    Br    0.637139 0.919231 0.363827 -0.324231
Br14  Br    Br    0.362852 0.080756 0.636173 -0.324220
Br15  Br    Br    0.080394 0.362651 0.363821 -0.323915
Br16  Br    Br    0.919613 0.637352 0.636180 -0.323907
Br17  Br    Br    0.252018 0.617651 0.867974 -0.220342
Br18  Br    Br    0.747965 0.382362 0.132029 -0.220331
Br19  Br    Br    0.489556 0.359703 0.816467 -0.203329
Br20  Br    Br    0.510434 0.640290 0.183545 -0.203345
Br21  Br    Br    0.747981 0.382342 0.867975 -0.220343
Br22  Br    Br    0.252037 0.617642 0.132029 -0.220331
Br23  Br    Br    0.510450 0.640306 0.816475 -0.203309
Br24  Br    Br    0.489563 0.359709 0.183542 -0.203338
Br25  Br    Br    0.359718 0.489559 0.183543 -0.203365
Br26  Br    Br    0.640296 0.510457 0.816476 -0.203339
Br27  Br    Br    0.382336 0.747958 0.132024 -0.220283
Br28  Br    Br    0.617678 0.252030 0.867980 -0.220286
Br29  Br    Br    0.640279 0.510439 0.183546 -0.203371
Br30  Br    Br    0.359709 0.489551 0.816468 -0.203355
Br31  Br    Br    0.617668 0.252044 0.132023 -0.220282
Br32  Br    Br    0.382311 0.747973 0.867981 -0.220288
Br33  Br    Br    0.752025 0.117647 0.367972 -0.220306
Br34  Br    Br    0.247990 0.882343 0.632025 -0.220315
Br35  Br    Br    0.989562 0.859706 0.316459 -0.203291
Br36  Br    Br    0.010446 0.140300 0.683530 -0.203283
Br37  Br    Br    0.247972 0.882350 0.367973 -0.220304
Br38  Br    Br    0.752011 0.117668 0.632023 -0.220315
Br39  Br    Br    0.010442 0.140296 0.316463 -0.203283
Br40  Br    Br    0.989544 0.859687 0.683516 -0.203255
Br41  Br    Br    0.859702 0.989540 0.683520 -0.203288
Br42  Br    Br    0.140286 0.010444 0.316461 -0.203316
Br43  Br    Br    0.882308 0.247980 0.632018 -0.220261
Br44  Br    Br    0.117677 0.752034 0.367979 -0.220252
Br45  Br    Br    0.140289 0.010447 0.683533 -0.203321
Br46  Br    Br    0.859719 0.989558 0.316457 -0.203324
Br47  Br    Br    0.117702 0.752019 0.632016 -0.220263
Br48  Br    Br    0.882316 0.247966 0.367980 -0.220253

loop_
_geom_bond_atom_site_label_1
_geom_bond_atom_site_label_2
_ccdc_geom_bond_type
C3    Br3   S    
C110  C185  S    
C13   Br13  S    
C53   C95   S    
O3    Zn14  S    
C143  C175  A    
C162  Br40  S    
C182  Br20  S    
C40   C145  A    
C69   H5    S    
C154  Br48  S    
O35   Zn13  S    
C105  N14   A    
C174  Br28  S    
O28   Zn13  S    
O2    Zn2   S    
C112  N7    A    
C74   C190  A    
C24   C129  A    
C84   C117  S    
C101  O33   A    
C107  C192  S    
C108  C191  S    
C139  C171  A    
C5    C113  A    
C48   C50   A    
C79   C191  A    
C80   C192  A    
C176  Br26  S    
C49   C91   S    
C36   C62   A    
C66   H2    S    
C67   C187  A    
C128  F8    S    
C65   C185  A    
C5    Br5   S    
O36   Zn14  S    
C40   C58   A    
C58   C100  S    
C71   C187  A    
C123  C155  A    
C145  F25   S    
C2    Br2   S    
C172  Br30  S    
C23   C130  A    
C16   C80   A    
O2    Zn6   S    
C21   C132  A    
C88   O20   A    
C77   H13   S    
O37   Zn8   S    
O38   Zn7   S    
C86   O18   A    
O1    Zn16  S    
C110  N5    A    
O9    Zn16  S    
O10   Zn15  S    
C24   C25   A    
C11   Br11  S    
C177  Br23  S    
C21   C28   A    
C83   O11   A    
C22   C27   A    
C66   C186  A    
C153  C168  A    
C81   O9    A    
C154  C167  A    
C110  N1    A    
C17   C49   A    
C69   C185  A    
C28   C125  A    
O48   Zn2   S    
C61   C103  S    
C32   C121  A    
C85   C116  S    
C158  Br44  S    
C23   C55   A    
C163  Br37  S    
C24   C56   A    
C8    C116  A    
C184  Br18  S    
O44   Zn5   S    
C37   C44   A    
C176  C177  A    
C175  Br25  S    
C38   C43   A    
C181  Br19  S    
C2    C114  A    
C143  F23   S    
O52   Zn6   S    
C79   H15   S    
C155  Br45  S    
O20   Zn1   S    
C86   O14   A    
C89   O21   A    
C6    Br6   S    
C169  Br31  S    
C103  O41   A    
C84   O8    A    
C97   O39   A    
C173  Br27  S    
C147  C179  A    
O47   Zn1   S    
C106  N9    A    
C99   O37   A    
C42   C143  A    
C17   C32   A    
C43   C142  A    
C15   Br15  S    
C18   C31   A    
C100  O32   A    
C19   C30   A    
C171  Br29  S    
C46   C139  A    
C121  F1    S    
C123  F3    S    
C92   O24   A    
C22   C54   A    
C19   C134  A    
C111  C188  S    
C131  F11   S    
C25   C128  A    
C16   C120  A    
O24   Zn9   S    
C27   C126  A    
C14   Br14  S    
C57   C99   S    
C29   C124  A    
C4    Br4   S    
C146  C178  A    
C88   C113  S    
C111  N4    A    
C6    C114  A    
O7    Zn14  S    
N11   N16   A    
C108  N11   A    
C172  C181  A    
C15   C79   A    
C44   C141  A    
O6    Zn11  S    
C1    C65   A    
O4    Zn13  S    
C35   C150  A    
C153  Br47  S    
C180  Br22  S    
C130  C162  A    
N3    N8    A    
C70   H6    S    
C25   C57   A    
C60   C102  S    
C94   O26   A    
O2    Zn15  S    
C62   C104  S    
C28   C60   A    
C29   C61   A    
C87   O15   A    
O32   Zn10  S    
C112  N3    A    
C31   C63   A    
C18   C135  A    
C32   C64   A    
C109  N6    A    
C144  F24   S    
C151  F31   S    
C4    C68   A    
C75   H11   S    
O43   Zn6   S    
C102  O34   A    
C86   C115  S    
C75   C191  A    
C169  C184  A    
C76   C192  A    
C98   O40   A    
C92   O46   A    
C136  F16   S    
N4    N7    A    
C33   C63   A    
C144  C176  A    
C34   C64   A    
O40   Zn1   S    
C129  C161  A    
C35   C61   A    
C157  C164  A    
C37   C59   A    
C158  C163  A    
C51   C93   S    
C38   C60   A    
C80   H16   S    
O29   Zn11  S    
C16   Br16  S    
O33   Zn15  S    
N10   N13   A    
C97   O29   A    
C107  N16   A    
O34   Zn16  S    
C165  Br35  S    
C146  F26   S    
C2    C66   A    
O3    Zn7   S    
C183  Br17  S    
O41   Zn4   S    
C151  C183  A    
O12   Zn9   S    
C170  Br32  S    
O42   Zn3   S    
N2    N5    A    
C77   C189  A    
C63   C97   S    
C11   C75   A    
C134  F14   S    
C83   O7    A    
C47   C138  A    
C15   C119  A    
C26   C127  A    
C1    C113  A    
O51   Zn5   S    
C70   C186  A    
C127  F7    S    
C44   C54   A    
C139  F19   S    
C30   C123  A    
C68   C188  A    
O1    Zn1   S    
C81   O5    A    
C149  F29   S    
C124  F4    S    
N12   N15   A    
C22   C131  A    
C112  C187  S    
C150  C182  A    
C9    Br9   S    
O4    Zn4   S    
C129  F9    S    
C121  C153  A    
C84   O12   A    
C93   O51   A    
C94   O52   A    
C125  C157  A    
C106  N13   A    
C88   O16   A    
O11   Zn10  S    
C96   O50   A    
O45   Zn3   S    
C104  O36   A    
C23   C26   A    
O46   Zn4   S    
C41   C55   A    
C5    C69   A    
C42   C56   A    
O4    Zn9   S    
C43   C53   A    
O5    Zn12  S    
O25   Zn12  S    
O26   Zn11  S    
C134  C166  A    
C122  F2    S    
O1    Zn5   S    
C39   C42   A    
C64   C98   S    
C82   O6    A    
C148  C180  A    
C130  F10   S    
C149  C181  A    
C160  Br42  S    
C82   C119  S    
O23   Zn10  S    
C12   Br12  S    
C175  C178  A    
C65   H1    S    
C73   H9    S    
O15   Zn6   S    
C91   O23   A    
C8    C72   A    
C59   C101  S    
O1    Zn12  S    
C141  F21   S    
C111  N8    A    
C41   C144  A    
C142  C174  A    
C95   O27   A    
O8    Zn13  S    
C108  N15   A    
C166  Br36  S    
C74   H10   S    
C173  C180  A    
C45   C140  A    
C78   H14   S    
C133  C165  A    
C125  F5    S    
C131  C163  A    
C85   O17   A    
C10   Br10  S    
C159  C162  A    
C68   H4    S    
C26   C58   A    
C12   C76   A    
C142  F22   S    
C96   O28   A    
O17   Zn8   S    
C109  N2    A    
O39   Zn2   S    
O18   Zn7   S    
C8    Br8   S    
C18   C50   A    
N9    N14   A    
C6    C70   A    
C103  O35   A    
C105  C190  S    
C4    C116  A    
C31   C122  A    
C148  F28   S    
C13   C117  A    
C71   H7    S    
C109  C186  S    
O31   Zn9   S    
N1    N6    A    
C95   O49   A    
C159  Br41  S    
C55   C89   S    
C3    C115  A    
C140  F20   S    
C156  Br46  S    
C156  C165  A    
C90   O22   A    
C39   C146  A    
C85   O13   A    
C37   C148  A    
C38   C147  A    
C137  F17   S    
C107  N12   A    
C105  N10   A    
C132  F12   S    
C33   C48   A    
C45   C51   A    
C34   C47   A    
C35   C46   A    
O3    Zn3   S    
C73   C189  A    
C170  C183  A    
C138  C170  A    
C9    C117  A    
C171  C182  A    
C78   C190  A    
C11   C119  A    
C132  C164  A    
C135  F15   S    
C47   C49   A    
C179  Br21  S    
C81   C120  S    
C48   C137  A    
C83   C118  S    
C104  O42   A    
C7    C71   A    
C138  F18   S    
C36   C149  A    
C152  F32   S    
C155  C166  A    
C168  Br34  S    
C39   C57   A    
C46   C52   A    
C3    C67   A    
C7    C115  A    
C72   C188  A    
C87   C114  S    
C99   O31   A    
C12   C120  A    
C14   C118  A    
C52   C94   S    
C20   C133  A    
C152  C184  A    
C137  C169  A    
C161  Br39  S    
O4    Zn8   S    
C56   C90   S    
C101  O43   A    
C140  C172  A    
C102  O44   A    
C141  C173  A    
C122  C154  A    
C9    C73   A    
C82   O10   A    
C67   H3    S    
O19   Zn2   S    
C93   O25   A    
C20   C29   A    
C126  C158  A    
O21   Zn16  S    
C13   C77   A    
O22   Zn15  S    
O49   Zn7   S    
O13   Zn4   S    
O50   Zn8   S    
O2    Zn11  S    
O14   Zn3   S    
O3    Zn10  S    
C150  F30   S    
C136  C168  A    
C147  F27   S    
C10   C118  A    
C72   H8    S    
C87   O19   A    
C17   C136  A    
C36   C45   A    
C133  F13   S    
C50   C92   S    
C40   C41   A    
C100  O38   A    
C167  Br33  S    
O16   Zn5   S    
C124  C156  A    
C164  Br38  S    
C127  C159  A    
C98   O30   A    
C128  C160  A    
C135  C167  A    
C89   O47   A    
C54   C96   S    
C90   O48   A    
C91   O45   A    
C33   C152  A    
C7    Br7   S    
C34   C151  A    
C76   H12   S    
C126  F6    S    
O30   Zn12  S    
C160  C161  A    
C30   C62   A    
C20   C52   A    
C27   C59   A    
O27   Zn14  S    
C21   C53   A    
C10   C74   A    
C178  Br24  S    
C14   C78   A    
C19   C51   A    
C145  C177  A    
C106  C189  S    
C174  C179  A    
C157  Br43  S    
C1    Br1   S    
