data_mof_unit_65977.cif
_audit_creation_date              2012-12-10T17:59:44-0500
_audit_creation_method            fapswitch 2.2
_symmetry_space_group_name_H-M    P1
_symmetry_Int_Tables_number       1
_space_group_crystal_system       triclinic
_cell_length_a                    18.605405
_cell_length_b                    18.711653
_cell_length_c                    18.705522
_cell_angle_alpha                 109.45575
_cell_angle_beta                  109.732014
_cell_angle_gamma                 109.247658
_cell_volume                      5011.60324416

loop_
_atom_site_label
_atom_site_type_symbol
_atom_type_description
_atom_site_fract_x
_atom_site_fract_y
_atom_site_fract_z
_atom_type_partial_charge
C1    C     C_R   0.623099 0.620200 0.502848 0.853739
C2    C     C_R   0.692001 0.686130 0.504906 -0.084176
C3    C     C_R   0.665405 0.469937 0.741847 0.066067
C4    C     C_R   0.378819 0.499368 0.379081 0.868071
C5    C     C_R   0.731203 0.470004 0.805865 -0.192766
C6    C     C_R   0.815017 0.499083 0.815307 -0.089840
C7    C     C_R   0.834971 0.527872 0.761178 -0.218968
C8    C     C_R   0.771433 0.528690 0.696789 0.071349
C9    C     C_R   0.686975 0.500028 0.687856 -0.077238
C10   C     C_R   0.237974 0.316978 0.491159 -0.184829
C11   C     C_R   0.173063 0.251633 0.488679 -0.199246
C12   C     C_3   0.174399 0.427746 0.215241 -0.156111
C13   C     C_R   0.186773 0.185862 0.499424 -0.019039
C14   C     C_R   0.263893 0.183622 0.510030 -0.193706
C15   C     C_R   0.327262 0.247055 0.508898 -0.205261
C16   C     C_R   0.380133 0.379888 0.500354 0.853105
C17   C     C_R   0.314348 0.313898 0.500545 0.006308
C18   C     C_R   0.002814 0.620163 0.123010 0.861332
C19   C     C_R   0.124805 0.499872 0.124270 0.870593
C20   C     C_R   0.004705 0.379755 0.884237 0.878089
C21   C     C_R   0.882378 0.499704 0.882361 0.888219
C22   C     C_R   0.000550 0.879528 0.380436 0.850964
C23   C     C_3   0.230315 0.499504 0.312969 -0.188435
C24   C     C_R   0.879786 0.878890 0.498760 0.868414
C25   C     C_R   0.001580 0.122171 0.619440 0.862624
C26   C     C_R   0.120425 0.119620 0.499435 0.847071
C27   C     C_R   0.003024 0.758031 0.180390 -0.186431
C28   C     C_R   0.620683 0.499951 0.621032 0.849629
C29   C     C_R   0.000910 0.821174 0.243032 -0.185862
C30   C     C_R   0.000324 0.813076 0.314445 -0.008124
C31   C     C_R   0.999981 0.741595 0.322943 -0.194430
C32   C     C_R   0.999403 0.677122 0.258929 -0.189426
C33   C     C_R   0.001792 0.686075 0.188401 -0.009228
C34   C     C_3   0.312059 0.499157 0.311636 -0.014720
C35   C     C_R   0.083683 0.329815 0.818198 -0.221157
C36   C     C_R   0.085065 0.268241 0.752829 0.164127
C37   C     C_R   0.004606 0.190679 0.686271 -0.040905
C38   C     C_R   0.925669 0.175997 0.685564 -0.227282
C39   C     C_R   0.925818 0.237376 0.751790 -0.190059
C40   C     C_3   0.328809 0.570455 0.286917 0.153133
C41   C     C_R   0.004718 0.314125 0.817510 -0.051364
C42   C     C_3   0.246789 0.571802 0.287713 -0.180055
C43   C     C_3   0.192096 0.499865 0.191029 0.000546
C44   C     C_3   0.273790 0.499406 0.189288 -0.187501
C45   C     C_R   0.762431 0.762549 0.584265 0.108742
C46   C     C_3   0.257245 0.427438 0.214872 -0.192322
C47   C     C_3   0.572350 0.437567 0.728484 -0.395985
C48   C     C_3   0.554116 0.400963 0.786714 -0.372652
C49   C     C_3   0.458680 0.368917 0.765498 -0.874096
C50   C     C_3   0.796969 0.563252 0.641284 -0.421011
C51   C     C_3   0.790000 0.492083 0.564301 -0.313100
C52   C     C_3   0.810703 0.525921 0.505837 -0.881025
C53   C     C_3   0.419262 0.650647 0.331254 -0.438325
C54   C     C_3   0.415651 0.708948 0.290508 -0.331729
C55   C     C_3   0.505056 0.791288 0.338398 -0.881511
C56   C     C_R   0.820504 0.826578 0.578554 -0.229876
C57   C     C_3   0.172128 0.288735 0.755054 -0.444954
C58   C     C_3   0.176149 0.311339 0.684347 -0.329716
C59   C     C_3   0.181402 0.399422 0.703313 -0.837994
C60   C     C_3   0.779055 0.777641 0.674975 -0.418567
C61   C     C_3   0.873289 0.800577 0.734741 -0.372091
C62   C     C_3   0.882755 0.794805 0.816686 -0.883708
C63   C     C_3   0.743380 0.711304 0.332137 -0.410354
C64   C     C_3   0.673724 0.724647 0.274725 -0.324140
C65   C     C_3   0.672327 0.706771 0.188372 -0.873300
C66   C     C_R   0.813927 0.811870 0.497898 -0.071996
C67   C     C_R   0.747673 0.733323 0.419678 0.093026
C68   C     C_R   0.685698 0.671755 0.424105 -0.252096
H1    H     H_    0.718678 0.448616 0.849561 0.152177
H2    H     H_    0.864456 0.225728 0.751049 0.153411
H3    H     H_    0.289849 0.499743 0.137335 0.129216
H4    H     H_    0.262802 0.368391 0.186826 0.152313
H5    H     H_    0.214302 0.499184 0.364951 0.139764
H6    H     H_    0.872632 0.887964 0.637486 0.145240
H7    H     H_    0.240925 0.630729 0.315361 0.125079
H8    H     H_    0.632313 0.611937 0.364039 0.155713
H9    H     H_    0.443623 0.422977 0.774897 0.263794
H10   H     H_    0.413005 0.314548 0.696761 0.270936
H11   H     H_    0.447913 0.344706 0.809759 0.245996
H12   H     H_    0.900204 0.549625 0.768899 0.159244
H13   H     H_    0.566600 0.345171 0.776060 0.225548
H14   H     H_    0.597838 0.452910 0.856836 0.223160
H15   H     H_    0.558759 0.492696 0.740515 0.223401
H16   H     H_    0.525024 0.385401 0.658870 0.188598
H17   H     H_    0.763058 0.545934 0.477974 0.275480
H18   H     H_    0.878509 0.582787 0.544049 0.257079
H19   H     H_    0.805859 0.473458 0.450991 0.244659
H20   H     H_    0.837130 0.470537 0.589664 0.213048
H21   H     H_    0.722482 0.434566 0.524228 0.243217
H22   H     H_    0.755749 0.590314 0.616571 0.199537
H23   H     H_    0.228115 0.368714 0.484054 0.133371
H24   H     H_    0.865973 0.618354 0.682673 0.197427
H25   H     H_    0.524286 0.830902 0.407820 0.263812
H26   H     H_    0.556154 0.773807 0.336559 0.258022
H27   H     H_    0.501376 0.831277 0.306224 0.247901
H28   H     H_    0.396032 0.672334 0.220399 0.220625
H29   H     H_    0.366030 0.728366 0.294128 0.225744
H30   H     H_    0.442241 0.688144 0.402207 0.213494
H31   H     H_    0.466362 0.628503 0.324380 0.191073
H32   H     H_    0.001409 0.876886 0.236866 0.143492
H33   H     H_    0.998985 0.735361 0.378213 0.139974
H34   H     H_    0.113245 0.253370 0.480346 0.147816
H35   H     H_    0.120956 0.397832 0.702573 0.267791
H36   H     H_    0.239850 0.452297 0.768181 0.252005
H37   H     H_    0.187450 0.414025 0.652069 0.240202
H38   H     H_    0.235666 0.314050 0.681531 0.222074
H39   H     H_    0.117561 0.259780 0.619252 0.209204
H40   H     H_    0.228220 0.344351 0.820219 0.191664
H41   H     H_    0.183758 0.232903 0.747162 0.198099
H42   H     H_    0.864352 0.116175 0.634679 0.149155
H43   H     H_    0.109359 0.369006 0.184135 0.148848
H44   H     H_    0.866351 0.840257 0.854539 0.265358
H45   H     H_    0.274211 0.132303 0.517693 0.149493
H46   H     H_    0.838455 0.727125 0.798468 0.266545
H47   H     H_    0.951687 0.813043 0.858887 0.250733
H48   H     H_    0.890861 0.755423 0.698393 0.226310
H49   H     H_    0.920934 0.868221 0.755965 0.224300
H50   H     H_    0.767914 0.831867 0.705852 0.201901
H51   H     H_    0.733624 0.719154 0.671502 0.225818
H52   H     H_    0.737197 0.752331 0.200971 0.271434
H53   H     H_    0.656838 0.638362 0.151130 0.258094
H54   H     H_    0.621061 0.716511 0.148018 0.243948
H55   H     H_    0.607589 0.679658 0.260244 0.210732
H56   H     H_    0.386773 0.245100 0.516130 0.138155
H57   H     H_    0.688044 0.792967 0.309972 0.238107
H58   H     H_    0.808391 0.750952 0.340949 0.203270
H59   H     H_    0.726958 0.642038 0.297760 0.192393
H60   H     H_    0.004323 0.764462 0.125299 0.143676
H61   H     H_    0.998681 0.621321 0.265027 0.140830
H62   H     H_    0.144129 0.390252 0.869769 0.145657
O1    O     O_R   0.592040 0.539900 0.448690 -0.624503
O2    O     O_R   0.948580 0.908330 0.356880 -0.626070
O3    O     O_R   0.960490 0.908280 0.552000 -0.624095
O4    O     O_R   0.591220 0.643330 0.551330 -0.629876
O5    O     O_R   0.856260 0.908310 0.447800 -0.621395
O6    O     O_R   0.051420 0.091500 0.642940 -0.631308
O7    O     O_R   0.947190 0.091540 0.538750 -0.621485
O8    O     O_R   0.143740 0.091510 0.552020 -0.627014
O9    O     O_R   0.039510 0.091550 0.447830 -0.623332
O10   O     O_R   0.408100 0.448290 0.356370 -0.625285
O11   O     O_R   0.407270 0.551710 0.459000 -0.625760
O12   O     O_R   0.054890 0.643310 0.094620 -0.623021
O13   O     O_R   0.408780 0.356670 0.448670 -0.619753
O14   O     O_R   0.407960 0.460100 0.551310 -0.625426
O15   O     O_R   0.592730 0.448290 0.541000 -0.622192
O16   O     O_R   0.591900 0.551710 0.643630 -0.637351
O17   O     O_R   0.951430 0.539890 0.094630 -0.624835
O18   O     O_R   0.044450 0.448260 0.096050 -0.627312
O19   O     O_R   0.147910 0.551670 0.096030 -0.631657
O20   O     O_R   0.952840 0.356630 0.912840 -0.624794
O21   O     O_R   0.056290 0.460040 0.912820 -0.628174
O22   O     O_R   0.859820 0.448260 0.911420 -0.630198
O23   O     O_R   0.963280 0.551670 0.911400 -0.627134
O24   O     O_R   0.052810 0.908290 0.461080 -0.620732
Zn1   Zn    Zn3+2 0.500550 0.430940 0.431470 0.935634
Zn2   Zn    Zn3+2 0.499450 0.569060 0.568530 0.927893
Zn3   Zn    Zn3+2 0.934780 0.430920 0.003740 0.937359
Zn4   Zn    Zn3+2 0.072940 0.569020 0.003710 0.934982
Zn5   Zn    Zn3+2 0.069600 0.999890 0.569480 0.933148
Zn6   Zn    Zn3+2 0.930400 0.999940 0.430340 0.940087

loop_
_geom_bond_atom_site_label_1
_geom_bond_atom_site_label_2
_ccdc_geom_bond_type
C24   O3    A    
C45   C60   S    
O20   Zn3   S    
C27   C29   A    
C35   C36   A    
C55   H25   S    
C20   C41   S    
C7    C8    A    
C39   C41   A    
C53   C54   S    
C27   C33   A    
C12   C23   S    
C28   O15   A    
C59   H37   S    
C23   C42   S    
C60   H51   S    
C34   C40   S    
C59   H36   S    
C31   H33   S    
C36   C37   A    
C16   O14   A    
O12   Zn4   S    
C58   H39   S    
C12   C43   S    
C2    C68   A    
C39   H2    S    
C30   C31   A    
C56   C66   A    
C10   C17   A    
C49   H10   S    
C44   H3    S    
C1    C2    S    
C21   O22   A    
O23   Zn4   S    
C25   O6    A    
C5    H1    S    
C25   C37   S    
C54   C55   S    
O6    Zn5   S    
O8    Zn5   S    
C50   H22   S    
C57   H41   S    
C47   C48   S    
C45   C56   A    
C20   O20   A    
C16   C17   S    
C19   C43   S    
C54   H29   S    
C60   H50   S    
C34   C46   S    
C65   H53   S    
C38   H42   S    
C29   C30   A    
O19   Zn4   S    
C54   H28   S    
C29   H32   S    
C24   C66   S    
C40   C42   S    
C66   C67   A    
C13   C14   A    
C52   H18   S    
C23   H5    S    
C55   H26   S    
C32   H61   S    
C44   C46   S    
C4    C34   S    
C2    C45   A    
C38   C39   A    
C63   C67   S    
C56   H6    S    
C15   H56   S    
C61   H49   S    
C51   C52   S    
O21   Zn4   S    
C18   O12   A    
C16   O13   A    
O4    Zn2   S    
C55   H27   S    
C18   O17   A    
C4    O11   A    
C8    C9    A    
C3    C5    A    
C58   C59   S    
C47   H16   S    
C6    C21   S    
C53   H31   S    
C67   C68   A    
C60   C61   S    
O3    Zn5   S    
O14   Zn2   S    
C25   O7    A    
C43   C44   S    
C37   C38   A    
C3    C9    A    
C4    O10   A    
C27   H60   S    
O13   Zn1   S    
C31   C32   A    
C48   H14   S    
C40   C44   S    
C23   C34   S    
C61   H48   S    
C50   C51   S    
C42   H7    S    
C62   H44   S    
O2    Zn6   S    
C65   H54   S    
C35   H62   S    
C24   O5    A    
C12   C46   S    
C48   C49   S    
C10   H23   S    
C26   O9    A    
C47   H15   S    
C13   C26   S    
C42   C43   S    
C1    O4    A    
O17   Zn3   S    
C8    C50   S    
C64   H57   S    
C36   C57   S    
C22   O24   A    
C50   H24   S    
C15   C17   A    
O22   Zn3   S    
C52   H17   S    
O5    Zn6   S    
C22   C30   S    
O7    Zn6   S    
C22   O2    A    
C46   H4    S    
C52   H19   S    
C26   O8    A    
C51   H20   S    
O9    Zn6   S    
O11   Zn2   S    
C62   H46   S    
C6    C7    A    
C53   H30   S    
C68   H8    S    
C14   H45   S    
C28   O16   A    
C19   O18   A    
C20   O21   A    
C59   H35   S    
C32   C33   A    
O1    Zn1   S    
C48   H13   S    
O24   Zn5   S    
C64   C65   S    
C11   C13   A    
C57   C58   S    
C5    C6    A    
C1    O1    A    
C3    C47   S    
C19   O19   A    
C65   H52   S    
C49   H9    S    
C11   H34   S    
O18   Zn3   S    
C61   C62   S    
C35   C41   A    
C18   C33   S    
C63   H59   S    
C63   H58   S    
C10   C11   A    
O10   Zn1   S    
C63   C64   S    
O15   Zn1   S    
C64   H55   S    
C49   H11   S    
C62   H47   S    
C57   H40   S    
O16   Zn2   S    
C40   C53   S    
C21   O23   A    
C14   C15   A    
C58   H38   S    
C12   H43   S    
C51   H21   S    
C9    C28   S    
C7    H12   S    
