data_mof_unit_23388.cif
_audit_creation_date              2013-03-05T15:40:40-0500
_audit_creation_method            fapswitch 2.2
_symmetry_space_group_name_H-M    P1
_symmetry_Int_Tables_number       1
_space_group_crystal_system       triclinic
_cell_length_a                    7.409365
_cell_length_b                    8.726087
_cell_length_c                    15.919373
_cell_angle_alpha                 94.328085
_cell_angle_beta                  75.015644
_cell_angle_gamma                 102.889206
_cell_volume                      969.039418476

loop_
_atom_site_label
_atom_site_type_symbol
_atom_site_description
_atom_site_fract_x
_atom_site_fract_y
_atom_site_fract_z
_atom_type_partial_charge
O1    O     O_R   0.384450 0.714270 0.493720 -0.583778
O2    O     O_R   0.615550 0.285730 0.506280 -0.583800
O3    O     O_R   0.684880 0.742590 0.510050 -0.524810
O4    O     O_R   0.315120 0.257410 0.489950 -0.524826
C1    C     C_R   0.543120 0.799646 0.504046 0.841642
C2    C     C_R   0.456880 0.200354 0.495954 0.841547
O5    O     O_R   0.265540 0.477900 0.617090 -0.604695
O6    O     O_R   0.734460 0.522100 0.382910 -0.604675
O7    O     O_R   0.565970 0.506210 0.633420 -0.510725
O8    O     O_R   0.434030 0.493790 0.366580 -0.510653
C3    C     C_R   0.384803 0.494218 0.666287 0.850366
C4    C     C_R   0.615195 0.505771 0.333711 0.850262
Cu1   Cu    Cu3+1 0.322120 0.483240 0.490330 1.108685
Cu2   Cu    Cu3+1 0.677880 0.516760 0.509670 1.108669
C5    C     C_R   0.315480 0.482476 0.761515 -0.135469
C6    C     C_R   0.684521 0.517479 0.238478 -0.135631
C7    C     C_R   0.095489 0.329141 0.879654 -0.168879
C8    C     C_R   0.904686 0.670679 0.120317 -0.168871
C9    C     C_R   0.137190 0.386455 0.796367 -0.155479
C10   C     C_R   0.862906 0.613373 0.203614 -0.155240
C11   C     C_R   0.441338 0.543214 0.815553 0.280819
C12   C     C_R   0.558638 0.456835 0.184435 0.280749
C13   C     C_R   0.394812 0.491983 0.902988 -0.027176
C14   C     C_R   0.605303 0.507991 0.096984 -0.027126
C15   C     C_R   0.228866 0.371684 0.930024 0.100837
C16   C     C_R   0.771315 0.628210 0.069941 0.100783
C17   C     C_R   0.513891 0.544410 0.962153 0.067179
C18   C     C_R   0.486252 0.455570 0.037814 0.067238
C19   C     C_R   0.343145 0.316457 0.050466 -0.116662
C20   C     C_R   0.657043 0.683505 0.949506 -0.116594
C21   C     C_R   0.206567 0.284003 0.002797 -0.181857
C22   C     C_R   0.793657 0.715895 0.997163 -0.181938
H1    H     H_    0.090465 0.182073 0.019097 0.146827
H2    H     H_    0.909803 0.817795 0.980860 0.146850
H3    H     H_    0.961352 0.658319 0.243920 0.212835
H4    H     H_    0.038770 0.341438 0.756058 0.212704
H5    H     H_    0.964834 0.242157 0.902209 0.158088
H6    H     H_    0.035407 0.757594 0.097758 0.158103
H7    H     H_    0.334669 0.228709 0.096139 0.194802
H8    H     H_    0.665535 0.771299 0.903859 0.194879
C23   C     C_2   0.553094 0.964873 0.518019 0.036603
C24   C     C_2   0.446906 0.035127 0.481980 0.036571
N1    N     N_2   0.945180 0.542040 0.524240 -0.179131
N2    N     N_2   0.054820 0.457960 0.475760 -0.179109
H9    H     H_    0.004412 0.614823 0.568445 0.261146
H10   H     H_    0.995588 0.385177 0.431554 0.261148
N3    N     N_R   0.373725 0.363436 0.223156 0.097551
O9    O     O_R   0.221178 0.419860 0.231907 -0.358247
O10   O     O_R   0.359730 0.230454 0.258836 -0.333255
N4    N     N_R   0.626029 0.636937 0.776839 0.097441
O11   O     O_R   0.639556 0.769848 0.741204 -0.333186
O12   O     O_R   0.778839 0.580869 0.768015 -0.358220
N5    N     N_R   0.651456 0.043042 0.581798 0.136623
O13   O     O_R   0.826224 0.031719 0.576466 -0.269266
O14   O     O_R   0.557928 0.106535 0.651346 -0.344445
N6    N     N_R   0.348545 0.956959 0.418201 0.136569
O15   O     O_R   0.173778 0.968284 0.423532 -0.269267
O16   O     O_R   0.442074 0.893467 0.348653 -0.344502

loop_
_geom_bond_atom_site_label_1
_geom_bond_atom_site_label_2
_geom_bond_distance
_ccdc_geom_bond_type
C15   C21   1.390403 A    
O5    Cu1   1.953977 S    
N4    O12   1.302134 A    
O7    Cu2   1.930187 S    
C21   H1    1.084681 S    
C16   C22   1.390417 A    
C13   C17   1.435085 A    
C20   C22   1.384623 A    
N1    H9    1.029123 S    
C23   C24   1.351183 D    
N3    O9    1.302247 A    
C8    C16   1.399483 A    
O6    C4    1.303647 A    
N1    N2    1.284560 D    
C7    C15   1.399481 A    
C19   H7    1.076041 S    
C13   C15   1.420461 A    
N4    O11   1.301934 A    
C8    H6    1.084346 S    
O3    C1    1.285556 A    
C20   H8    1.076010 S    
N3    O10   1.302024 A    
C7    H5    1.084334 S    
Cu1   Cu2   2.681550 S    
C17   C20   1.410975 A    
O5    C3    1.303616 A    
O7    C3    1.291891 A    
C23   N5    1.443474 S    
O2    C2    1.286425 A    
O3    Cu2   1.959287 S    
O8    C4    1.291892 A    
O1    C1    1.286425 A    
O4    C2    1.285555 A    
C18   C19   1.410914 A    
C7    C9    1.386680 A    
N6    O16   1.301901 A    
C12   N3    1.436068 S    
C8    C10   1.386736 A    
C9    H4    1.083505 S    
N5    O14   1.301902 A    
C11   C13   1.425879 A    
O2    Cu2   1.965072 S    
C12   C14   1.425825 A    
O1    Cu1   1.965071 S    
C6    C12   1.419928 A    
C6    C10   1.397330 A    
C14   C18   1.434993 A    
C5    C11   1.419884 A    
N6    O15   1.301059 A    
C19   C21   1.384541 A    
C2    C24   1.430472 S    
O4    Cu1   1.959288 S    
C1    C23   1.430472 S    
C11   N4    1.435957 S    
O6    Cu2   1.953974 S    
N2    H10   1.029124 S    
C24   N6    1.443475 S    
C5    C9    1.397254 A    
C10   H3    1.083509 S    
C3    C5    1.473024 S    
Cu1   N2    2.014905 S    
C4    C6    1.473076 S    
N5    O13   1.301058 A    
C14   C16   1.420386 A    
Cu2   N1    2.014906 S    
C17   C18   1.426966 A    
O8    Cu1   1.930185 S    
C22   H2    1.084688 S    
