data_mof_unit_50123.cif
_audit_creation_date              2012-12-11T16:53:22-0500
_audit_creation_method            fapswitch 2.2
_symmetry_space_group_name_H-M    P1
_symmetry_Int_Tables_number       1
_space_group_crystal_system       triclinic
_cell_length_a                    14.917315
_cell_length_b                    14.755658
_cell_length_c                    16.935154
_cell_angle_alpha                 109.005392
_cell_angle_beta                  106.272972
_cell_angle_gamma                 107.934954
_cell_volume                      3038.46134979

loop_
_atom_site_label
_atom_site_type_symbol
_atom_type_description
_atom_site_fract_x
_atom_site_fract_y
_atom_site_fract_z
_atom_type_partial_charge
C1    C     C_R   0.090172 0.274588 0.047683 -0.132827
C2    C     C_R   0.063605 0.554098 0.263796 -0.121381
C3    C     C_R   0.279565 0.783473 0.173731 -0.142675
C4    C     C_R   0.935487 0.518930 0.746094 -0.136606
C5    C     C_R   0.698541 0.407014 0.996781 -0.098978
C6    C     C_R   0.337295 0.779551 0.250723 0.070990
C7    C     C_R   0.640089 0.439610 0.943413 0.071054
C8    C     C_R   0.971828 0.542661 0.274025 0.059019
C9    C     C_R   0.990224 0.825353 0.028526 0.022088
C10   C     C_R   0.395619 0.464631 0.874014 0.167982
C11   C     C_R   0.350972 0.419273 0.922667 0.026707
C12   C     C_R   0.026182 0.578314 0.743734 0.066715
C13   C     C_R   0.379661 0.344328 0.942631 -0.223157
C14   C     C_R   0.468264 0.336769 0.935388 -0.187520
C15   C     C_R   0.528640 0.405982 0.909952 0.028231
C16   C     C_R   0.756200 0.200265 0.809691 0.503762
C17   C     C_R   0.483720 0.458094 0.867796 0.154051
C18   C     C_3   0.529413 0.569225 0.878043 -0.505123
C19   C     C_3   0.433241 0.576513 0.884883 -0.528203
C20   C     C_R   0.965611 0.593237 0.362417 0.052573
C21   C     C_R   0.035458 0.616847 0.675315 0.127163
C22   C     C_R   0.141336 0.677537 0.601083 -0.221132
C23   C     C_R   0.740079 0.193922 0.722140 -0.099584
C24   C     C_R   0.133375 0.660707 0.675109 -0.172127
C25   C     C_R   0.946578 0.601154 0.604897 -0.272939
C26   C     C_R   0.953788 0.614437 0.528576 0.179839
C27   C     C_R   0.051310 0.648207 0.525462 0.189139
C28   C     C_R   0.255314 0.531788 0.946066 -0.140799
C29   C     C_R   0.056758 0.640898 0.443590 -0.281071
C30   C     C_R   0.870138 0.580144 0.369281 0.026777
C31   C     C_R   0.864844 0.588448 0.452852 -0.278331
C32   C     C_R   0.699889 0.099278 0.634212 0.140449
C33   C     C_R   0.445719 0.853068 0.314401 0.127161
C34   C     C_R   0.289902 0.461159 0.963740 0.065848
C35   C     C_R   0.578717 0.034633 0.389813 -0.224551
C36   C     C_R   0.492174 0.950790 0.313096 -0.173396
C37   C     C_R   0.497425 0.834070 0.385838 -0.276811
C38   C     C_R   0.580824 0.919306 0.464962 0.185782
C39   C     C_R   0.616599 0.021481 0.468514 0.179356
C40   C     C_R   0.774745 0.298123 0.734089 -0.194045
C41   C     C_R   0.678096 0.110510 0.552843 -0.248052
C42   C     C_R   0.680055 0.997566 0.629191 -0.196788
C43   C     C_R   0.619756 0.907255 0.544363 -0.214624
C44   C     C_R   0.104377 0.062108 0.977919 0.154446
C45   C     C_R   0.275492 0.688078 0.251111 -0.145649
C46   C     C_R   0.009745 0.068663 0.963532 -0.045323
C47   C     C_R   0.917675 0.972018 0.906301 -0.268667
C48   C     C_R   0.921154 0.877197 0.854853 0.526078
C49   C     C_R   0.017737 0.877829 0.861536 -0.137495
C50   C     C_R   0.107986 0.968388 0.928654 0.124621
C51   C     C_3   0.203137 0.025656 0.919930 -0.443196
C52   C     C_R   0.258719 0.441965 0.029152 -0.132195
C53   C     C_3   0.198904 0.128334 0.972581 -0.526207
C54   C     C_R   0.107399 0.603432 0.823436 -0.146640
C55   C     C_R   0.918351 0.190813 0.969948 -0.131943
C56   C     C_R   0.705094 0.501215 0.918249 -0.169718
C57   C     C_R   0.006216 0.173641 0.995170 0.081760
C58   C     C_R   0.778768 0.566327 0.294031 0.120547
C59   C     C_R   0.677777 0.490913 0.268229 -0.174930
C60   C     C_R   0.592171 0.481967 0.199788 -0.118788
C61   C     C_R   0.606465 0.548354 0.156948 -0.080395
C62   C     C_R   0.706387 0.622743 0.181380 -0.103285
C63   C     C_R   0.792166 0.632104 0.249755 -0.140710
C64   C     C_R   0.890447 0.467274 0.188119 -0.131883
C65   C     C_R   0.079520 0.808911 0.046346 -0.117910
C66   C     C_R   0.907294 0.724492 0.969889 -0.096722
H1    H     H_    0.168568 0.291344 0.088019 0.095991
H2    H     H_    0.496261 0.288846 0.962372 0.133695
H3    H     H_    0.600593 0.625310 0.943215 0.197467
H4    H     H_    0.857103 0.498901 0.701994 0.085421
H5    H     H_    0.535788 0.570535 0.814533 0.200254
H6    H     H_    0.450376 0.636676 0.953940 0.198885
H7    H     H_    0.384356 0.582204 0.825337 0.194389
H8    H     H_    0.132214 0.661213 0.442541 0.123588
H9    H     H_    0.216967 0.705232 0.599827 0.128237
H10   H     H_    0.791457 0.572481 0.458345 0.135044
H11   H     H_    0.203683 0.675536 0.728720 0.115365
H12   H     H_    0.682498 0.524025 0.864081 0.113899
H13   H     H_    0.870994 0.571279 0.605587 0.116827
H14   H     H_    0.698469 0.187863 0.553937 0.115925
H15   H     H_    0.706304 0.986974 0.690423 0.155965
H16   H     H_    0.608018 0.112329 0.391112 0.125986
H17   H     H_    0.596760 0.828905 0.542046 0.137010
H18   H     H_    0.456820 0.966673 0.257287 0.114116
H19   H     H_    0.465931 0.757354 0.385554 0.117704
H20   H     H_    0.842253 0.970746 0.895352 0.162662
H21   H     H_    0.271251 0.017583 0.959141 0.182529
H22   H     H_    0.189251 0.008136 0.847376 0.200715
H23   H     H_    0.808239 0.436476 0.170049 0.117049
H24   H     H_    0.265561 0.180217 0.041495 0.179134
H25   H     H_    0.262361 0.562195 0.897327 0.109930
H26   H     H_    0.180737 0.169252 0.929877 0.204711
H27   H     H_    0.773602 0.326451 0.682946 0.124107
H28   H     H_    0.278493 0.395580 0.062392 0.084122
H29   H     H_    0.186645 0.662895 0.851623 0.086912
H30   H     H_    0.839553 0.131025 0.938293 0.175264
H31   H     H_    0.299563 0.651685 0.293816 0.088982
H32   H     H_    0.665283 0.438787 0.300671 0.110727
H33   H     H_    0.514633 0.423845 0.180192 0.104958
H34   H     H_    0.158421 0.870042 0.089160 0.100239
H35   H     H_    0.540186 0.542313 0.104841 0.122925
H36   H     H_    0.717316 0.673613 0.147667 0.112106
H37   H     H_    0.868967 0.691331 0.268785 0.117662
H38   H     H_    0.637035 0.070637 0.772467 0.312093
H39   H     H_    0.845654 0.728982 0.763748 0.309760
H40   H     H_    0.826027 0.707041 0.941667 0.120459
H41   H     H_    0.142230 0.606576 0.314646 0.098057
H42   H     H_    0.307748 0.834372 0.143925 0.085177
H43   H     H_    0.669963 0.345887 0.017330 0.096370
H44   H     H_    0.343919 0.303111 0.975792 0.135053
N1    N     N_R   0.055640 0.348550 0.045600 -0.043988
N2    N     N_R   0.811290 0.303400 0.871650 -0.065549
N3    N     N_R   0.205180 0.552990 0.997660 -0.039853
N4    N     N_R   0.814810 0.361830 0.823710 -0.063359
N5    N     N_R   0.201660 0.494570 0.045600 -0.037093
N6    N     N_R   0.068420 0.560530 0.871650 -0.037771
N7    N     N_R   0.948050 0.295860 0.997660 -0.045002
N8    N     N_R   0.185190 0.638170 0.176290 -0.039886
N9    N     N_R   0.798340 0.505430 0.954400 -0.042384
N10   N     N_R   0.931580 0.439470 0.128350 -0.043098
N11   N     N_R   0.051950 0.704140 0.002340 -0.041769
N12   N     N_R   0.944360 0.651450 0.954400 -0.044617
N13   N     N_R   0.039170 0.492150 0.176290 -0.044243
N14   N     N_R   0.188710 0.696600 0.128350 -0.038114
N15   N     N_R   0.794820 0.447010 0.002340 -0.044311
N16   N     N_R   0.960830 0.507850 0.823710 -0.035631
Ni1   Ni    Ni4+2 0.119330 0.493420 0.109950 0.207236
Ni2   Ni    Ni4+2 0.880670 0.506580 0.890050 0.206261
Ni3   Ni    Ni4+2 0.872590 0.372590 0.000000 0.244234
Ni4   Ni    Ni4+2 0.127410 0.627410 0.000000 0.206785
O1    O     O_3   0.700748 0.123719 0.829211 -0.807960
O2    O     O_3   0.829067 0.787445 0.794306 -0.767124

loop_
_geom_bond_atom_site_label_1
_geom_bond_atom_site_label_2
_ccdc_geom_bond_type
C45   N8    A    
C6    C45   A    
C27   C29   A    
C43   H17   S    
C35   C39   A    
C35   C36   A    
C40   H27   S    
C60   H33   S    
C41   H14   S    
N2    N4    A    
C56   H12   S    
C39   C41   A    
C20   C30   A    
C2    N13   A    
C26   C27   A    
C8    C20   S    
C7    C56   A    
C37   H19   S    
C30   C31   A    
C10   C17   A    
C23   C40   A    
C2    H41   S    
C18   H5    S    
C33   C36   A    
N5    Ni1   S    
C18   C19   S    
C16   O1    S    
C9    C66   A    
C44   C53   S    
C40   N4    A    
C62   C63   A    
H38   O1    S    
C54   N6    A    
C32   C41   A    
C66   N12   A    
C52   H28   S    
C65   N11   A    
N2    Ni3   S    
C4    C12   A    
N7    Ni3   S    
N11   Ni4   S    
N10   N13   A    
N9    Ni2   S    
C3    C6    A    
C18   H3    S    
C7    C15   S    
C28   C34   A    
C59   C60   A    
N6    N16   A    
C13   C14   A    
C19   H6    S    
C42   H15   S    
C64   H23   S    
C66   H40   S    
C4    H4    S    
C35   H16   S    
C44   C46   A    
C50   C51   S    
H39   O2    S    
C20   C29   A    
N3    Ni4   S    
N10   Ni3   S    
C47   H20   S    
C19   H7    S    
C63   H37   S    
C28   N3    A    
C51   H21   S    
C5    C7    A    
C29   H8    S    
C25   C26   A    
C12   C21   S    
C33   C37   A    
C60   C61   A    
C51   C53   S    
C61   H35   S    
C37   C38   A    
C1    C57   A    
N4    Ni2   S    
N13   Ni1   S    
C47   C48   A    
C10   C19   S    
C53   H26   S    
C17   C18   S    
N11   N12   A    
N14   Ni4   S    
N8    N14   A    
C13   H44   S    
C54   H29   S    
C8    C64   A    
N9    N15   A    
C48   C49   A    
C16   C23   A    
C22   C27   A    
C55   C57   A    
C46   C57   S    
N1    Ni1   S    
C56   N9    A    
C22   C24   A    
N8    Ni1   S    
C22   H9    S    
C3    N14   A    
C16   N2    A    
C55   N7    A    
C52   N5    A    
C44   C50   A    
C58   C63   A    
C15   C17   A    
C21   C25   A    
C46   C47   A    
N16   Ni2   S    
C25   H13   S    
C11   C34   S    
C2    C8    A    
C14   H2    S    
C65   H34   S    
C55   H30   S    
C51   H22   S    
C3    H42   S    
C34   C52   A    
C64   N10   A    
C6    C33   S    
C4    N16   A    
N1    N7    A    
C23   C32   S    
C58   C59   A    
C38   C43   A    
C45   H31   S    
C1    N1    A    
C11   C13   A    
C31   H10   S    
C38   C39   A    
C5    H43   S    
C36   H18   S    
C30   C58   S    
C1    H1    S    
C28   H25   S    
N12   Ni2   S    
C61   C62   A    
C9    C65   A    
C10   C11   A    
N15   Ni3   S    
C24   H11   S    
C26   C31   A    
N6    Ni4   S    
C49   C50   A    
C42   C43   A    
C21   C24   A    
C5    N15   A    
C53   H24   S    
C59   H32   S    
C32   C42   A    
C14   C15   A    
C48   O2    S    
C62   H36   S    
C12   C54   A    
N3    N5    A    
