data_mof_unit_51521.cif
_audit_creation_date              2012-12-11T14:46:00-0500
_audit_creation_method            fapswitch 2.2
_symmetry_space_group_name_H-M    P1
_symmetry_Int_Tables_number       1
_space_group_crystal_system       triclinic
_cell_length_a                    10.882448
_cell_length_b                    10.945577
_cell_length_c                    18.782782
_cell_angle_alpha                 90.259137
_cell_angle_beta                  89.695327
_cell_angle_gamma                 119.885791
_cell_volume                      1939.75693566

loop_
_atom_site_label
_atom_site_type_symbol
_atom_type_description
_atom_site_fract_x
_atom_site_fract_y
_atom_site_fract_z
_atom_type_partial_charge
C1    C     C_R   0.868197 0.636031 0.605123 0.545172
C2    C     C_R   0.269911 0.548207 0.796247 -0.146048
C3    C     C_R   0.254490 0.533532 0.723579 -0.132881
C4    C     C_R   0.298136 0.652508 0.680336 0.026472
C5    C     C_R   0.862324 0.179439 0.826237 -0.044390
C6    C     C_R   0.066308 0.138891 0.814416 -0.083492
C7    C     C_R   0.147446 0.099309 0.773053 -0.129344
C8    C     C_R   0.122710 0.076671 0.700346 -0.121112
C9    C     C_R   0.020345 0.098776 0.668177 -0.085188
C10   C     C_R   0.938363 0.141166 0.708828 -0.001027
C11   C     C_R   0.955498 0.152996 0.783943 0.007813
C12   C     C_R   0.265565 0.629086 0.605312 0.547368
C13   C     C_R   0.738551 0.183276 0.720417 0.024696
C14   C     C_R   0.771966 0.218680 0.792265 0.014756
C15   C     C_R   0.609317 0.168863 0.695147 -0.077802
C16   C     C_R   0.532259 0.214402 0.735766 -0.138622
C17   C     C_R   0.580397 0.272401 0.802718 -0.114894
C18   C     C_R   0.700808 0.276809 0.830592 -0.067283
C19   C     C_R   0.835809 0.165984 0.676369 -0.036241
C20   C     C_R   0.707747 0.590584 0.707544 -0.130619
C21   C     C_R   0.690710 0.596375 0.780514 -0.124795
C22   C     C_R   0.809583 0.651246 0.825558 0.027724
C23   C     C_R   0.859375 0.224220 0.602979 0.539154
C24   C     C_R   0.944514 0.697231 0.797704 -0.130345
C25   C     C_R   0.961694 0.694866 0.725139 -0.114563
C26   C     C_R   0.844021 0.644474 0.679870 0.042485
C27   C     C_R   0.256395 0.538344 0.276228 -0.133903
C28   C     C_R   0.267906 0.553107 0.203561 -0.136603
C29   C     C_R   0.332757 0.687634 0.173638 0.022443
C30   C     C_R   0.371039 0.806420 0.216874 -0.140563
C31   C     C_R   0.353853 0.790584 0.290344 -0.147409
C32   C     C_R   0.301350 0.656712 0.320202 0.029543
C33   C     C_R   0.804411 0.294002 0.267607 -0.137332
C34   C     C_R   0.869102 0.637053 0.395897 0.539412
C35   C     C_R   0.793414 0.258857 0.196051 -0.129253
C36   C     C_R   0.857389 0.183650 0.169569 0.023614
C37   C     C_R   0.942927 0.155255 0.214105 -0.145521
C38   C     C_R   0.954807 0.191648 0.285718 -0.140927
C39   C     C_R   0.881730 0.257308 0.313134 0.026984
C40   C     C_R   0.964675 0.709780 0.276436 -0.128752
C41   C     C_R   0.948664 0.711168 0.203854 -0.137772
C42   C     C_R   0.812881 0.651623 0.175098 0.024283
C43   C     C_R   0.692657 0.580188 0.219138 -0.139410
C44   C     C_R   0.708986 0.577382 0.292328 -0.153846
C45   C     C_R   0.267520 0.631512 0.395140 0.539997
C46   C     C_R   0.845198 0.646473 0.321125 0.029269
C47   C     C_R   0.812563 0.109454 0.896625 0.531982
C48   C     C_R   0.393471 0.700681 0.897186 0.543658
C49   C     C_R   0.796711 0.690447 0.897414 0.541923
C50   C     C_R   0.809869 0.110340 0.101611 0.543484
C51   C     C_R   0.393205 0.704375 0.103061 0.544981
C52   C     C_R   0.797451 0.693071 0.104172 0.545655
C53   C     C_R   0.887675 0.291781 0.388463 0.558208
C54   C     C_R   0.349916 0.785762 0.710969 -0.154841
C55   C     C_R   0.368528 0.801159 0.784243 -0.141158
C56   C     C_R   0.333506 0.682534 0.826672 0.019989
Cr1   Cr    Cr6+3 0.791660 0.390250 0.499930 1.012323
Cr2   Cr    Cr6+3 0.098520 0.708290 0.500540 1.002262
Cr3   Cr    Cr6+3 0.109770 0.401430 0.499480 1.006444
Cr4   Cr    Cr6+3 0.874790 0.925890 0.000070 1.009503
Cr5   Cr    Cr6+3 0.574120 0.948670 0.999300 1.010413
Cr6   Cr    Cr6+3 0.551420 0.625320 0.000920 1.001843
H1    H     H_    0.377402 0.877023 0.678257 0.111592
H2    H     H_    0.436447 0.206666 0.714657 0.104018
H3    H     H_    0.564621 0.119339 0.644620 0.131827
H4    H     H_    0.522127 0.310132 0.833938 0.107800
H5    H     H_    0.616286 0.548334 0.672882 0.118981
H6    H     H_    0.585764 0.563721 0.801280 0.138916
H7    H     H_    0.037102 0.741242 0.831690 0.124837
H8    H     H_    0.067399 0.732527 0.704259 0.140872
H9    H     H_    0.210962 0.433279 0.297947 0.136924
H10   H     H_    0.235894 0.459869 0.171175 0.132336
H11   H     H_    0.421906 0.911572 0.194585 0.138787
H12   H     H_    0.417766 0.906166 0.806909 0.147686
H13   H     H_    0.383950 0.882108 0.323721 0.127292
H14   H     H_    0.749331 0.346242 0.287915 0.131910
H15   H     H_    0.727592 0.282801 0.162423 0.130412
H16   H     H_    0.992494 0.096621 0.194914 0.135626
H17   H     H_    0.016920 0.163888 0.319912 0.134213
H18   H     H_    0.586497 0.534286 0.197712 0.142282
H19   H     H_    0.616408 0.523950 0.326306 0.124355
H20   H     H_    0.240342 0.455273 0.828126 0.128292
H21   H     H_    0.207065 0.428233 0.701382 0.152322
H22   H     H_    0.229395 0.085532 0.797694 0.104352
H23   H     H_    0.183757 0.042858 0.668631 0.110835
H24   H     H_    0.094179 0.162044 0.869925 0.126791
H25   H     H_    0.002529 0.077693 0.611718 0.131740
H26   H     H_    0.734084 0.318832 0.883773 0.119641
O1    O     O_R   0.766500 0.250040 0.579790 -0.518054
O2    O     O_R   0.218690 0.701900 0.425960 -0.507136
O3    O     O_R   0.249490 0.516440 0.419420 -0.529932
O4    O     O_R   0.982880 0.281910 0.424890 -0.510225
O5    O     O_3   0.999980 0.499990 0.499980 -0.264437
O6    O     O_R   0.895110 0.806860 0.920430 -0.515500
O7    O     O_R   0.872260 0.046970 0.925000 -0.504134
O8    O     O_R   0.691430 0.085060 0.918550 -0.518116
O9    O     O_R   0.451490 0.822460 0.925250 -0.503677
O10   O     O_R   0.413330 0.603360 0.920440 -0.530381
O11   O     O_R   0.676110 0.626250 0.926750 -0.512706
O12   O     O_R   0.798570 0.516780 0.574780 -0.493781
O13   O     O_R   0.895350 0.809870 0.080950 -0.522960
O14   O     O_R   0.872490 0.049760 0.073800 -0.506174
O15   O     O_R   0.691680 0.088070 0.079070 -0.526656
O16   O     O_R   0.451720 0.825250 0.074050 -0.505005
O17   O     O_R   0.413580 0.606370 0.080960 -0.525953
O18   O     O_R   0.676340 0.629040 0.075550 -0.507167
O19   O     O_3   0.666780 0.833290 0.000090 -0.234453
O20   O     O_R   0.984000 0.732950 0.581090 -0.527601
O21   O     O_R   0.218600 0.700890 0.574760 -0.507110
O22   O     O_R   0.249390 0.515350 0.579940 -0.521031
O23   O     O_R   0.982790 0.280900 0.573700 -0.500607
O24   O     O_R   0.766600 0.251130 0.419260 -0.511339
O25   O     O_R   0.798660 0.517790 0.425980 -0.522081
O26   O     O_R   0.984100 0.734040 0.420570 -0.519907
H27   H     H_    0.071143 0.757938 0.297608 0.144115
H28   H     H_    0.042360 0.765564 0.170635 0.129450

loop_
_geom_bond_atom_site_label_1
_geom_bond_atom_site_label_2
_ccdc_geom_bond_type
C55   C56   A    
Cr2   O21   S    
C41   C42   A    
C14   C18   A    
C20   H5    S    
C35   C36   A    
C12   O22   A    
Cr5   O8    S    
C27   H9    S    
C7    C8    A    
Cr6   O17   S    
C39   C53   S    
C34   O25   A    
C40   C46   A    
C48   O9    A    
C5    C47   S    
C17   H4    S    
C33   C39   A    
Cr1   O1    S    
C28   C29   A    
Cr5   O15   S    
Cr2   O5    S    
C5    C11   A    
C30   C31   A    
C40   H27   S    
C38   H17   S    
C15   C16   A    
C15   H3    S    
Cr3   O22   S    
C8    H23   S    
C32   C45   S    
C33   C35   A    
Cr6   O10   S    
C55   H12   S    
C8    C9    A    
Cr3   O23   S    
C47   O8    A    
C23   O1    A    
C34   C46   S    
C49   O6    A    
C4    C12   S    
C29   C30   A    
C9    C10   A    
C7    H22   S    
C52   O18   A    
C50   O15   A    
Cr1   O5    S    
C21   C22   A    
C28   H10   S    
Cr4   O14   S    
C1    O12   A    
C12   O21   A    
C44   C46   A    
C24   H7    S    
C23   O23   A    
C52   O13   A    
C13   C19   A    
Cr5   O16   S    
C24   C25   A    
C44   H19   S    
C6    C11   A    
C30   H11   S    
C16   C17   A    
Cr1   O25   S    
Cr6   O19   S    
C51   O16   A    
Cr1   O12   S    
C35   H15   S    
C18   H26   S    
C19   C23   S    
C43   C44   A    
C37   C38   A    
C16   H2    S    
C49   O11   A    
C33   H14   S    
C31   H13   S    
C31   C32   A    
C10   C19   A    
C51   O17   A    
C53   O4    A    
C17   C18   A    
Cr3   O3    S    
C45   O2    A    
Cr2   O2    S    
C5    C14   A    
Cr4   O19   S    
C22   C49   S    
C53   O24   A    
C40   C41   A    
C50   O14   A    
C13   C15   A    
C21   H6    S    
C3    H21   S    
C1    C26   S    
C22   C24   A    
C2    H20   S    
C42   C43   A    
C41   H28   S    
C3    C4    A    
C36   C50   S    
C29   C51   S    
C48   C56   S    
C54   C55   A    
C36   C37   A    
C4    C54   A    
C27   C32   A    
Cr5   O9    S    
C6    C7    A    
Cr6   O18   S    
C34   O26   A    
C48   O10   A    
C37   H16   S    
C6    H24   S    
C2    C3    A    
C25   C26   A    
C2    C56   A    
C9    H25   S    
C38   C39   A    
C20   C26   A    
C43   H18   S    
Cr2   O20   S    
Cr3   O4    S    
C45   O3    A    
C10   C11   A    
C1    O20   A    
Cr6   O11   S    
Cr1   O24   S    
Cr4   O7    S    
C20   C21   A    
C54   H1    S    
Cr5   O19   S    
C27   C28   A    
Cr2   O26   S    
C47   O7    A    
C25   H8    S    
Cr3   O5    S    
C13   C14   A    
Cr4   O13   S    
C42   C52   S    
Cr4   O6    S    
