data_mof_unit_43182.cif
_audit_creation_date              2012-12-11T16:05:09-0500
_audit_creation_method            fapswitch 2.2
_symmetry_space_group_name_H-M    P1
_symmetry_Int_Tables_number       1
_space_group_crystal_system       triclinic
_cell_length_a                    10.67907
_cell_length_b                    10.654619
_cell_length_c                    16.857511
_cell_angle_alpha                 99.212855
_cell_angle_beta                  98.879854
_cell_angle_gamma                 61.200953
_cell_volume                      1652.52521989

loop_
_atom_site_label
_atom_site_type_symbol
_atom_type_description
_atom_site_fract_x
_atom_site_fract_y
_atom_site_fract_z
_atom_type_partial_charge
C1    C     C_R   0.355492 0.771341 0.397735 0.547944
C2    C     C_3   0.271787 0.746629 0.246722 -0.111179
C3    C     C_3   0.347946 0.801265 0.317094 0.056646
C4    C     C_R   0.406710 0.374193 0.357420 0.561203
C5    C     C_3   0.477647 0.749662 0.269685 -0.135001
C6    C     C_3   0.407671 0.900751 0.240010 -0.117380
C7    C     C_3   0.279213 0.949767 0.289776 -0.143812
C8    C     C_3   0.201413 0.897059 0.218315 -0.109453
C9    C     C_3   0.330426 0.847016 0.169064 0.059427
C10   C     C_3   0.433758 0.246605 0.770809 -0.101184
C11   C     C_3   0.362197 0.394425 0.737701 -0.116359
C12   C     C_3   0.736243 0.395007 0.254429 -0.107759
C13   C     C_3   0.326097 0.324406 0.656745 0.043411
C14   C     C_3   0.397907 0.177211 0.689172 -0.099624
C15   C     C_3   0.251781 0.213103 0.715390 -0.035581
C16   C     C_R   0.783862 0.373232 0.404963 0.534070
C17   C     C_3   0.179664 0.360681 0.681363 -0.120661
C18   C     C_3   0.215865 0.429189 0.764305 -0.109578
C19   C     C_3   0.287934 0.280733 0.796936 0.057046
C20   C     C_1   0.839970 0.332479 0.706791 -0.047160
C21   C     C_1   0.885745 0.297958 0.773753 -0.041993
C22   C     C_1   0.361970 0.755760 0.715283 -0.061817
C23   C     C_3   0.843771 0.338786 0.328547 0.060638
C24   C     C_1   0.330237 0.803084 0.783301 -0.047946
C25   C     C_R   0.959203 0.285512 0.102631 0.564470
C26   C     C_R   0.322116 0.303291 0.119196 0.549545
C27   C     C_R   0.296166 0.889165 0.087945 0.542348
C28   C     C_R   0.381312 0.712004 0.631115 0.554050
C29   C     C_R   0.939503 0.276585 0.855684 0.540483
C30   C     C_R   0.277684 0.252037 0.876906 0.547679
C31   C     C_R   0.283882 0.877253 0.860530 0.534993
C32   C     C_R   0.366115 0.345094 0.584113 0.545234
C33   C     C_R   0.776615 0.378674 0.629205 0.533468
C34   C     C_3   0.929783 0.193104 0.282236 -0.155433
C35   C     C_1   0.375618 0.362021 0.272587 -0.071229
C36   C     C_1   0.349610 0.344371 0.201405 -0.072056
C37   C     C_3   0.822948 0.247600 0.207057 -0.125291
C38   C     C_3   0.191672 0.107819 0.695850 -0.389006
C39   C     C_3   0.001649 0.482431 0.359912 -0.360872
C40   C     C_3   0.789508 0.600333 0.203529 -0.371912
C41   C     C_3   0.023546 0.253297 0.256647 -0.151840
C42   C     C_3   0.935799 0.398448 0.304336 0.003231
C43   C     C_3   0.830928 0.453245 0.230332 0.027372
C44   C     C_3   0.915976 0.307072 0.183137 0.052113
C45   C     C_3   0.400238 0.696847 0.197183 -0.147489
Cr1   Cr    Cr6+3 0.608340 0.611040 0.520430 1.005481
Cr2   Cr    Cr6+3 0.287650 0.601120 0.489350 0.994391
Cr3   Cr    Cr6+3 0.604040 0.287870 0.490280 1.012707
Cr4   Cr    Cr6+3 0.054020 0.052700 0.970850 1.018462
Cr5   Cr    Cr6+3 0.059230 0.375120 0.993390 1.010232
Cr6   Cr    Cr6+3 0.374950 0.061200 0.992340 1.013275
H1    H     H_    0.237657 0.043139 0.336084 0.113492
H2    H     H_    0.449110 0.595749 0.156682 0.112889
H3    H     H_    0.584041 0.690095 0.301894 0.144502
H4    H     H_    0.618380 0.447475 0.256005 0.097781
H5    H     H_    0.464380 0.962831 0.234820 0.137503
H6    H     H_    0.472125 0.073742 0.657186 0.136863
H7    H     H_    0.096490 0.149283 0.651471 0.135489
H8    H     H_    0.272969 0.006435 0.667035 0.165330
H9    H     H_    0.163047 0.088603 0.751375 0.116939
H10   H     H_    0.776218 0.185922 0.165485 0.136839
H11   H     H_    0.058973 0.512909 0.323511 0.149121
H12   H     H_    0.087566 0.952624 0.193971 0.138186
H13   H     H_    0.916582 0.582265 0.388543 0.143670
H14   H     H_    0.077214 0.415062 0.407319 0.153393
H15   H     H_    0.761239 0.684588 0.255105 0.105663
H16   H     H_    0.883125 0.597813 0.181158 0.158433
H17   H     H_    0.699416 0.629577 0.155441 0.156141
H18   H     H_    0.408680 0.469430 0.745123 0.112590
H19   H     H_    0.538973 0.200500 0.807268 0.148687
H20   H     H_    0.076769 0.407025 0.642841 0.128384
H21   H     H_    0.141593 0.532475 0.796318 0.141217
H22   H     H_    0.966245 0.090132 0.307901 0.120082
H23   H     H_    0.139376 0.209624 0.250841 0.108703
H24   H     H_    0.214647 0.684773 0.251542 0.126770
O1    O     O_R   0.751220 0.499230 0.435170 -0.529991
O2    O     O_R   0.412990 0.180750 0.091610 -0.505328
O3    O     O_R   0.366620 0.943130 0.065760 -0.505032
O4    O     O_R   0.477220 0.727600 0.436870 -0.504318
O5    O     O_R   0.160510 0.906330 0.879210 -0.510581
O6    O     O_R   0.930190 0.179050 0.889450 -0.480336
O7    O     O_R   0.909140 0.398170 0.896710 -0.498744
O8    O     O_R   0.186190 0.363460 0.918830 -0.510415
O9    O     O_R   0.401670 0.173200 0.913310 -0.507877
O10   O     O_R   0.356120 0.936130 0.900470 -0.506276
O11   O     O_3   0.162740 0.163010 0.985530 -0.310599
O12   O     O_R   0.297880 0.469080 0.560050 -0.514084
O13   O     O_R   0.258650 0.745120 0.411470 -0.527307
O14   O     O_R   0.297070 0.467240 0.395960 -0.519369
O15   O     O_R   0.488830 0.252610 0.387790 -0.505372
O16   O     O_R   0.724400 0.302390 0.420980 -0.513649
O17   O     O_R   0.752100 0.501210 0.612190 -0.515578
O18   O     O_R   0.478040 0.729440 0.600970 -0.493250
O19   O     O_R   0.259530 0.747110 0.588490 -0.504746
O20   O     O_R   0.489720 0.254590 0.564810 -0.513386
O21   O     O_R   0.725220 0.304230 0.585080 -0.495292
O22   O     O_3   0.500010 0.500010 0.500020 -0.285905
O23   O     O_R   0.171830 0.913880 0.057510 -0.526883
O24   O     O_R   0.940690 0.186050 0.054730 -0.494516
O25   O     O_R   0.920470 0.405720 0.075010 -0.517539
O26   O     O_R   0.196690 0.370460 0.084120 -0.510603

loop_
_geom_bond_atom_site_label_1
_geom_bond_atom_site_label_2
_ccdc_geom_bond_type
C27   O23   A    
C9    C45   S    
C31   O10   A    
Cr3   O20   S    
C34   C37   S    
C39   H14   S    
C41   C42   S    
C13   C32   S    
C35   C36   T    
C27   O3    A    
Cr6   O10   S    
C6    C9    S    
Cr1   O1    S    
C31   O5    A    
C11   C18   S    
C15   C19   S    
C39   H13   S    
C12   C23   S    
C9    C27   S    
C23   C42   S    
C7    H1    S    
C12   C43   S    
C3    C7    S    
C26   O26   A    
Cr1   O4    S    
Cr1   O17   S    
C30   O8    A    
C25   C44   S    
C28   O19   A    
C18   C19   S    
Cr4   O6    S    
C12   C37   S    
C14   H6    S    
C41   H23   S    
C38   H7    S    
C25   O24   A    
C40   C43   S    
C8    C9    S    
C40   H16   S    
C1    O13   A    
Cr4   O23   S    
C4    C35   S    
C45   H2    S    
Cr3   O15   S    
C13   C14   S    
Cr2   O14   S    
C34   C41   S    
Cr6   O11   S    
Cr5   O8    S    
C39   C42   S    
C4    O15   A    
C2    C45   S    
C18   H21   S    
C26   O2    A    
C5    H3    S    
C7    C8    S    
C10   C14   S    
C33   O17   A    
C8    H12   S    
C32   O12   A    
C21   C29   S    
Cr3   O16   S    
C28   O18   A    
C1    C3    S    
Cr2   O12   S    
C43   C44   S    
Cr6   O2    S    
C15   C38   S    
C29   O6    A    
Cr3   O22   S    
Cr4   O24   S    
C25   O25   A    
C10   C19   S    
C23   C34   S    
C17   C18   S    
C16   O16   A    
C38   H9    S    
C20   C33   S    
C10   H19   S    
C26   C36   S    
Cr1   O22   S    
C17   H20   S    
C16   C23   S    
C1    O4    A    
C41   C44   S    
C22   C24   T    
C42   C43   S    
C33   O21   A    
Cr5   O7    S    
C4    O14   A    
C15   C17   S    
C39   H11   S    
Cr3   O21   S    
C16   O1    A    
Cr4   O11   S    
C2    C8    S    
C6    H5    S    
C3    C5    S    
C37   H10   S    
C11   H18   S    
C6    C7    S    
Cr5   O25   S    
Cr2   O22   S    
Cr4   O5    S    
C13   C17   S    
Cr2   O13   S    
C37   C44   S    
C2    C3    S    
Cr6   O3    S    
C29   O7    A    
C11   C13   S    
C5    C6    S    
Cr1   O18   S    
C5    C45   S    
C40   H15   S    
Cr2   O19   S    
C30   O9    A    
C24   C31   S    
C12   H4    S    
C10   C11   S    
Cr5   O11   S    
C34   H22   S    
C38   H8    S    
C32   O20   A    
C20   C21   T    
Cr5   O26   S    
C40   H17   S    
C14   C15   S    
C22   C28   S    
C19   C30   S    
Cr6   O9    S    
C2    H24   S    
