data_mof_unit_63166.cif
_audit_creation_date              2012-12-11T15:43:20-0500
_audit_creation_method            fapswitch 2.2
_symmetry_space_group_name_H-M    P1
_symmetry_Int_Tables_number       1
_space_group_crystal_system       triclinic
_cell_length_a                    28.260935
_cell_length_b                    22.130931
_cell_length_c                    20.196647
_cell_angle_alpha                 89.957629
_cell_angle_beta                  49.885806
_cell_angle_gamma                 89.96371
_cell_volume                      9660.320789

loop_
_atom_site_label
_atom_site_type_symbol
_atom_type_description
_atom_site_fract_x
_atom_site_fract_y
_atom_site_fract_z
_atom_type_partial_charge
C1    C     C_R   0.912976 0.578315 0.742988 0.600314
C2    C     C_1   0.806005 0.353809 0.518457 -0.051844
C3    C     C_3   0.952270 0.404071 0.809762 -0.222934
C4    C     C_3   0.453637 0.096784 0.808790 -0.225991
C5    C     C_3   0.643029 0.943642 0.110581 -0.131501
C6    C     C_3   0.520585 0.063107 0.235808 -0.136670
C7    C     C_3   0.372308 0.936130 0.884638 -0.120329
C8    C     C_1   0.802616 0.643802 0.525260 -0.055059
C9    C     C_1   0.134372 0.321582 0.574572 -0.065107
C10   C     C_1   0.633455 0.178712 0.575427 -0.065237
C11   C     C_1   0.306096 0.853704 0.518268 -0.052196
C12   C     C_1   0.302494 0.143687 0.525533 -0.054857
C13   C     C_1   0.633164 0.820951 0.576066 -0.047041
C14   C     C_2   0.182123 0.758903 0.610394 -0.165519
C15   C     C_2   0.706018 0.306383 0.558596 -0.165187
C16   C     C_2   0.702688 0.691976 0.565716 -0.167220
C17   C     C_R   0.092260 0.423507 0.255205 0.583381
C18   C     C_2   0.182906 0.243020 0.611781 -0.168328
C19   C     C_2   0.682860 0.258188 0.609774 -0.168053
C20   C     C_2   0.206114 0.806510 0.558087 -0.167937
C21   C     C_2   0.202638 0.192202 0.566203 -0.164818
C22   C     C_2   0.682056 0.742247 0.612555 -0.165180
C23   C     C_1   0.759307 0.333950 0.538033 0.041814
C24   C     C_1   0.152163 0.715309 0.597276 0.042955
C25   C     C_1   0.153933 0.286046 0.596067 0.038212
C26   C     C_1   0.755768 0.663848 0.545375 0.040123
C27   C     C_1   0.259427 0.833897 0.537683 0.042581
C28   C     C_R   0.090717 0.578053 0.256063 0.591305
C29   C     C_1   0.653181 0.214615 0.596153 0.038860
C30   C     C_1   0.652821 0.785313 0.597321 0.042428
C31   C     C_1   0.255646 0.163831 0.545766 0.039575
C32   C     C_R   0.890643 0.428464 0.445749 -0.118025
C33   C     C_R   0.094693 0.578729 0.576917 -0.100705
C34   C     C_R   0.095970 0.421798 0.575195 -0.142336
C35   C     C_R   0.888425 0.570092 0.449740 -0.174040
C36   C     C_R   0.390691 0.928400 0.445671 -0.118469
C37   C     C_R   0.595568 0.078314 0.575731 -0.141099
C38   C     C_R   0.595062 0.921366 0.576435 -0.101240
C39   C     C_R   0.912237 0.421026 0.742725 0.610116
C40   C     C_R   0.388326 0.069996 0.449917 -0.174772
C41   C     C_R   0.890348 0.640676 0.526603 -0.117381
C42   C     C_R   0.092125 0.349375 0.502170 -0.120926
C43   C     C_R   0.091266 0.650926 0.503195 -0.119754
C44   C     C_R   0.891797 0.358151 0.523765 -0.113710
C45   C     C_R   0.390332 0.140656 0.526599 -0.114017
C46   C     C_R   0.591601 0.849163 0.502850 -0.122903
C47   C     C_R   0.591769 0.150723 0.502549 -0.117566
C48   C     C_R   0.391790 0.858149 0.523819 -0.117063
C49   C     C_R   0.907595 0.351401 0.668383 -0.236827
C50   C     C_R   0.413116 0.079138 0.742375 0.611874
C51   C     C_R   0.097066 0.646072 0.330663 -0.241598
C52   C     C_R   0.096412 0.353621 0.331211 -0.209987
C53   C     C_R   0.908552 0.648838 0.668254 -0.216963
C54   C     C_R   0.407915 0.851441 0.668301 -0.216541
C55   C     C_R   0.596539 0.146402 0.330963 -0.240512
C56   C     C_R   0.596959 0.853954 0.330934 -0.211195
C57   C     C_R   0.408219 0.148882 0.668332 -0.237022
C58   C     C_R   0.887443 0.634805 0.749875 -0.091105
C59   C     C_R   0.120018 0.368414 0.248562 -0.082394
C60   C     C_R   0.120129 0.631115 0.248233 -0.071384
C61   C     C_R   0.592846 0.923951 0.254989 0.582170
C62   C     C_R   0.885790 0.365622 0.750206 -0.093163
C63   C     C_R   0.386878 0.134714 0.750006 -0.094564
C64   C     C_R   0.620935 0.869063 0.248145 -0.081582
C65   C     C_R   0.619295 0.131753 0.248663 -0.071938
C66   C     C_R   0.386355 0.865507 0.750069 -0.090909
C67   C     C_R   0.861307 0.377655 0.495118 0.083011
C68   C     C_R   0.111782 0.637110 0.547705 0.071405
C69   C     C_R   0.113511 0.363542 0.545508 0.081312
C70   C     C_R   0.858578 0.620319 0.500364 0.100703
C71   C     C_R   0.361347 0.877594 0.495067 0.084613
C72   C     C_R   0.590210 0.078473 0.256285 0.592192
C73   C     C_R   0.612833 0.136641 0.546311 0.079191
C74   C     C_R   0.612425 0.863053 0.546962 0.072795
C75   C     C_R   0.358486 0.120217 0.500528 0.099665
C76   C     C_1   0.846076 0.328544 0.826524 0.003218
C77   C     C_1   0.160651 0.667438 0.171289 0.033224
C78   C     C_1   0.160294 0.329984 0.173788 -0.013829
C79   C     C_1   0.849816 0.674017 0.824376 -0.017187
C80   C     C_1   0.348352 0.826170 0.824365 -0.015955
C81   C     C_1   0.658934 0.168802 0.172364 0.033467
C82   C     C_1   0.662064 0.831300 0.172777 -0.013679
C83   C     C_R   0.412135 0.921816 0.743311 0.598460
C84   C     C_1   0.347584 0.171682 0.826527 0.001985
C85   C     C_1   0.811549 0.298307 0.891013 -0.013365
C86   C     C_1   0.195781 0.696851 0.106055 -0.008707
C87   C     C_1   0.195148 0.299231 0.109948 -0.022110
C88   C     C_1   0.816177 0.704773 0.888585 -0.021822
C89   C     C_1   0.314487 0.794921 0.887980 -0.020608
C90   C     C_1   0.693427 0.199024 0.107847 -0.008986
C91   C     C_1   0.697525 0.801320 0.108234 -0.022588
C92   C     C_1   0.313301 0.201433 0.891588 -0.014606
C93   C     C_1   0.770224 0.263457 0.966972 -0.008521
C94   C     C_1   0.132317 0.679316 0.576820 -0.046636
C95   C     C_1   0.237651 0.730801 0.029249 -0.010229
C96   C     C_1   0.236655 0.264586 0.033835 -0.010656
C97   C     C_1   0.775193 0.738982 0.965369 -0.011154
C98   C     C_1   0.273335 0.759936 0.963899 -0.008515
C99   C     C_1   0.734746 0.233870 0.031874 -0.009675
C100  C     C_1   0.739540 0.767570 0.031283 -0.011309
C101  C     C_1   0.272132 0.235530 0.968384 -0.011165
C102  C     C_3   0.875357 0.564833 0.883492 -0.118747
C103  C     C_3   0.141505 0.442223 0.110897 -0.132222
C104  C     C_3   0.021504 0.563300 0.234743 -0.136307
H1    H     H_    0.881548 0.451261 0.407866 0.093266
H2    H     H_    0.089713 0.304783 0.482628 0.096437
H3    H     H_    0.088690 0.695456 0.483589 0.097121
H4    H     H_    0.882141 0.317772 0.560506 0.097849
H5    H     H_    0.380360 0.180745 0.563913 0.096651
H6    H     H_    0.589122 0.804623 0.483247 0.097640
H7    H     H_    0.589248 0.195307 0.483022 0.095975
H8    H     H_    0.382094 0.817840 0.560717 0.098184
H9    H     H_    0.903360 0.308127 0.648000 0.136938
H10   H     H_    0.104622 0.687723 0.350569 0.139284
H11   H     H_    0.103159 0.311716 0.351702 0.135943
H12   H     H_    0.095085 0.556888 0.624498 0.110372
H13   H     H_    0.905014 0.692406 0.647633 0.133838
H14   H     H_    0.404109 0.808028 0.647717 0.134410
H15   H     H_    0.603736 0.188156 0.351117 0.139326
H16   H     H_    0.604039 0.812144 0.351203 0.135906
H17   H     H_    0.404266 0.192319 0.647908 0.136406
H18   H     H_    0.194485 0.816825 0.517397 0.136257
H19   H     H_    0.697719 0.245283 0.645839 0.137511
H20   H     H_    0.698623 0.756619 0.645937 0.137872
H21   H     H_    0.188287 0.179455 0.529465 0.136157
H22   H     H_    0.693861 0.317089 0.518617 0.136328
H23   H     H_    0.096938 0.443774 0.622139 0.105035
H24   H     H_    0.196417 0.746340 0.647264 0.138472
H25   H     H_    0.200066 0.257685 0.644287 0.137030
H26   H     H_    0.688898 0.679580 0.528184 0.136089
H27   H     H_    0.829997 0.556913 0.899590 0.103739
H28   H     H_    0.876927 0.609799 0.906249 0.122001
H29   H     H_    0.879466 0.530859 0.919954 0.175678
H30   H     H_    0.145145 0.398254 0.081591 0.127195
H31   H     H_    0.183075 0.451087 0.104619 0.102848
H32   H     H_    0.140579 0.477495 0.072707 0.184598
H33   H     H_    0.999750 0.607387 0.267320 0.101858
H34   H     H_    0.877852 0.546676 0.414013 0.095871
H35   H     H_    0.995602 0.525189 0.280673 0.154175
H36   H     H_    0.018284 0.558076 0.183146 0.153297
H37   H     H_    0.993222 0.384993 0.746687 0.120502
H38   H     H_    0.922495 0.367102 0.855681 0.140798
H39   H     H_    0.969792 0.429525 0.837379 0.168562
H40   H     H_    0.422786 0.132158 0.857240 0.142490
H41   H     H_    0.493130 0.117975 0.746382 0.120308
H42   H     H_    0.473244 0.071286 0.833507 0.169054
H43   H     H_    0.647357 0.899885 0.080353 0.128026
H44   H     H_    0.684165 0.952669 0.105290 0.101808
H45   H     H_    0.381650 0.951140 0.407692 0.093056
H46   H     H_    0.642222 0.979146 0.072536 0.185150
H47   H     H_    0.498350 0.106882 0.269136 0.102220
H48   H     H_    0.495360 0.024583 0.281160 0.154318
H49   H     H_    0.517073 0.058014 0.184480 0.153143
H50   H     H_    0.372733 0.891252 0.908747 0.122527
H51   H     H_    0.327638 0.944463 0.898849 0.101112
H52   H     H_    0.375878 0.970233 0.921456 0.177273
H53   H     H_    0.596360 0.056349 0.622879 0.105603
H54   H     H_    0.595592 0.943204 0.623856 0.109947
H55   H     H_    0.377685 0.046528 0.414305 0.096125
H56   H     H_    0.880331 0.680686 0.564094 0.097000
N1    N     N_R   0.944140 0.557460 0.661350 -0.097050
N2    N     N_R   0.065270 0.557830 0.550080 -0.044711
N3    N     N_R   0.065270 0.442170 0.550080 -0.043765
N4    N     N_R   0.934730 0.557830 0.449920 -0.051217
N5    N     N_R   0.434730 0.942170 0.449920 -0.045304
N6    N     N_R   0.565270 0.057830 0.550080 -0.043679
N7    N     N_R   0.565270 0.942170 0.550080 -0.044777
N8    N     N_R   0.434730 0.057830 0.449920 -0.051350
N9    N     N_R   0.936760 0.601610 0.495600 -0.037803
N10   N     N_R   0.063240 0.398390 0.504400 -0.040601
N11   N     N_R   0.063240 0.601610 0.504400 -0.040062
N12   N     N_R   0.055860 0.442540 0.338650 -0.102526
N13   N     N_R   0.936760 0.398390 0.495600 -0.038290
N14   N     N_R   0.436760 0.101610 0.495600 -0.037107
N15   N     N_R   0.563240 0.898390 0.504400 -0.041561
N16   N     N_R   0.563240 0.101610 0.504400 -0.039208
N17   N     N_R   0.436760 0.898390 0.495600 -0.038962
N18   N     N_R   0.942110 0.398020 0.615670 -0.069222
N19   N     N_R   0.057890 0.601980 0.384330 -0.066736
N20   N     N_R   0.057890 0.398020 0.384330 -0.068980
N21   N     N_R   0.942110 0.601980 0.615670 -0.069180
N22   N     N_R   0.442110 0.898020 0.615670 -0.069989
N23   N     N_R   0.055860 0.557460 0.338650 -0.115487
N24   N     N_R   0.557890 0.101980 0.384330 -0.066691
N25   N     N_R   0.557890 0.898020 0.384330 -0.069004
N26   N     N_R   0.442110 0.101980 0.615670 -0.068470
N27   N     N_R   0.944140 0.442540 0.661350 -0.103011
N28   N     N_R   0.444140 0.057460 0.661350 -0.102891
N29   N     N_R   0.555860 0.942540 0.338650 -0.102489
N30   N     N_R   0.555860 0.057460 0.338650 -0.115569
N31   N     N_R   0.444140 0.942540 0.661350 -0.097183
N32   N     N_R   0.934730 0.442170 0.449920 -0.045204
Ni1   Ni    Ni4+2 0.004540 0.500000 0.604760 0.259840
Ni2   Ni    Ni4+2 0.995460 0.500000 0.395240 0.223232
Ni3   Ni    Ni4+2 0.504540 0.000000 0.604760 0.260524
Ni4   Ni    Ni4+2 0.495460 0.000000 0.395240 0.222871
Ni5   Ni    Ni4+2 1.000000 0.600690 0.500000 0.195103
Ni6   Ni    Ni4+2 1.000000 0.399310 0.500000 0.195577
Ni7   Ni    Ni4+2 0.500000 0.100690 0.500000 0.192166
Ni8   Ni    Ni4+2 0.500000 0.899310 0.500000 0.198427
O1    O     O_3   0.926199 0.557939 0.794447 -0.595528
O2    O     O_3   0.085568 0.445200 0.197287 -0.613089
O3    O     O_3   0.084441 0.561409 0.196215 -0.611707
O4    O     O_3   0.917645 0.443993 0.800976 -0.599437
O5    O     O_3   0.419691 0.056231 0.799553 -0.597932
O6    O     O_3   0.586665 0.945893 0.196653 -0.612779
O7    O     O_3   0.583652 0.061976 0.196668 -0.611774
O8    O     O_3   0.424245 0.942217 0.795956 -0.593669

loop_
_geom_bond_atom_site_label_1
_geom_bond_atom_site_label_2
_ccdc_geom_bond_type
C78   C87   T    
C49   H9    S    
C5    H43   S    
C18   C21   D    
N5    N17   A    
C40   H55   S    
N12   Ni2   S    
C3    H37   S    
C3    H38   S    
C50   N28   A    
C95   C98   T    
C9    C25   T    
C4    O5    S    
C55   H15   S    
N8    N14   A    
C21   C31   S    
C19   H19   S    
N14   Ni7   S    
N7    N15   A    
C46   C74   A    
C28   N23   A    
C102  H28   S    
C53   N21   A    
C35   H34   S    
C10   C73   S    
C53   H13   S    
C36   H45   S    
N3    Ni1   S    
C14   C24   S    
N23   Ni2   S    
C8    C26   T    
C104  H33   S    
C32   N32   A    
C37   H53   S    
C80   C89   T    
N3    N10   A    
C103  H31   S    
C48   N17   A    
C42   N10   A    
C66   C83   A    
C85   C93   S    
N2    N11   A    
C35   C70   A    
C34   H23   S    
N17   Ni8   S    
N18   N27   A    
C55   N24   A    
C54   N22   A    
C45   H5    S    
C91   C100  S    
C16   H26   S    
C93   C99   T    
C47   C73   A    
C20   H18   S    
C88   C97   S    
C36   C71   A    
N30   Ni4   S    
C61   O6    S    
C6    H48   S    
N12   N20   A    
C15   C23   S    
N18   Ni6   S    
C45   N14   A    
N21   Ni5   S    
C5    H44   S    
C96   C101  T    
N27   Ni1   S    
C61   N29   A    
C3    O4    S    
C56   H16   S    
C62   C76   S    
N4    N9    A    
C18   C25   S    
C51   N19   A    
C59   C78   S    
C72   N30   A    
C79   C88   T    
C55   C65   A    
C57   C63   A    
C72   O7    S    
C50   C63   A    
C44   H4    S    
C16   C26   S    
C38   N7    A    
C60   C77   S    
C17   N12   A    
C51   H10   S    
C7    H52   S    
C103  O2    S    
N1    Ni1   S    
C104  O3    S    
C14   C20   D    
C13   C30   T    
C3    H39   S    
N6    Ni3   S    
C38   H54   S    
C2    C67   S    
C43   N11   A    
C43   C68   A    
N19   Ni5   S    
C41   N9    A    
C15   H22   S    
C42   C69   A    
C68   C94   S    
C5    H46   S    
C104  H36   S    
N19   N23   A    
N32   Ni2   S    
C61   C64   A    
C15   C19   D    
C103  H32   S    
C52   N20   A    
C83   O8    S    
C52   C59   A    
C24   C94   T    
C41   H56   S    
C65   C81   S    
C11   C27   T    
N24   Ni7   S    
C4    H42   S    
C87   C96   S    
C56   C64   A    
C6    O7    S    
N22   Ni8   S    
C43   H3    S    
C44   N13   A    
C22   H20   S    
C42   H2    S    
C34   C69   A    
C64   C82   S    
C57   N26   A    
C28   C60   A    
C92   C101  S    
C17   C59   A    
C32   C67   A    
C81   C90   T    
C58   C79   S    
C48   H8    S    
C77   C86   T    
C34   N3    A    
C32   H1    S    
C54   H14   S    
C12   C31   T    
C5    O6    S    
N24   N30   A    
N26   Ni7   S    
C12   C75   S    
N22   N31   A    
C6    H47   S    
N16   Ni7   S    
N26   N28   A    
C19   C29   S    
N5    Ni4   S    
C90   C99   S    
N10   Ni6   S    
C97   C100  T    
N9    Ni5   S    
C49   N18   A    
C38   C74   A    
C52   H11   S    
C83   N31   A    
C39   C62   A    
C37   C73   A    
C33   H12   S    
C16   C22   D    
C49   C62   A    
C22   C30   S    
N13   Ni6   S    
C28   O3    S    
N7    Ni3   S    
C102  H27   S    
C103  H30   S    
C47   N16   A    
C9    C69   S    
C7    O8    S    
C44   C67   A    
C57   H17   S    
N28   Ni3   S    
C4    H40   S    
C53   C58   A    
C104  H35   S    
N25   N29   A    
C37   N6    A    
C54   C66   A    
C20   C27   S    
C65   C72   A    
C66   C80   S    
C1    O1    S    
C63   C84   S    
N13   N32   A    
N6    N16   A    
C35   N4    A    
C8    C70   S    
C40   C75   A    
C89   C98   S    
C45   C75   A    
C102  O1    S    
C48   C71   A    
C46   H6    S    
C33   N2    A    
C102  H29   S    
C39   N27   A    
N11   Ni5   S    
C1    C58   A    
N29   Ni4   S    
C7    H50   S    
C47   H7    S    
C4    H41   S    
N2    Ni1   S    
C36   N5    A    
C11   C71   S    
N25   Ni8   S    
N1    N21   A    
C17   O2    S    
N31   Ni3   S    
N15   Ni8   S    
C40   N8    A    
C6    H49   S    
N20   Ni6   S    
C86   C95   S    
C82   C91   T    
C1    N1    A    
C50   O5    S    
C10   C29   T    
C7    H51   S    
C56   N25   A    
N8    Ni4   S    
N4    Ni2   S    
C2    C23   T    
C46   N15   A    
C41   C70   A    
C18   H25   S    
C51   C60   A    
C84   C92   T    
C39   O4    S    
C14   H24   S    
C21   H21   S    
C76   C85   T    
C33   C68   A    
C13   C74   S    
