data_mof_unit_5148.cif
_audit_creation_date              2013-03-05T15:44:23-0500
_audit_creation_method            fapswitch 2.2
_symmetry_space_group_name_H-M    P1
_symmetry_Int_Tables_number       1
_space_group_crystal_system       triclinic
_cell_length_a                    18.818445
_cell_length_b                    18.861768
_cell_length_c                    20.499439
_cell_angle_alpha                 107.18925
_cell_angle_beta                  106.666418
_cell_angle_gamma                 110.915857
_cell_volume                      5832.12097966

loop_
_atom_site_label
_atom_site_type_symbol
_atom_site_description
_atom_site_fract_x
_atom_site_fract_y
_atom_site_fract_z
_atom_type_partial_charge
C1    C     C_R   0.038670 0.089836 0.347142 -0.157250
N1    N     N_R   0.052580 0.056040 0.395500 -0.063812
C2    C     C_R   0.757972 0.934048 0.449448 -0.023743
N2    N     N_R   0.834730 0.954500 0.499860 -0.043862
C3    C     C_R   0.847535 0.778032 0.290282 -0.077721
N3    N     N_R   0.890210 0.849400 0.355780 -0.085735
C4    C     C_R   0.001326 0.236886 0.568491 -0.055802
H1    H     H_    0.980662 0.255257 0.611630 0.093480
N4    N     N_R   0.997110 0.161140 0.539580 -0.050028
C5    C     C_R   0.768603 0.770820 0.351618 0.286856
N5    N     N_R   0.841950 0.845400 0.395490 -0.101029
C6    C     C_R   0.078295 0.242878 0.504156 -0.126300
N6    N     N_R   0.045360 0.165140 0.499870 -0.042635
C7    C     C_R   0.825906 0.072887 0.519442 -0.079035
H2    H     H_    0.843853 0.138868 0.545318 0.166830
N7    N     N_R   0.877490 0.041510 0.539580 -0.070119
C8    C     C_R   0.973596 0.949584 0.281624 0.353444
N8    N     N_R   0.009820 0.969030 0.355780 -0.090336
C9    C     C_R   0.987876 0.024031 0.274443 -0.068058
C10   C     C_R   0.750059 0.006729 0.459782 0.054058
C11   C     C_R   0.769896 0.728909 0.284467 -0.030587
C12   C     C_R   0.052196 0.290152 0.547386 0.097602
C13   C     C_R   0.239393 0.189126 0.653517 -0.118753
N9    N     N_R   0.158050 0.154600 0.604510 -0.045332
C14   C     C_R   0.979967 0.803256 0.547641 -0.045269
H3    H     H_    0.961004 0.799306 0.591372 0.139564
N10   N     N_R   0.954640 0.834860 0.500130 -0.044455
C15   C     C_R   0.169564 0.933725 0.431839 -0.128115
N11   N     N_R   0.122510 0.958490 0.460420 -0.045569
C16   C     C_R   0.988273 0.054944 0.711489 -0.166405
H4    H     H_    0.004014 0.118735 0.747094 0.133689
N12   N     N_R   0.990180 0.030970 0.644220 -0.072851
C17   C     C_R   0.917318 0.915264 0.649728 0.281918
N13   N     N_R   0.947420 0.943960 0.604500 -0.094704
C18   C     C_R   0.239631 0.073757 0.496430 -0.126352
H5    H     H_    0.280509 0.139604 0.513178 0.096381
N14   N     N_R   0.165270 0.045500 0.500140 -0.043485
C19   C     C_R   0.161616 0.183417 0.718229 -0.101806
N15   N     N_R   0.109790 0.150600 0.644220 -0.049018
C20   C     C_R   0.053213 0.806015 0.479810 -0.114867
H6    H     H_    0.096937 0.801226 0.456751 0.110132
N16   N     N_R   0.002890 0.838860 0.460420 -0.057470
Ni1   Ni    Ni4+2 0.104370 0.104380 0.500010 0.216382
Ni2   Ni    Ni4+2 0.895630 0.895620 0.499990 0.326331
Ni3   Ni    Ni4+2 0.006300 0.904810 0.408930 0.255492
Ni4   Ni    Ni4+2 0.993700 0.095190 0.591070 0.215044
C21   C     C_R   0.243663 0.206507 0.725778 0.050252
C22   C     C_R   0.041773 0.784637 0.536390 0.025431
C23   C     C_R   0.244260 0.004661 0.453495 0.072189
C24   C     C_R   0.943641 0.983840 0.717515 0.065920
C25   C     C_R   0.138461 0.722323 0.550742 -0.206162
C26   C     C_R   0.082897 0.744707 0.573742 0.108399
C27   C     C_R   0.056474 0.716688 0.623257 -0.200411
C28   C     C_R   0.070770 0.653802 0.636944 0.119907
C29   C     C_R   0.115276 0.621709 0.603412 0.038076
C30   C     C_R   0.153357 0.659417 0.563837 0.116050
C31   C     C_R   0.033070 0.615993 0.676205 -0.150417
C32   C     C_R   0.031848 0.541393 0.675350 -0.155966
C33   C     C_R   0.068481 0.504313 0.635383 0.122330
C34   C     C_R   0.114048 0.546718 0.602557 0.038219
C35   C     C_R   0.151088 0.509918 0.562289 0.121933
C36   C     C_R   0.196297 0.552526 0.529808 -0.150466
C37   C     C_R   0.197511 0.627131 0.530652 -0.146645
C38   C     C_R   0.053901 0.422411 0.621955 -0.193308
C39   C     C_R   0.082824 0.381855 0.574871 0.095156
C40   C     C_R   0.135915 0.427981 0.549359 -0.212953
H7    H     H_    0.163331 0.746884 0.516070 0.127438
H8    H     H_    0.160723 0.398814 0.514693 0.126643
H9    H     H_    0.226218 0.525513 0.499759 0.156842
C41   C     C_R   0.304706 0.929072 0.385296 -0.108408
C42   C     C_R   0.308212 0.005755 0.425332 0.081314
C43   C     C_R   0.375050 0.082450 0.441313 -0.220530
C44   C     C_R   0.442942 0.083035 0.426187 0.173890
C45   C     C_R   0.443055 0.005975 0.393374 0.047431
C46   C     C_R   0.370851 0.928082 0.367694 -0.082422
C47   C     C_R   0.512916 0.159730 0.447421 -0.201461
C48   C     C_R   0.586269 0.161018 0.444163 -0.085894
C49   C     C_R   0.591781 0.085708 0.422224 -0.008172
C50   C     C_R   0.517539 0.007227 0.391797 -0.004184
C51   C     C_R   0.519001 0.930226 0.363657 -0.082927
C52   C     C_R   0.443775 0.852058 0.329368 0.222055
C53   C     C_R   0.369228 0.850940 0.330899 0.210920
C54   C     C_R   0.669928 0.086698 0.433786 0.303160
C55   C     C_R   0.672612 0.009682 0.419149 -0.043090
C56   C     C_R   0.596652 0.932857 0.375157 -0.135763
H10   H     H_    0.377256 0.142105 0.469490 0.123473
H11   H     H_    0.512319 0.219152 0.469764 0.150349
H12   H     H_    0.639388 0.221894 0.462744 0.192696
C57   C     C_R   0.319068 0.236391 0.795798 0.114855
C58   C     C_R   0.320813 0.272439 0.867024 -0.136887
C59   C     C_R   0.393443 0.304966 0.933324 -0.055108
C60   C     C_R   0.465596 0.300921 0.929860 0.219510
C61   C     C_R   0.462981 0.262467 0.858790 -0.122194
C62   C     C_R   0.390214 0.230026 0.792240 -0.162481
C63   C     C_R   0.620237 0.531389 0.100108 -0.285242
C64   C     C_R   0.669153 0.617314 0.151618 0.397333
C65   C     C_R   0.711268 0.576725 0.252889 -0.128605
C66   C     C_R   0.661620 0.491299 0.200957 -0.022448
C67   C     C_R   0.615573 0.467997 0.124221 -0.001483
C68   C     C_2   0.548415 0.352551 0.997586 -0.335003
C69   C     C_2   0.556030 0.377978 0.069183 0.306503
C70   C     C_R   0.714494 0.639867 0.228972 -0.004666
H13   H     H_    0.582621 0.513808 0.041229 0.173918
H14   H     H_    0.600539 0.388981 0.987926 0.151174
H15   H     H_    0.658941 0.443477 0.220626 0.160331
C71   C     C_R   0.949179 0.032049 0.205801 0.079993
C72   C     C_R   0.941160 0.980619 0.136573 -0.007260
C73   C     C_R   0.899044 0.983431 0.070738 -0.108755
C74   C     C_R   0.866428 0.040327 0.072570 -0.030590
C75   C     C_R   0.875521 0.094032 0.142817 0.365240
C76   C     C_R   0.916932 0.088978 0.208950 -0.238931
C77   C     C_R   0.933021 0.044485 0.905237 0.203378
C78   C     C_R   0.965887 0.035449 0.851731 0.247802
C79   C     C_R   0.822610 0.951248 0.749789 -0.229899
C80   C     C_R   0.788472 0.958860 0.802178 0.354117
C81   C     C_R   0.843820 0.004385 0.880720 -0.216544
C82   C     C_2   0.839993 0.054092 0.004191 -0.003501
C83   C     C_2   0.809898 0.991442 0.935303 -0.042785
C84   C     C_R   0.910194 0.986925 0.773994 -0.086359
H16   H     H_    0.780676 0.918283 0.689464 0.204804
H17   H     H_    0.777258 0.926091 0.925705 0.155740
H18   H     H_    0.061354 0.156516 0.362982 0.140496
H19   H     H_    0.144386 0.870840 0.387854 0.128162
N17   N     N_R   0.857022 0.829530 0.627408 0.227414
O1    O     O_R   0.847287 0.805382 0.678935 -0.360619
O2    O     O_R   0.819603 0.772557 0.557363 -0.344915
H20   H     H_    0.141553 0.186498 0.762777 0.126549
H21   H     H_    0.017392 0.736618 0.645037 0.141984
H22   H     H_    0.999693 0.640816 0.703129 0.160114
H23   H     H_    0.712996 0.872787 0.403640 0.139535
H24   H     H_    0.997823 0.510064 0.701878 0.153511
H25   H     H_    0.014935 0.388940 0.643993 0.134265
H26   H     H_    0.228059 0.656267 0.500994 0.161515
H27   H     H_    0.253502 0.869855 0.372752 0.152858
N18   N     N_R   0.745429 0.164421 0.460184 0.217356
O3    O     O_R   0.773103 0.228260 0.524952 -0.436297
O4    O     O_R   0.791679 0.168111 0.423443 -0.371150
H28   H     H_    0.876158 0.753993 0.257135 0.184876
H29   H     H_    0.598008 0.873985 0.356252 0.181703
N19   N     N_R   0.442923 0.773508 0.294369 0.262117
O5    O     O_R   0.396827 0.725639 0.221686 -0.286540
O6    O     O_R   0.477342 0.744003 0.336422 -0.298687
N20   N     N_R   0.293181 0.771366 0.297608 0.255196
O7    O     O_R   0.294339 0.710628 0.314934 -0.305561
O8    O     O_R   0.223017 0.758572 0.247990 -0.335856
H30   H     H_    0.267602 0.279276 0.871854 0.146928
N21   N     N_R   0.670244 0.680008 0.124702 0.257428
O9    O     O_R   0.656729 0.663200 0.054598 -0.337076
O10   O     O_R   0.676171 0.750511 0.167212 -0.336534
H31   H     H_    0.747329 0.593847 0.312013 0.154808
N22   N     N_R   0.498589 0.323669 0.088818 0.245598
O11   O     O_R   0.461730 0.241642 0.050550 -0.319093
O12   O     O_R   0.485178 0.355864 0.146648 -0.334272
H32   H     H_    0.518468 0.260480 0.854779 0.144118
H33   H     H_    0.390471 0.201325 0.738215 0.126880
H34   H     H_    0.394463 0.338054 0.986897 0.159566
H35   H     H_    0.968837 0.939042 0.133307 0.170019
N23   N     N_R   0.056101 0.073724 0.876781 0.259676
O13   O     O_R   0.105034 0.152929 0.926089 -0.310369
O14   O     O_R   0.089676 0.029559 0.850269 -0.348057
N24   N     N_R   0.842944 0.152949 0.148007 0.245292
O15   O     O_R   0.776812 0.136996 0.091070 -0.341500
O16   O     O_R   0.874138 0.218913 0.212266 -0.347624
N25   N     N_R   0.990982 0.087204 0.984372 0.250237
O17   O     O_R   0.034567 0.053905 0.011667 -0.336344
O18   O     O_R   0.014968 0.166691 0.023393 -0.334315
H36   H     H_    0.922448 0.128191 0.262808 0.181883
N26   N     N_R   0.706290 0.733400 0.375873 0.234075
O19   O     O_R   0.632687 0.668828 0.326174 -0.314076
O20   O     O_R   0.717731 0.769287 0.445289 -0.333597
H37   H     H_    0.866085 0.119156 0.012169 0.189659
H38   H     H_    0.896760 0.944008 0.018800 0.159608
N27   N     N_R   0.697755 0.919624 0.774805 0.251810
O21   O     O_R   0.663821 0.950986 0.814244 -0.342489
O22   O     O_R   0.648278 0.857200 0.706911 -0.334772
H39   H     H_    0.128553 0.266662 0.488147 0.096193
N28   N     N_R   0.938328 0.867714 0.220867 0.203002
O23   O     O_R   0.864340 0.834355 0.164445 -0.357232
O24   O     O_R   0.982782 0.828452 0.219596 -0.402234
H40   H     H_    0.290982 0.198411 0.637950 0.101227

loop_
_geom_bond_atom_site_label_1
_geom_bond_atom_site_label_2
_geom_bond_distance
_ccdc_geom_bond_type
C52   N19   1.434664 S    
C40   H8    1.080850 S    
C29   C30   1.410011 A    
N2    N7    1.376716 A    
C61   C62   1.395523 A    
N3    Ni3   1.839419 S    
C64   C70   1.410499 A    
N1    N8    1.376719 A    
C2    H23   1.066687 S    
C44   C45   1.410752 A    
N21   O9    1.301507 A    
C77   C81   1.423848 A    
C65   C66   1.393998 A    
C31   C32   1.393859 A    
C15   H19   1.079784 S    
C74   C82   1.478879 S    
N18   O3    1.301781 A    
C48   C49   1.408938 A    
C15   N11   1.332932 A    
C33   C38   1.392920 A    
C36   C37   1.394060 A    
C66   H15   1.082994 S    
C37   H26   1.083738 S    
C31   H22   1.083719 S    
N25   O17   1.300988 A    
C18   N14   1.341841 A    
N19   O6    1.301191 A    
C1    N1    1.342141 A    
C3    N3    1.342057 A    
C63   C67   1.407487 A    
C71   C72   1.391656 A    
C80   C81   1.413110 A    
C66   C67   1.398596 A    
C6    C12   1.384532 A    
C68   H14   1.088185 S    
N9    N15   1.380060 A    
C73   C74   1.410484 A    
C20   C22   1.382704 A    
C25   C30   1.393198 A    
C57   C62   1.406372 A    
N4    N6    1.379908 A    
C1    H18   1.079467 S    
C68   C69   1.348668 D    
C72   H35   1.082290 S    
C78   C84   1.403783 A    
N10   Ni2   1.858859 S    
N20   O8    1.301271 A    
C63   C64   1.398136 A    
C48   H12   1.079969 S    
C81   C83   1.476130 S    
C62   H33   1.081747 S    
N28   O24   1.300898 A    
C18   C23   1.388451 A    
C17   N17   1.437566 S    
C65   H31   1.083596 S    
C41   C42   1.403270 A    
C78   N23   1.439715 S    
C32   H24   1.083696 S    
C54   N18   1.436518 S    
C65   C70   1.404655 A    
C59   C60   1.407329 A    
C6    H39   1.079604 S    
N26   O20   1.296284 A    
C16   C24   1.368391 A    
N22   O11   1.301753 A    
C33   C34   1.409690 A    
C29   C34   1.401199 A    
N23   O14   1.301417 A    
C21   C57   1.474445 S    
C35   C40   1.392723 A    
C77   C78   1.403039 A    
N24   O16   1.301577 A    
C75   N24   1.440843 S    
C63   H13   1.083334 S    
C52   C53   1.404981 A    
C71   C76   1.404337 A    
N27   O22   1.302193 A    
C5    C11   1.382087 A    
N19   O5    1.300753 A    
C77   N25   1.433719 S    
C1    C9    1.384817 A    
C13   C21   1.390713 A    
C45   C46   1.410369 A    
C25   C26   1.405069 A    
C7    C10   1.383871 A    
C3    H28   1.076863 S    
N13   Ni2   1.839661 S    
C55   C56   1.402009 A    
C79   C80   1.398955 A    
N7    Ni4   1.839867 S    
N3    N5    1.380058 A    
C49   C50   1.417749 A    
C51   C52   1.413643 A    
N2    Ni2   1.858916 S    
C17   C24   1.390955 A    
N27   O21   1.301740 A    
C69   N22   1.443084 S    
C16   H4    1.081967 S    
C24   C84   1.464364 S    
C36   H9    1.083688 S    
N11   Ni3   1.839870 S    
C34   C35   1.409201 A    
C18   H5    1.080048 S    
N12   N13   1.376716 A    
N14   Ni1   1.858914 S    
C12   C39   1.472199 S    
C51   C56   1.391781 A    
C27   H21   1.080794 S    
C15   C23   1.382496 A    
C82   H37   1.085817 S    
C20   N16   1.336828 A    
C54   C55   1.416428 A    
C14   C22   1.388155 A    
C22   C26   1.472929 S    
N1    Ni1   1.839661 S    
C72   C73   1.382440 A    
C8    N8    1.344485 A    
C13   H40   1.079060 S    
C30   C37   1.401686 A    
C3    C11   1.369527 A    
C2    C10   1.392330 A    
C75   C76   1.406311 A    
C25   H7    1.081410 S    
C47   C48   1.392993 A    
C47   H11   1.083814 S    
C19   C21   1.393034 A    
N15   Ni4   1.839419 S    
C11   C70   1.463573 S    
N26   O19   1.300951 A    
C67   C69   1.481752 S    
C80   N27   1.442212 S    
C39   C40   1.405946 A    
C45   C50   1.403251 A    
C10   C55   1.486629 S    
N23   O13   1.301096 A    
C53   N20   1.437788 S    
C44   C47   1.398244 A    
C7    N7    1.337059 A    
C32   C33   1.401859 A    
C76   H36   1.083306 S    
C2    N2    1.346677 A    
N8    Ni3   1.850113 S    
N5    Ni2   1.839261 S    
N6    Ni1   1.858859 S    
C26   C27   1.405621 A    
C60   C68   1.476795 S    
N17   O2    1.296192 A    
C8    N28   1.426062 S    
N18   O4    1.301291 A    
C64   N21   1.441553 S    
C56   H29   1.074901 S    
C28   C29   1.409490 A    
C20   H6    1.076838 S    
N21   O10   1.301403 A    
C83   H17   1.087248 S    
N12   Ni4   1.850115 S    
C79   C84   1.399010 A    
C43   C44   1.395630 A    
C61   H32   1.083439 S    
C49   C54   1.413177 A    
C43   H10   1.081747 S    
C46   C53   1.411860 A    
C27   C28   1.392574 A    
C14   N10   1.345669 A    
C4    C12   1.385920 A    
C38   H25   1.080928 S    
C38   C39   1.405421 A    
C73   H38   1.082296 S    
C14   H3    1.067951 S    
C59   H34   1.081751 S    
C58   H30   1.081969 S    
N24   O15   1.301348 A    
C82   C83   1.337330 D    
C16   N12   1.333707 A    
N10   N16   1.379906 A    
C58   C59   1.390907 A    
C19   N15   1.342112 A    
C19   H20   1.077933 S    
N25   O18   1.300867 A    
C60   C61   1.399961 A    
C8    C9    1.393240 A    
C17   N13   1.361032 A    
N22   O12   1.301280 A    
C35   C36   1.402161 A    
C4    H1    1.079631 S    
C5    N5    1.358941 A    
C13   N9    1.340152 A    
C50   C51   1.409031 A    
C9    C71   1.466220 S    
C4    N4    1.338052 A    
N4    Ni4   1.850273 S    
C42   C43   1.402293 A    
C6    N6    1.336262 A    
C5    N26   1.439236 S    
N28   O23   1.301114 A    
C23   C42   1.473070 S    
N11   N14   1.376717 A    
C41   C46   1.396486 A    
C41   H27   1.077888 S    
N9    Ni1   1.839261 S    
C7    H2    1.072955 S    
C57   C58   1.401790 A    
C74   C75   1.414830 A    
N16   Ni3   1.850273 S    
C79   H16   1.083541 S    
N20   O7    1.301137 A    
N17   O1    1.300982 A    
C28   C31   1.401841 A    
