data_mof_unit_54646.cif
_audit_creation_date              2012-12-10T20:46:52-0500
_audit_creation_method            fapswitch 2.2
_symmetry_space_group_name_H-M    P1
_symmetry_Int_Tables_number       1
_space_group_crystal_system       triclinic
_cell_length_a                    12.859673
_cell_length_b                    8.920965
_cell_length_c                    8.101982
_cell_angle_alpha                 89.984867
_cell_angle_beta                  97.431821
_cell_angle_gamma                 90.05695
_cell_volume                      921.656533407

loop_
_atom_site_label
_atom_site_type_symbol
_atom_type_description
_atom_site_fract_x
_atom_site_fract_y
_atom_site_fract_z
_atom_type_partial_charge
C1    C     C_R   0.499571 0.217983 0.499909 0.932830
C2    C     C_R   0.871122 0.402209 0.684150 -0.011386
C3    C     C_R   0.135155 0.442966 0.566450 -0.310072
C4    C     C_R   0.864849 0.557046 0.433577 -0.309988
C5    C     C_R   0.028721 0.458168 0.564160 0.170847
C6    C     C_R   0.971285 0.541857 0.435875 0.170816
C7    C     C_1   0.499818 0.065207 0.499945 -0.235474
C8    C     C_1   0.500181 0.934793 0.500056 -0.235454
C9    C     C_R   0.820057 0.318054 0.809416 0.135675
C10   C     C_R   0.750727 0.199787 0.759977 -0.110850
C11   C     C_R   0.702959 0.120187 0.878557 -0.115460
C12   C     C_R   0.500427 0.782017 0.500091 0.932875
C13   C     C_R   0.724791 0.157092 0.047124 -0.117806
C14   C     C_R   0.794998 0.272940 0.097495 -0.120724
C15   C     C_R   0.842784 0.353124 0.979309 -0.153306
C16   C     C_R   0.179963 0.681937 0.190609 0.135685
C17   C     C_R   0.157364 0.646724 0.020756 -0.153220
C18   C     C_R   0.205203 0.726862 0.902594 -0.120721
C19   C     C_R   0.275350 0.842795 0.952957 -0.117784
C20   C     C_R   0.297045 0.879845 0.121478 -0.115460
C21   C     C_R   0.249215 0.800294 0.240029 -0.111009
C22   C     C_R   0.297667 0.504058 0.467073 0.870397
C23   C     C_R   0.702333 0.495935 0.532928 0.870382
C24   C     C_R   0.814444 0.486019 0.554155 -0.100558
C25   C     C_R   0.185556 0.513971 0.445849 -0.100540
C26   C     C_R   0.020785 0.609278 0.311392 -0.273340
C27   C     C_R   0.979224 0.390754 0.688647 -0.273334
C28   C     C_R   0.128881 0.597792 0.315866 -0.011422
H1    H     H_    0.820486 0.622162 0.335313 0.163937
H2    H     H_    0.103301 0.556929 0.980274 0.128314
H3    H     H_    0.187815 0.699537 0.771930 0.149625
H4    H     H_    0.312454 0.904384 0.861297 0.133758
H5    H     H_    0.350805 0.970362 0.160225 0.141347
H6    H     H_    0.266093 0.830635 0.370169 0.098477
H7    H     H_    0.179518 0.377852 0.664719 0.163925
H8    H     H_    0.975837 0.674318 0.213836 0.144391
H9    H     H_    0.024175 0.325722 0.786208 0.144362
H10   H     H_    0.733747 0.169548 0.629804 0.098414
H11   H     H_    0.649146 0.029739 0.839800 0.141356
H12   H     H_    0.687738 0.095460 0.138806 0.133748
H13   H     H_    0.812486 0.300157 0.228189 0.149565
H14   H     H_    0.896903 0.442845 0.019802 0.128362
N1    N     N_1   0.500020 0.500000 0.073640 -0.030156
N2    N     N_1   0.499980 0.500000 0.926360 -0.030167
O1    O     O_R   0.499990 0.285340 0.636850 -0.613348
O2    O     O_R   0.500010 0.714660 0.363150 -0.613323
O3    O     O_R   0.500010 0.285340 0.363150 -0.622227
O4    O     O_R   0.499990 0.714660 0.636850 -0.622247
O5    O     O_R   0.346350 0.500000 0.614250 -0.626763
O6    O     O_R   0.653650 0.500000 0.385750 -0.626708
O7    O     O_R   0.346360 0.500000 0.340500 -0.608983
O8    O     O_R   0.653640 0.500000 0.659500 -0.608995
Zn1   Zn    Zn3+2 0.499990 0.500000 0.682780 0.980847
Zn2   Zn    Zn3+2 0.500010 0.500000 0.317220 0.980888

loop_
_geom_bond_atom_site_label_1
_geom_bond_atom_site_label_2
_ccdc_geom_bond_type
C10   H10   S    
C16   C28   S    
C23   C24   S    
C16   C21   A    
C18   H3    S    
C3    H7    S    
C9    C10   A    
N1    Zn2   S    
C26   C28   A    
C19   C20   A    
C8    C12   S    
N1    N2    T    
O7    Zn2   S    
O2    Zn2   S    
C17   C18   A    
C9    C15   A    
O1    Zn1   S    
C7    C8    T    
C6    C26   A    
C13   C14   A    
C20   C21   A    
C25   C28   A    
C11   H11   S    
C17   H2    S    
C11   C13   A    
C5    C27   A    
C1    O1    A    
C23   O8    A    
O6    Zn2   S    
C14   H13   S    
C27   H9    S    
C22   O5    A    
O5    Zn1   S    
C19   H4    S    
C26   H8    S    
C12   O4    A    
O3    Zn2   S    
C2    C27   A    
C2    C24   A    
O4    Zn1   S    
C4    C24   A    
C22   O7    A    
C4    C6    A    
C10   C11   A    
C20   H5    S    
C3    C25   A    
O8    Zn1   S    
C12   O2    A    
C18   C19   A    
C5    C6    A    
C14   C15   A    
C1    O3    A    
C23   O6    A    
C21   H6    S    
C3    C5    A    
C1    C7    S    
C2    C9    S    
N2    Zn1   S    
C4    H1    S    
C15   H14   S    
C16   C17   A    
C13   H12   S    
C22   C25   S    
