data_mof_unit_27735.cif
_audit_creation_date              2012-12-11T16:43:36-0500
_audit_creation_method            fapswitch 2.2
_symmetry_space_group_name_H-M    P1
_symmetry_Int_Tables_number       1
_space_group_crystal_system       triclinic
_cell_length_a                    25.878171
_cell_length_b                    25.935375
_cell_length_c                    27.521653
_cell_angle_alpha                 89.998135
_cell_angle_beta                  90.119419
_cell_angle_gamma                 90.059893
_cell_volume                      18471.3843104

loop_
_atom_site_label
_atom_site_type_symbol
_atom_type_description
_atom_site_fract_x
_atom_site_fract_y
_atom_site_fract_z
_atom_type_partial_charge
C1    C     C_R   0.129741 0.069161 0.568245 -0.133577
C2    C     C_R   0.870755 0.067874 0.569646 -0.137641
C3    C     C_R   0.170862 0.182170 0.210545 0.158874
C4    C     C_R   0.729952 0.267688 0.639967 0.148954
C5    C     C_R   0.179899 0.830908 0.206821 0.159602
C6    C     C_R   0.270539 0.268943 0.638393 0.148868
C7    C     C_R   0.733017 0.723639 0.366841 0.153761
C8    C     C_R   0.773876 0.236552 0.142067 0.154990
C9    C     C_R   0.320074 0.670387 0.707995 0.158312
C10   C     C_R   0.230267 0.231772 0.140090 0.148933
C11   C     C_R   0.667949 0.685631 0.709244 0.156857
C12   C     C_R   0.230708 0.769792 0.138376 0.150569
C13   C     C_R   0.062940 0.123591 0.419970 -0.139396
C14   C     C_R   0.679140 0.328721 0.708375 0.157920
C15   C     C_R   0.681960 0.665988 0.295232 0.153863
C16   C     C_R   0.330863 0.319229 0.708022 0.159083
C17   C     C_R   0.119178 0.119577 0.581688 0.071005
C18   C     C_R   0.878154 0.878661 0.424296 0.081193
C19   C     C_R   0.119515 0.881365 0.582246 0.071023
C20   C     C_R   0.901280 0.096491 0.386799 0.071697
C21   C     C_R   0.879115 0.879015 0.577330 0.072881
C22   C     C_R   0.106932 0.107059 0.396522 0.069465
C23   C     C_R   0.880633 0.118486 0.582457 0.071474
C24   C     C_R   0.930520 0.869788 0.566586 -0.136286
C25   C     C_R   0.100355 0.899096 0.389785 0.070291
C26   C     C_R   0.598141 0.597328 0.113016 0.066282
C27   C     C_R   0.395137 0.394903 0.893988 0.068294
C28   C     C_R   0.618843 0.381668 0.083523 0.071725
C29   C     C_R   0.395027 0.604337 0.893660 0.068528
C30   C     C_R   0.381059 0.380584 0.081918 0.071640
C31   C     C_R   0.604891 0.605278 0.894136 0.064701
C32   C     C_R   0.379547 0.619129 0.080351 0.074389
C33   C     C_R   0.604696 0.395684 0.893644 0.068024
C34   C     C_R   0.919414 0.124607 0.302357 -0.275349
C35   C     C_R   0.882602 0.055002 0.412865 -0.138356
C36   C     C_R   0.161530 0.796204 0.570243 -0.276106
C37   C     C_R   0.125185 0.092681 0.309917 -0.270439
C38   C     C_R   0.789827 0.843566 0.568516 -0.262832
C39   C     C_R   0.088088 0.881800 0.302241 -0.272865
C40   C     C_R   0.838193 0.203546 0.570909 -0.275123
C41   C     C_R   0.794253 0.853706 0.388605 -0.268379
C42   C     C_R   0.205251 0.160569 0.570294 -0.275589
C43   C     C_R   0.854070 0.795681 0.613540 -0.267558
C44   C     C_R   0.135249 0.178229 0.343731 -0.262567
C45   C     C_R   0.197305 0.856895 0.627976 -0.269934
C46   C     C_R   0.129358 0.932008 0.569539 -0.137323
C47   C     C_R   0.831025 0.112599 0.328404 -0.268007
C48   C     C_R   0.143773 0.198165 0.626034 -0.270122
C49   C     C_R   0.842439 0.789649 0.433462 -0.263154
C50   C     C_R   0.803299 0.142603 0.628741 -0.270086
C51   C     C_R   0.171843 0.868124 0.339271 -0.263820
C52   C     C_R   0.409858 0.624130 0.807256 -0.272166
C53   C     C_R   0.666991 0.300377 0.069565 -0.274399
C54   C     C_R   0.618507 0.594171 0.806180 -0.268421
C55   C     C_R   0.294987 0.339472 0.070945 -0.275816
C56   C     C_R   0.589491 0.375155 0.807373 -0.272317
C57   C     C_R   0.929558 0.869314 0.435055 -0.144321
C58   C     C_R   0.338687 0.705216 0.069487 -0.274765
C59   C     C_R   0.377457 0.409070 0.807050 -0.271296
C60   C     C_R   0.668683 0.633990 0.161611 -0.267282
C61   C     C_R   0.356827 0.302492 0.126963 -0.270200
C62   C     C_R   0.640185 0.675544 0.844060 -0.266863
C63   C     C_R   0.689661 0.355460 0.137265 -0.260070
C64   C     C_R   0.323577 0.631098 0.840288 -0.260308
C65   C     C_R   0.588566 0.611668 0.201563 -0.266418
C66   C     C_R   0.366432 0.323853 0.841289 -0.260351
C67   C     C_R   0.300244 0.642987 0.124003 -0.270700
C68   C     C_R   0.068342 0.129350 0.569174 -0.136625
C69   C     C_R   0.676002 0.369042 0.840359 -0.260842
C70   C     C_R   0.902545 0.138938 0.255889 0.159208
C71   C     C_R   0.200592 0.760731 0.581205 0.161389
C72   C     C_R   0.136658 0.111192 0.263501 0.157915
C73   C     C_R   0.752132 0.806766 0.580067 0.164445
C74   C     C_R   0.108062 0.868911 0.256594 0.158339
C75   C     C_R   0.799019 0.238784 0.582064 0.161182
C76   C     C_R   0.757957 0.816644 0.374983 0.165085
C77   C     C_R   0.241112 0.199378 0.581170 0.161089
C78   C     C_R   0.816919 0.759583 0.627235 0.164304
C79   C     C_R   0.617655 0.556166 0.086883 -0.136921
C80   C     C_R   0.150345 0.196959 0.298409 0.162318
C81   C     C_R   0.234876 0.821239 0.641507 0.163908
C82   C     C_R   0.813103 0.129772 0.283482 0.164489
C83   C     C_R   0.179713 0.235604 0.639439 0.164191
C84   C     C_R   0.805415 0.752067 0.422018 0.164433
C85   C     C_R   0.765655 0.178037 0.642474 0.163995
C86   C     C_R   0.191746 0.851784 0.294879 0.162622
C87   C     C_R   0.391419 0.636185 0.760855 0.158414
C88   C     C_R   0.707118 0.266446 0.081603 0.161947
C89   C     C_R   0.630602 0.614144 0.760346 0.155561
C90   C     C_R   0.378709 0.439381 0.916762 -0.141843
C91   C     C_R   0.259223 0.300765 0.082221 0.161090
C92   C     C_R   0.607723 0.362819 0.761030 0.157652
C93   C     C_R   0.300072 0.741026 0.080773 0.161105
C94   C     C_R   0.365906 0.390317 0.760645 0.157190
C95   C     C_R   0.689288 0.651195 0.205549 0.162749
C96   C     C_R   0.320996 0.265207 0.140774 0.164224
C97   C     C_R   0.655679 0.695285 0.799224 0.163214
C98   C     C_R   0.727595 0.320654 0.151871 0.160503
C99   C     C_R   0.304847 0.646748 0.795092 0.162213
C100  C     C_R   0.609544 0.625641 0.246724 0.157571
C101  C     C_R   0.568745 0.370664 0.069151 -0.134698
C102  C     C_R   0.351209 0.304955 0.796025 0.162578
C103  C     C_R   0.262987 0.678829 0.137807 0.164526
C104  C     C_R   0.694573 0.353133 0.795272 0.162779
C105  C     C_3   0.942528 0.111272 0.181084 -0.914169
C106  C     C_3   0.244960 0.709249 0.521318 -0.914347
C107  C     C_3   0.087553 0.083014 0.193930 -0.925319
C108  C     C_3   0.685729 0.776921 0.524903 -0.933882
C109  C     C_3   0.086132 0.917833 0.185033 -0.919019
C110  C     C_3   0.753834 0.290017 0.522340 -0.913179
C111  C     C_3   0.733657 0.828453 0.291456 -0.923000
C112  C     C_R   0.869259 0.930028 0.434615 -0.149327
C113  C     C_R   0.439482 0.621001 0.916630 -0.140761
C114  C     C_3   0.294677 0.241862 0.521606 -0.913430
C115  C     C_3   0.828466 0.735383 0.710802 -0.919913
C116  C     C_3   0.217178 0.258732 0.316377 -0.922021
C117  C     C_3   0.248841 0.819672 0.727803 -0.917739
C118  C     C_3   0.740486 0.186433 0.292554 -0.920716
C119  C     C_3   0.179482 0.251716 0.725393 -0.918005
C120  C     C_3   0.775769 0.686093 0.477416 -0.933458
C121  C     C_3   0.752575 0.179533 0.728829 -0.918418
C122  C     C_3   0.248301 0.780839 0.312711 -0.922276
C123  C     C_3   0.421307 0.590051 0.690299 -0.923484
C124  C     C_R   0.370381 0.430938 0.068356 -0.135121
C125  C     C_3   0.762259 0.228211 0.020931 -0.914685
C126  C     C_3   0.575179 0.594296 0.692457 -0.924149
C127  C     C_3   0.205243 0.257648 0.023180 -0.913091
C128  C     C_3   0.577376 0.407879 0.689879 -0.919709
C129  C     C_3   0.258047 0.796167 0.022111 -0.913037
C130  C     C_3   0.415423 0.417133 0.691007 -0.920844
C131  C     C_3   0.735938 0.730128 0.193565 -0.923362
C132  C     C_3   0.321718 0.250205 0.226910 -0.917960
C133  C     C_3   0.733254 0.744507 0.811117 -0.922344
C134  C     C_3   0.724264 0.316299 0.238972 -0.919065
C135  C     C_R   0.621263 0.560688 0.916835 -0.138758
C136  C     C_3   0.241305 0.711464 0.813727 -0.922188
C137  C     C_3   0.594322 0.574155 0.318271 -0.909311
C138  C     C_3   0.284168 0.243661 0.814671 -0.922772
C139  C     C_3   0.247344 0.675892 0.223720 -0.920427
C140  C     C_3   0.758359 0.288622 0.813917 -0.922246
C141  C     C_R   0.430053 0.629866 0.067071 -0.148430
C142  C     C_R   0.560386 0.378987 0.916654 -0.143544
C143  C     C_R   0.622086 0.438870 0.917906 -0.137563
C144  C     C_R   0.370267 0.568180 0.068557 -0.136889
C145  C     C_R   0.561458 0.622323 0.918169 -0.139829
C146  C     C_R   0.431794 0.370722 0.069315 -0.137711
C147  C     C_R   0.377743 0.561172 0.917940 -0.138571
C148  C     C_R   0.069098 0.870530 0.568507 -0.133609
C149  C     C_R   0.629227 0.431771 0.069722 -0.146027
C150  C     C_R   0.438484 0.377708 0.918184 -0.138166
C151  C     C_R   0.555562 0.616280 0.088028 -0.138723
C152  C     C_R   0.883719 0.112027 0.338575 0.112920
C153  C     C_R   0.159548 0.843823 0.594060 0.111444
C154  C     C_R   0.124418 0.126128 0.349750 0.103538
C155  C     C_R   0.840300 0.838940 0.586466 0.108673
C156  C     C_R   0.119996 0.881465 0.343264 0.104466
C157  C     C_R   0.840636 0.155892 0.594630 0.111249
C158  C     C_R   0.837758 0.839985 0.415567 0.108017
C159  C     C_R   0.942612 0.116890 0.412591 -0.139368
C160  C     C_R   0.157041 0.159556 0.593225 0.111543
C161  C     C_R   0.376004 0.621602 0.846706 0.104260
C162  C     C_R   0.658408 0.344627 0.097392 0.105146
C163  C     C_R   0.622868 0.624956 0.847683 0.104972
C164  C     C_R   0.343324 0.340720 0.093809 0.111646
C165  C     C_R   0.623561 0.378261 0.846761 0.105176
C166  C     C_R   0.339261 0.656666 0.091683 0.111232
C167  C     C_R   0.377783 0.375881 0.847076 0.103177
C168  C     C_R   0.618315 0.615392 0.159390 0.105834
C169  C     C_R   0.272542 0.654312 0.688675 -0.175900
C170  C     C_R   0.869571 0.930214 0.566073 -0.129621
C171  C     C_R   0.822392 0.251735 0.159869 -0.170236
C172  C     C_R   0.655316 0.736193 0.695647 -0.173475
C173  C     C_R   0.240406 0.180147 0.151865 -0.162338
C174  C     C_R   0.726457 0.345092 0.688985 -0.175366
C175  C     C_R   0.178520 0.760499 0.149035 -0.161969
C176  C     C_R   0.346402 0.271150 0.689963 -0.177549
C177  C     C_R   0.654474 0.701943 0.323190 -0.139091
C178  C     C_R   0.185280 0.255281 0.157871 -0.141520
C179  C     C_R   0.703169 0.657632 0.680867 -0.134736
C180  C     C_R   0.757574 0.185391 0.148628 -0.135265
C181  C     C_R   0.122531 0.061824 0.418470 -0.143284
C182  C     C_R   0.345760 0.712516 0.686955 -0.130138
C183  C     C_R   0.733037 0.654040 0.308091 -0.170637
C184  C     C_R   0.289831 0.345329 0.685446 -0.130684
C185  C     C_R   0.254657 0.814324 0.156731 -0.141025
C186  C     C_R   0.653851 0.286114 0.687688 -0.131539
C187  C     C_R   0.786414 0.151998 0.177551 -0.160686
C188  C     C_R   0.321210 0.741961 0.651509 -0.162322
C189  C     C_R   0.154991 0.230001 0.192102 -0.176980
C190  C     C_R   0.729710 0.681891 0.643189 -0.157199
C191  C     C_R   0.228896 0.845377 0.189970 -0.174848
C192  C     C_R   0.930947 0.129421 0.568597 -0.135010
C193  C     C_R   0.678634 0.256565 0.652549 -0.161987
C194  C     C_R   0.758801 0.683529 0.342729 -0.141584
C195  C     C_R   0.260640 0.320729 0.649749 -0.162086
C196  C     C_R   0.683923 0.761224 0.659986 -0.141322
C197  C     C_R   0.211745 0.155934 0.188021 -0.129710
C198  C     C_R   0.246861 0.685317 0.655227 -0.141432
C199  C     C_R   0.849681 0.219371 0.190991 -0.141645
C200  C     C_R   0.315681 0.245557 0.656157 -0.140887
C201  C     C_R   0.679575 0.729580 0.359796 -0.156299
C202  C     C_R   0.752384 0.314032 0.655856 -0.141077
C203  C     C_R   0.056307 0.882120 0.413348 -0.143568
C204  C     C_R   0.153584 0.790187 0.184024 -0.134531
C205  C     C_R   0.848873 0.143781 0.246696 -0.011675
C206  C     C_R   0.236450 0.772225 0.618570 -0.012645
C207  C     C_R   0.150717 0.163517 0.257563 -0.026349
C208  C     C_R   0.764904 0.765568 0.611687 -0.025463
C209  C     C_R   0.159975 0.852344 0.252838 -0.023520
C210  C     C_R   0.763531 0.227036 0.619544 -0.012776
C211  C     C_R   0.763949 0.764791 0.390515 -0.026840
C212  C     C_R   0.229352 0.236065 0.617564 -0.012781
C213  C     C_R   0.338725 0.649098 0.754645 -0.025482
C214  C     C_R   0.119996 0.940367 0.415691 -0.139722
C215  C     C_R   0.736967 0.275666 0.123925 -0.019989
C216  C     C_R   0.650117 0.664984 0.756537 -0.021928
C217  C     C_R   0.271248 0.264477 0.118929 -0.012587
C218  C     C_R   0.660492 0.350216 0.754868 -0.024410
C219  C     C_R   0.263145 0.728829 0.116869 -0.014232
C220  C     C_R   0.351254 0.338095 0.754968 -0.026240
C221  C     C_R   0.660165 0.646373 0.248940 -0.016992
C222  C     C_R   0.269732 0.731285 0.639006 0.148932
C223  C     C_R   0.830067 0.170392 0.202473 0.148173
C224  C     C_R   0.723676 0.735089 0.635625 0.152610
H1    H     H_    0.167473 0.051393 0.566238 0.090498
H2    H     H_    0.833226 0.049504 0.568175 0.094473
H3    H     H_    0.954547 0.073529 0.196516 0.248702
H4    H     H_    0.167992 0.701772 0.540437 0.162498
H5    H     H_    0.244906 0.670312 0.504548 0.247711
H6    H     H_    0.282671 0.714912 0.539891 0.256809
H7    H     H_    0.240491 0.738565 0.492148 0.246870
H8    H     H_    0.140812 0.039001 0.231629 0.167777
H9    H     H_    0.089376 0.056716 0.162147 0.253703
H10   H     H_    0.084058 0.123173 0.180298 0.259808
H11   H     H_    0.052869 0.073148 0.215805 0.251748
H12   H     H_    0.691568 0.850680 0.553008 0.162135
H13   H     H_    0.043787 0.159980 0.414455 0.089314
H14   H     H_    0.644675 0.783432 0.514877 0.247828
H15   H     H_    0.689526 0.736702 0.538245 0.263230
H16   H     H_    0.709964 0.782422 0.492009 0.258195
H17   H     H_    0.037039 0.868485 0.221835 0.166099
H18   H     H_    0.061061 0.916867 0.152258 0.249893
H19   H     H_    0.127035 0.918401 0.172913 0.257366
H20   H     H_    0.077724 0.953606 0.205817 0.250288
H21   H     H_    0.830908 0.297969 0.541213 0.162587
H22   H     H_    0.753511 0.328962 0.505587 0.247574
H23   H     H_    0.716308 0.284114 0.541029 0.256824
H24   H     H_    0.948591 0.832329 0.563586 0.089219
H25   H     H_    0.758248 0.260743 0.493147 0.247632
H26   H     H_    0.701347 0.865968 0.350177 0.161265
H27   H     H_    0.699364 0.834566 0.267863 0.246654
H28   H     H_    0.750392 0.790059 0.283199 0.270597
H29   H     H_    0.762810 0.858752 0.283387 0.246585
H30   H     H_    0.300535 0.165324 0.542230 0.162661
H31   H     H_    0.334038 0.240966 0.505648 0.247768
H32   H     H_    0.289235 0.279889 0.539397 0.256604
H33   H     H_    0.265841 0.237293 0.491918 0.247066
H34   H     H_    0.866570 0.703375 0.652265 0.161753
H35   H     H_    0.850964 0.029893 0.402966 0.098132
H36   H     H_    0.834855 0.701223 0.734354 0.245748
H37   H     H_    0.789769 0.751642 0.718881 0.271590
H38   H     H_    0.858479 0.764795 0.719104 0.247661
H39   H     H_    0.139793 0.275014 0.306193 0.160100
H40   H     H_    0.230869 0.297650 0.305584 0.250857
H41   H     H_    0.245749 0.229676 0.303982 0.262481
H42   H     H_    0.214416 0.257179 0.356642 0.244685
H43   H     H_    0.281435 0.871527 0.679845 0.162197
H44   H     H_    0.279127 0.826254 0.755750 0.245440
H45   H     H_    0.237869 0.778294 0.728284 0.272873
H46   H     H_    0.166913 0.950299 0.567974 0.094742
H47   H     H_    0.214461 0.843429 0.736866 0.248172
H48   H     H_    0.737225 0.106881 0.291361 0.161829
H49   H     H_    0.699401 0.190924 0.281694 0.246776
H50   H     H_    0.763471 0.217583 0.275304 0.269977
H51   H     H_    0.743493 0.190021 0.332706 0.247101
H52   H     H_    0.129110 0.283588 0.675485 0.162196
H53   H     H_    0.172541 0.282675 0.752447 0.245410
H54   H     H_    0.220805 0.240445 0.727128 0.273816
H55   H     H_    0.155073 0.217854 0.734703 0.248151
H56   H     H_    0.849475 0.691614 0.448918 0.162247
H57   H     H_    0.947549 0.831864 0.438328 0.086697
H58   H     H_    0.782239 0.645138 0.487438 0.247976
H59   H     H_    0.735362 0.689977 0.464292 0.263256
H60   H     H_    0.781639 0.710356 0.510260 0.257902
H61   H     H_    0.719796 0.127472 0.681056 0.161903
H62   H     H_    0.722607 0.172823 0.756934 0.245387
H63   H     H_    0.763359 0.220961 0.729221 0.272571
H64   H     H_    0.787161 0.155948 0.737732 0.248120
H65   H     H_    0.269741 0.857387 0.308213 0.160853
H66   H     H_    0.287487 0.765885 0.304451 0.250074
H67   H     H_    0.219129 0.754732 0.296163 0.262872
H68   H     H_    0.050123 0.166834 0.567404 0.094176
H69   H     H_    0.242978 0.781180 0.352775 0.245517
H70   H     H_    0.463921 0.643081 0.729857 0.167996
H71   H     H_    0.447977 0.593495 0.658911 0.255203
H72   H     H_    0.381297 0.586213 0.676059 0.258535
H73   H     H_    0.431598 0.554888 0.711298 0.249337
H74   H     H_    0.685155 0.210586 0.031847 0.163249
H75   H     H_    0.768219 0.192000 0.000175 0.248067
H76   H     H_    0.797259 0.235298 0.043373 0.257538
H77   H     H_    0.757072 0.260513 0.994827 0.246687
H78   H     H_    0.627026 0.544115 0.724532 0.168278
H79   H     H_    0.650643 0.532714 0.096277 0.100078
H80   H     H_    0.573305 0.570595 0.658905 0.253594
H81   H     H_    0.573631 0.635595 0.681853 0.258323
H82   H     H_    0.541289 0.584824 0.715544 0.250261
H83   H     H_    0.199527 0.334401 0.043090 0.162752
H84   H     H_    0.165771 0.258377 0.007303 0.247791
H85   H     H_    0.210806 0.219811 0.041318 0.256597
H86   H     H_    0.233872 0.261899 0.993388 0.247113
H87   H     H_    0.534947 0.355662 0.730276 0.167911
H88   H     H_    0.550371 0.404031 0.658679 0.253695
H89   H     H_    0.617245 0.411374 0.675380 0.257854
H90   H     H_    0.343644 0.459910 0.908738 0.094883
H91   H     H_    0.567396 0.443394 0.710437 0.247337
H92   H     H_    0.334845 0.800838 0.042886 0.162912
H93   H     H_    0.259397 0.835767 0.006830 0.247569
H94   H     H_    0.219896 0.790734 0.039781 0.256574
H95   H     H_    0.262239 0.767995 0.991939 0.247333
H96   H     H_    0.362960 0.462321 0.728262 0.168173
H97   H     H_    0.414048 0.443320 0.659114 0.253007
H98   H     H_    0.418118 0.376863 0.677528 0.257873
H99   H     H_    0.450372 0.426428 0.712900 0.250279
H100  H     H_    0.765509 0.656824 0.184679 0.161419
H101  H     H_    0.550956 0.332937 0.067575 0.092929
H102  H     H_    0.774340 0.748067 0.199854 0.249495
H103  H     H_    0.706979 0.749853 0.216753 0.262409
H104  H     H_    0.725089 0.735354 0.154777 0.246747
H105  H     H_    0.371790 0.217669 0.177312 0.162399
H106  H     H_    0.328789 0.219590 0.254308 0.245395
H107  H     H_    0.280413 0.261536 0.228564 0.273447
H108  H     H_    0.346207 0.284164 0.235806 0.248056
H109  H     H_    0.658802 0.772422 0.816577 0.161223
H110  H     H_    0.750591 0.782677 0.802869 0.250348
H111  H     H_    0.754341 0.714429 0.790409 0.261648
H112  H     H_    0.831673 0.947761 0.438465 0.088222
H113  H     H_    0.460130 0.655958 0.908585 0.094821
H114  H     H_    0.737559 0.736697 0.850629 0.246125
H115  H     H_    0.769294 0.366335 0.198854 0.160916
H116  H     H_    0.749612 0.317455 0.271543 0.249335
H117  H     H_    0.707924 0.276889 0.235238 0.262663
H118  H     H_    0.692121 0.344159 0.244059 0.246485
H119  H     H_    0.226814 0.634126 0.801949 0.160444
H120  H     H_    0.202135 0.724474 0.802740 0.250820
H121  H     H_    0.269944 0.740930 0.802232 0.262601
H122  H     H_    0.242495 0.707774 0.853945 0.244611
H123  H     H_    0.540270 0.620200 0.283843 0.165832
H124  H     H_    0.332647 0.448732 0.066423 0.090825
H125  H     H_    0.570683 0.572877 0.351872 0.248266
H126  H     H_    0.635639 0.576423 0.329026 0.257644
H127  H     H_    0.587582 0.538144 0.297282 0.247936
H128  H     H_    0.361293 0.226841 0.803804 0.160347
H129  H     H_    0.270051 0.204836 0.804015 0.251065
H130  H     H_    0.255624 0.272915 0.802517 0.262617
H131  H     H_    0.287514 0.245189 0.854908 0.244568
H132  H     H_    0.213736 0.628311 0.172452 0.162158
H133  H     H_    0.216220 0.669097 0.250672 0.246336
H134  H     H_    0.260179 0.716634 0.226529 0.271893
H135  H     H_    0.656381 0.540239 0.908958 0.096193
H136  H     H_    0.280421 0.650099 0.232240 0.247365
H137  H     H_    0.772569 0.366044 0.802423 0.160830
H138  H     H_    0.797635 0.275862 0.803160 0.250785
H139  H     H_    0.729908 0.259063 0.802113 0.262504
H140  H     H_    0.757007 0.292143 0.854140 0.244840
H141  H     H_    0.447355 0.667726 0.064284 0.092090
H142  H     H_    0.539774 0.343976 0.908666 0.094816
H143  H     H_    0.657782 0.458898 0.911159 0.091323
H144  H     H_    0.332845 0.549634 0.066714 0.093533
H145  H     H_    0.541677 0.658143 0.911654 0.092849
H146  H     H_    0.450006 0.333232 0.067671 0.094608
H147  H     H_    0.341981 0.541192 0.911240 0.090601
H148  H     H_    0.051327 0.832814 0.566540 0.090638
H149  H     H_    0.667101 0.449325 0.067851 0.095642
H150  H     H_    0.458324 0.341951 0.911630 0.090728
H151  H     H_    0.531336 0.648312 0.098422 0.103950
H152  H     H_    0.252983 0.620739 0.703160 0.114196
H153  H     H_    0.836595 0.290479 0.153695 0.115602
H154  H     H_    0.626792 0.757894 0.715846 0.115240
H155  H     H_    0.274070 0.160809 0.137314 0.118646
H156  H     H_    0.745709 0.378999 0.703217 0.114373
H157  H     H_    0.158896 0.727145 0.134117 0.118455
H158  H     H_    0.379161 0.251210 0.705710 0.113643
H159  H     H_    0.963664 0.151111 0.402992 0.094303
H160  H     H_    0.614857 0.711567 0.314358 0.120899
H161  H     H_    0.176301 0.294971 0.149084 0.120398
H162  H     H_    0.713339 0.618384 0.690209 0.119410
H163  H     H_    0.720510 0.172471 0.134942 0.119143
H164  H     H_    0.382712 0.725491 0.700870 0.117959
H165  H     H_    0.754429 0.625126 0.288112 0.116456
H166  H     H_    0.277388 0.382733 0.698362 0.117284
H167  H     H_    0.294826 0.822552 0.148951 0.119772
H168  H     H_    0.617063 0.272920 0.701662 0.117700
H169  H     H_    0.771616 0.113654 0.184629 0.118939
H170  H     H_    0.832118 0.948472 0.563485 0.086413
H171  H     H_    0.340110 0.776412 0.638119 0.118596
H172  H     H_    0.122295 0.249999 0.207767 0.113934
H173  H     H_    0.759039 0.660568 0.623669 0.120587
H174  H     H_    0.249147 0.877731 0.206076 0.114388
H175  H     H_    0.660039 0.221818 0.639395 0.118439
H176  H     H_    0.799963 0.677883 0.347338 0.120453
H177  H     H_    0.226871 0.339989 0.635194 0.118656
H178  H     H_    0.678132 0.802204 0.654897 0.120750
H179  H     H_    0.224490 0.118735 0.201245 0.117588
H180  H     H_    0.207306 0.675905 0.645853 0.120374
H181  H     H_    0.157991 0.041626 0.411285 0.093994
H182  H     H_    0.883460 0.234507 0.209389 0.120618
H183  H     H_    0.324492 0.205753 0.647717 0.120187
H184  H     H_    0.658535 0.759252 0.379098 0.120405
H185  H     H_    0.791802 0.323790 0.646443 0.120430
H186  H     H_    0.115519 0.778582 0.196118 0.117555
H187  H     H_    0.960465 0.122170 0.309934 0.131277
H188  H     H_    0.133378 0.787045 0.542344 0.122398
H189  H     H_    0.114588 0.052526 0.314599 0.135094
H190  H     H_    0.779526 0.875832 0.545493 0.118710
H191  H     H_    0.048227 0.894125 0.305438 0.132192
H192  H     H_    0.948658 0.167164 0.566712 0.091166
H193  H     H_    0.866032 0.212884 0.542894 0.122651
H194  H     H_    0.790246 0.892692 0.374920 0.125515
H195  H     H_    0.214642 0.131805 0.543174 0.122210
H196  H     H_    0.893181 0.791694 0.627195 0.127107
H197  H     H_    0.133826 0.204033 0.374687 0.130580
H198  H     H_    0.195883 0.894005 0.646072 0.129089
H199  H     H_    0.803442 0.102718 0.356513 0.125086
H200  H     H_    0.106226 0.197559 0.643441 0.128774
H201  H     H_    0.874925 0.779367 0.456339 0.119008
H202  H     H_    0.805094 0.105480 0.646790 0.128977
H203  H     H_    0.031604 0.850334 0.403016 0.102507
H204  H     H_    0.196448 0.868341 0.371211 0.130362
H205  H     H_    0.450323 0.614626 0.812205 0.133948
H206  H     H_    0.643619 0.293188 0.037543 0.125983
H207  H     H_    0.603495 0.555257 0.809213 0.135145
H208  H     H_    0.285421 0.367973 0.043592 0.122311
H209  H     H_    0.548990 0.384413 0.812319 0.134075
H210  H     H_    0.367726 0.715002 0.042723 0.122527
H211  H     H_    0.388432 0.449144 0.811599 0.134681
H212  H     H_    0.691399 0.637111 0.128674 0.129670
H213  H     H_    0.394468 0.303324 0.144331 0.128832
H214  H     H_    0.155618 0.960242 0.408284 0.091997
H215  H     H_    0.643434 0.699171 0.876422 0.129559
H216  H     H_    0.682944 0.389994 0.158542 0.131587
H217  H     H_    0.297471 0.628396 0.870943 0.130229
H218  H     H_    0.549758 0.596034 0.199571 0.131935
H219  H     H_    0.367538 0.298239 0.872404 0.130758
H220  H     H_    0.300490 0.605218 0.140896 0.128318
H221  H     H_    0.702261 0.372119 0.870970 0.129715
H222  H     H_    0.975786 0.159560 0.232227 0.167542
H223  H     H_    0.971395 0.123406 0.153551 0.252469
H224  H     H_    0.904603 0.106881 0.162613 0.257731
N1    N     N_R   0.086860 0.049310 0.548290 -0.039449
N2    N     N_R   0.913140 0.049310 0.548290 -0.039509
N3    N     N_R   0.049310 0.086860 0.451710 -0.036840
N4    N     N_R   0.950690 0.913140 0.548290 -0.037799
N5    N     N_R   0.913140 0.049310 0.451710 -0.039247
N6    N     N_R   0.086860 0.950690 0.548290 -0.039247
N7    N     N_R   0.950690 0.913140 0.451710 -0.037237
N8    N     N_R   0.049310 0.086860 0.548290 -0.039006
N9    N     N_R   0.586860 0.549310 0.048290 -0.040583
N10   N     N_R   0.413140 0.450690 0.951710 -0.038294
N11   N     N_R   0.549310 0.413140 0.048290 -0.039025
N12   N     N_R   0.913140 0.950690 0.451710 -0.036343
N13   N     N_R   0.450690 0.586860 0.951710 -0.037566
N14   N     N_R   0.413140 0.450690 0.048290 -0.039709
N15   N     N_R   0.586860 0.549310 0.951710 -0.039153
N16   N     N_R   0.450690 0.586860 0.048290 -0.038516
N17   N     N_R   0.549310 0.413140 0.951710 -0.038108
N18   N     N_R   0.586860 0.450690 0.951710 -0.037554
N19   N     N_R   0.413140 0.549310 0.048290 -0.038432
N20   N     N_R   0.549310 0.586860 0.951710 -0.038657
N21   N     N_R   0.450690 0.413140 0.048290 -0.039187
N22   N     N_R   0.413140 0.549310 0.951710 -0.037565
N23   N     N_R   0.049310 0.913140 0.548290 -0.039595
N24   N     N_R   0.586860 0.450690 0.048290 -0.038283
N25   N     N_R   0.450690 0.413140 0.951710 -0.037628
N26   N     N_R   0.549310 0.586860 0.048290 -0.040721
N27   N     N_2   0.939724 0.149684 0.219102 -0.116900
N28   N     N_2   0.202743 0.713094 0.555498 -0.115794
N29   N     N_2   0.133772 0.077086 0.223026 -0.115003
N30   N     N_2   0.700810 0.813228 0.562189 -0.114153
N31   N     N_2   0.075919 0.872923 0.214707 -0.114656
N32   N     N_2   0.796351 0.286417 0.556380 -0.116048
N33   N     N_2   0.718284 0.831080 0.341858 -0.114004
N34   N     N_R   0.950690 0.086860 0.451710 -0.039086
N35   N     N_2   0.289418 0.200413 0.556431 -0.115781
N36   N     N_2   0.831471 0.720089 0.660384 -0.114434
N37   N     N_2   0.167220 0.248981 0.294570 -0.111550
N38   N     N_2   0.268650 0.833839 0.680592 -0.114382
N39   N     N_2   0.758995 0.136541 0.277035 -0.114095
N40   N     N_2   0.166667 0.270427 0.677402 -0.114505
N41   N     N_2   0.811893 0.700903 0.439918 -0.114046
N42   N     N_2   0.732357 0.165237 0.681729 -0.114355
N43   N     N_2   0.243066 0.832370 0.293287 -0.111538
N44   N     N_2   0.426023 0.635320 0.720701 -0.115292
N45   N     N_R   0.913140 0.950690 0.548290 -0.038567
N46   N     N_2   0.716947 0.223081 0.051252 -0.116393
N47   N     N_2   0.622544 0.583102 0.718339 -0.115129
N48   N     N_2   0.210746 0.299465 0.057597 -0.115775
N49   N     N_2   0.572829 0.363106 0.720931 -0.115671
N50   N     N_2   0.299570 0.789759 0.056860 -0.115645
N51   N     N_2   0.369338 0.424056 0.719942 -0.115084
N52   N     N_2   0.738367 0.675879 0.205376 -0.112279
N53   N     N_2   0.334245 0.230871 0.179121 -0.114346
N54   N     N_2   0.679218 0.744801 0.797696 -0.112251
N55   N     N_2   0.754040 0.329661 0.196398 -0.112496
N56   N     N_R   0.086860 0.049310 0.451710 -0.037424
N57   N     N_2   0.252373 0.662391 0.791090 -0.111606
N58   N     N_2   0.579647 0.618555 0.289592 -0.116565
N59   N     N_2   0.333877 0.253054 0.792417 -0.111273
N60   N     N_2   0.227919 0.665372 0.175459 -0.114081
N61   N     N_2   0.747109 0.337727 0.791379 -0.111602
N62   N     N_R   0.950690 0.086860 0.548290 -0.039567
N63   N     N_R   0.049310 0.913140 0.451710 -0.039462
N64   N     N_R   0.086860 0.950690 0.451710 -0.037986
Ni1   Ni    Ni4+2 0.086090 0.000000 0.500000 0.208613
Ni2   Ni    Ni4+2 0.913910 0.000000 0.500000 0.207083
Ni3   Ni    Ni4+2 0.000000 0.913910 0.500000 0.205534
Ni4   Ni    Ni4+2 1.000000 0.086090 0.500000 0.208780
Ni5   Ni    Ni4+2 0.586090 0.500000 0.000000 0.210617
Ni6   Ni    Ni4+2 0.413910 0.500000 0.000000 0.208575
Ni7   Ni    Ni4+2 0.500000 0.413910 0.000000 0.208514
Ni8   Ni    Ni4+2 0.500000 0.586090 0.000000 0.209339

loop_
_geom_bond_atom_site_label_1
_geom_bond_atom_site_label_2
_ccdc_geom_bond_type
H52   N40   S    
C32   C166  S    
C186  C193  A    
C9    C169  A    
C30   C164  S    
C88   N46   S    
C5    C204  A    
C131  H104  S    
C19   C46   A    
C50   H202  S    
C133  H114  S    
N14   Ni6   S    
C112  H112  S    
C119  N40   S    
N15   Ni5   S    
C26   C151  A    
C77   N35   S    
C63   C98   A    
C3    C189  A    
C119  H55   S    
C138  H131  S    
C21   C170  A    
C108  N30   S    
C67   H220  S    
C36   H188  S    
C27   C90   A    
C135  N15   A    
H109  N54   S    
C39   C74   A    
C17   C160  S    
C65   H218  S    
C9    C182  A    
C115  H37   S    
C57   H57   S    
C48   H200  S    
N1    Ni1   S    
C30   C146  A    
C60   H212  S    
C61   H213  S    
H65   N43   S    
C36   C71   A    
C11   C216  S    
C59   H211  S    
C107  H9    S    
C173  H155  S    
C151  H151  S    
C134  H117  S    
C72   N29   S    
C150  N25   A    
C36   C153  A    
C31   C163  S    
C201  H184  S    
C127  H85   S    
C55   H208  S    
C190  H173  S    
C40   C157  A    
C178  C189  A    
C13   H13   S    
C99   C213  A    
C142  N17   A    
C9    C213  S    
C180  H163  S    
C205  C223  S    
C106  H6    S    
C43   C78   A    
C91   C217  A    
C106  N28   S    
C29   C147  A    
C116  H40   S    
C180  C187  A    
C190  C224  A    
C133  H111  S    
C137  H127  S    
C62   C163  A    
N62   Ni4   S    
N64   Ni1   S    
C181  N56   A    
C122  H69   S    
C196  C224  A    
C103  N60   S    
N14   N21   A    
C73   C208  A    
C121  N42   S    
C100  N58   S    
C19   C153  S    
C172  C196  A    
C11   C179  A    
C131  H102  S    
C59   C167  A    
C2    H2    S    
C159  N34   A    
C214  H214  S    
C29   C113  A    
C37   C154  A    
C45   C81   A    
C91   N48   S    
C119  H53   S    
C138  H129  S    
C117  H45   S    
C16   C184  A    
C22   C181  A    
C184  C195  A    
C19   C148  A    
C3    C207  S    
C122  N43   S    
C44   C154  A    
C7    C201  A    
C66   H219  S    
C41   C76   A    
C109  H18   S    
N16   N19   A    
C12   C185  A    
C53   H206  S    
C143  N18   A    
C121  H62   S    
C78   N36   S    
C193  H175  S    
C32   C144  A    
C117  H44   S    
C194  H176  S    
C187  H169  S    
C41   C158  A    
C31   C145  A    
C60   C95   A    
C47   C152  A    
C38   H190  S    
C138  N59   S    
C21   C24   A    
C69   H221  S    
C97   N54   S    
C150  H150  S    
C206  C222  S    
C42   H195  S    
C14   C218  S    
C90   N10   A    
C87   N44   S    
C130  H98   S    
C110  H23   S    
C111  H29   S    
C75   C210  A    
N26   Ni8   S    
C130  N51   S    
N3    Ni4   S    
C122  H66   S    
C86   C209  A    
H137  N61   S    
C123  H71   S    
C61   C96   A    
C113  H113  S    
C48   C160  A    
C65   C168  A    
C66   C167  A    
C100  C221  A    
C49   C84   A    
C172  H154  S    
C170  N45   A    
C175  C204  A    
C116  H42   S    
C81   N38   S    
C169  H152  S    
C136  N57   S    
H105  N53   S    
C127  H84   S    
C128  H89   S    
C148  N23   A    
C134  N55   S    
C183  C194  A    
C63   H216  S    
C186  H168  S    
C183  H165  S    
C20   C35   A    
C64   C99   A    
C97   C216  A    
N17   N18   A    
C56   C165  A    
C54   C163  A    
C86   N43   S    
C50   C85   A    
C8    C171  A    
C102  C220  A    
C68   N8    A    
C200  H183  S    
C125  H77   S    
C129  H94   S    
C192  H192  S    
C84   N41   S    
C149  N24   A    
C145  H145  S    
C115  N36   S    
C46   H46   S    
C25   C156  S    
C49   H201  S    
C123  H73   S    
N12   Ni2   S    
C38   C155  A    
C28   C101  A    
C23   C192  A    
C117  H47   S    
N17   Ni7   S    
C203  H203  S    
C146  N21   A    
C74   C209  A    
C173  C197  A    
C5    C191  A    
C126  H81   S    
C126  N47   S    
C13   N3    A    
N34   Ni4   S    
C125  H76   S    
C34   C152  A    
C132  H107  S    
C135  H135  S    
C109  H20   S    
C111  H28   S    
C214  N64   A    
C52   H205  S    
C102  N59   S    
C121  H64   S    
N4    Ni3   S    
C139  H136  S    
C116  N37   S    
C62   C97   A    
C182  H164  S    
C89   N47   S    
C28   C149  A    
C108  H15   S    
C80   N37   S    
C147  N22   A    
C21   C155  S    
C182  C188  A    
C34   H187  S    
C7    C194  A    
C73   N30   S    
C89   C216  A    
C191  H174  S    
H43   N38   S    
C93   N50   S    
C15   C177  A    
C101  N11   A    
N15   N20   A    
C177  C201  A    
C132  N53   S    
C188  H171  S    
N63   N64   A    
C117  N38   S    
C118  H50   S    
C67   C166  A    
N22   Ni6   S    
C33   C165  S    
C64   C161  A    
C136  H120  S    
N24   Ni5   S    
C7    C211  S    
C124  H124  S    
C208  C224  S    
C128  H91   S    
C5    C209  S    
C52   C161  A    
C1    C17   A    
C64   H217  S    
C48   C83   A    
C133  N54   S    
C93   C219  A    
C127  N48   S    
C105  H224  S    
C187  C223  A    
H100  N52   S    
C23   C157  S    
C16   C220  S    
C56   H209  S    
C105  H3    S    
C58   C166  A    
C114  H33   S    
C69   C165  A    
C199  H182  S    
C24   H24   S    
C111  N33   S    
C11   C172  A    
C126  H80   S    
C42   C77   A    
H115  N55   S    
C2    C23   A    
C142  H142  S    
C177  H160  S    
H17   N31   S    
H128  N59   S    
N6    Ni1   S    
C10   C217  S    
C188  C222  A    
C81   C206  A    
H123  N58   S    
C54   H207  S    
C140  H139  S    
C1    N1    A    
C98   C215  A    
C88   C215  A    
C61   C164  A    
C47   H199  S    
C134  H118  S    
H222  N27   S    
C8    C180  A    
C151  N26   A    
H34   N36   S    
H96   N51   S    
C33   C143  A    
C70   C205  A    
C114  H31   S    
C95   C221  A    
C58   C93   A    
C18   C112  A    
C139  H134  S    
C192  N62   A    
C22   C154  S    
C53   C162  A    
N6    N23   A    
C176  H158  S    
C96   C217  A    
C174  C202  A    
C106  H7    S    
N23   Ni3   S    
C55   C91   A    
C136  H121  S    
C90   H90   S    
C77   C212  A    
C124  N14   A    
C133  H110  S    
C137  H126  S    
C185  H167  S    
C202  H185  S    
N19   Ni6   S    
C15   C183  A    
H119  N57   S    
C59   C94   A    
H12   N30   S    
C34   C70   A    
C83   C212  A    
C16   C176  A    
N18   Ni5   S    
C120  H58   S    
C141  N16   A    
C98   N55   S    
C110  H25   S    
C134  H116  S    
C176  C200  A    
C43   C155  A    
N10   Ni6   S    
C51   C86   A    
C6    C195  A    
C185  C191  A    
N4    N45   A    
C25   C203  A    
C4    C193  A    
C197  H179  S    
N63   Ni3   S    
C84   C211  A    
C198  H180  S    
C67   C103  A    
C44   C80   A    
C196  H178  S    
C31   C135  A    
C138  H130  S    
C140  N61   S    
H132  N60   S    
C125  N46   S    
C20   C152  S    
C107  N29   S    
C181  H181  S    
C82   N39   S    
C18   C158  S    
C115  H38   S    
H8    N29   S    
C18   C57   A    
C131  H103  S    
C94   C220  A    
H78   N47   S    
C92   C218  A    
C104  C218  A    
C32   C141  A    
C107  H10   S    
C108  H14   S    
N13   N22   A    
C175  H157  S    
C68   H68   S    
N7    N12   A    
C46   N6    A    
C199  C223  A    
C83   N40   S    
C79   H79   S    
N10   N25   A    
C130  H99   S    
C1    H1    S    
C148  H148  S    
C127  H86   S    
C17   C68   A    
C62   H215  S    
C179  H162  S    
C122  H67   S    
C65   C100  A    
N5    Ni2   S    
C79   N9    A    
N16   Ni8   S    
N9    N26   A    
C141  H141  S    
C45   H198  S    
C95   N52   S    
C26   C79   A    
C109  N31   S    
C40   C75   A    
C147  H147  S    
C145  N20   A    
C43   H196  S    
C14   C174  A    
C41   H194  S    
C6    C200  A    
C125  H75   S    
C13   C22   A    
C203  N63   A    
N7    Ni3   S    
N56   Ni1   S    
C120  H60   S    
C144  H144  S    
C114  N35   S    
C37   C72   A    
C109  H19   S    
C111  H27   S    
C74   N31   S    
C71   N28   S    
C103  C219  A    
C129  H93   S    
C195  H177  S    
C63   C162  A    
C94   N51   S    
N25   Ni7   S    
C120  N41   S    
C92   N49   S    
C66   C102  A    
C118  N39   S    
C8    C215  S    
C85   C210  A    
C119  H54   S    
H74   N46   S    
C28   C162  S    
C58   H210  S    
C140  H138  S    
C35   H35   S    
C26   C168  S    
C60   C168  A    
N21   Ni7   S    
C25   C214  A    
C198  C222  A    
N9    Ni5   S    
C55   C164  A    
C126  H82   S    
C115  H36   S    
H70   N44   S    
C14   C186  A    
N11   Ni7   S    
C132  H108  S    
C6    C212  S    
C112  N12   A    
C42   C160  A    
C96   N53   S    
C4    C210  S    
C35   N5    A    
C121  H63   S    
C47   C82   A    
C171  H153  S    
C171  C199  A    
C10   C173  A    
C76   N33   S    
C132  H106  S    
C71   C206  A    
C108  H16   S    
C20   C159  A    
H83   N48   S    
H56   N41   S    
C178  H161  S    
C12   C219  S    
C70   N27   S    
C130  H97   S    
C39   H191  S    
N5    N34   A    
C146  H146  S    
H26   N33   S    
C123  H72   S    
C118  H51   S    
N8    Ni4   S    
C72   C207  A    
C78   C208  A    
C44   H197  S    
C120  H59   S    
C50   C157  A    
C101  H101  S    
C51   C156  A    
C123  N44   S    
C10   C178  A    
C29   C161  S    
N11   N24   A    
C54   C89   A    
C116  H41   S    
C149  H149  S    
C144  N19   A    
N2    N62   A    
N2    Ni2   S    
C15   C221  S    
C184  H166  S    
C189  H172  S    
C105  H223  S    
C139  N60   S    
C56   C92   A    
C99   N57   S    
C110  N32   S    
C27   C150  A    
C137  N58   S    
C87   C213  A    
C174  H156  S    
C12   C175  A    
C129  H95   S    
C76   C211  A    
C204  H186  S    
C51   H204  S    
C30   C124  A    
C131  N52   S    
C49   C158  A    
N45   Ni2   S    
C129  N50   S    
C24   N4    A    
C143  H143  S    
H4    N28   S    
H39   N37   S    
C69   C104  A    
C37   H189  S    
C140  H140  S    
C107  H11   S    
N20   Ni8   S    
H21   N32   S    
H87   N49   S    
C52   C87   A    
C105  N27   S    
C106  H5    S    
N13   Ni8   S    
C159  H159  S    
C33   C142  A    
C170  H170  S    
N1    N8    A    
C114  H32   S    
N3    N56   A    
H48   N39   S    
H92   N50   S    
H30   N35   S    
C128  H88   S    
C39   C156  A    
C139  H133  S    
C4    C202  A    
C57   N7    A    
C128  N49   S    
C110  H22   S    
C179  C190  A    
C75   N32   S    
C3    C197  A    
C53   C88   A    
C82   C205  A    
H61   N42   S    
C136  H122  S    
C85   N42   S    
C137  H125  S    
C40   H193  S    
C80   C207  A    
C45   C153  A    
C118  H49   S    
C104  N61   S    
C27   C167  S    
C169  C198  A    
C2    N2    A    
C38   C73   A    
C113  N13   A    
