data_mof_unit_66590.cif
_audit_creation_date              2012-10-26T18:27:30-0400
_audit_creation_method            fapswitch 2.2
_symmetry_space_group_name_H-M    P1
_symmetry_Int_Tables_number       1
_space_group_crystal_system       triclinic
_cell_length_a                    10.773189
_cell_length_b                    11.014489
_cell_length_c                    10.01547
_cell_angle_alpha                 110.899946
_cell_angle_beta                  98.615565
_cell_angle_gamma                 93.983553
_cell_volume                      1087.96258966

loop_
_atom_site_label
_atom_site_type_symbol
_atom_type_description
_atom_site_fract_x
_atom_site_fract_y
_atom_site_fract_z
_atom_type_partial_charge
C1    C     C_R   0.484263 0.254278 0.440457 0.523551
C2    C     C_2   0.461242 0.933119 0.497568 0.360348
C3    C     C_2   0.506872 0.520455 0.084766 0.058365
C4    C     C_R   0.263605 0.505765 0.501650 0.610729
C5    C     C_2   0.480773 0.498042 0.923969 0.056873
C6    C     C_R   0.509453 0.745945 0.559758 0.705999
C7    C     C_R   0.737249 0.503326 0.500719 0.602714
C8    C     C_R   0.169526 0.746906 0.684799 0.380476
C9    C     C_R   0.122643 0.858134 0.768032 0.363830
C10   C     C_R   0.993598 0.858616 0.760891 -0.126230
C11   C     C_R   0.909652 0.747699 0.672115 0.287125
C12   C     C_R   0.086957 0.630901 0.594426 -0.081559
C13   C     C_R   0.954689 0.630693 0.590835 -0.044782
C14   C     C_R   0.357192 0.421492 0.841266 0.076052
C15   C     C_R   0.347521 0.284803 0.773779 -0.082695
C16   C     C_R   0.230121 0.210123 0.702054 -0.076970
C17   C     C_R   0.120963 0.271418 0.700559 -0.110027
C18   C     C_R   0.128977 0.406836 0.773751 -0.130088
C19   C     C_R   0.246153 0.481510 0.847475 -0.062468
C20   C     C_R   0.592195 0.642752 0.181889 0.088206
C21   C     C_R   0.718711 0.638818 0.239522 -0.048933
C22   C     C_R   0.802569 0.754074 0.315358 -0.085818
C23   C     C_R   0.130613 0.516100 0.504578 0.030958
C24   C     C_R   0.764594 0.874565 0.324059 -0.141520
C25   C     C_R   0.643124 0.879336 0.256391 -0.121941
C26   C     C_R   0.556577 0.764711 0.187563 -0.025287
C27   C     C_R   0.687769 0.579879 0.916396 0.174504
C28   C     C_R   0.756861 0.477886 0.923543 -0.104042
C29   C     C_R   0.887909 0.503558 0.973070 -0.160228
C30   C     C_R   0.951274 0.629628 0.010393 -0.122175
C31   C     C_R   0.883793 0.729859 0.997031 -0.109405
C32   C     C_R   0.752598 0.704752 0.948322 -0.016148
C33   C     C_R   0.602031 0.975530 0.734154 -0.006967
C34   C     C_R   0.045636 0.405752 0.414513 -0.161393
C35   C     C_R   0.557299 0.004793 0.865322 -0.075462
C36   C     C_R   0.630534 0.094500 0.995077 -0.123238
C37   C     C_R   0.748489 0.155499 0.994444 -0.121710
C38   C     C_R   0.793926 0.126156 0.864557 -0.125610
C39   C     C_R   0.721635 0.035665 0.734928 -0.074221
C40   C     C_R   0.917764 0.404382 0.415300 -0.188249
C41   C     C_R   0.872007 0.514422 0.503070 0.023398
C42   C     C_2   0.456507 0.114448 0.408307 0.359803
C43   C     C_2   0.489560 0.070153 0.514625 -0.112294
C44   C     C_2   0.520422 0.887303 0.594732 0.016621
Cu1   Cu    Cu3+1 0.521920 0.521810 0.644910 1.026328
Cu2   Cu    Cu3+1 0.478080 0.478190 0.355090 1.020060
F1    F     F_    0.393249 0.033735 0.273967 -0.588969
F2    F     F_    0.295806 0.756382 0.693455 -0.625469
F3    F     F_    0.203205 0.967612 0.854337 -0.615356
F4    F     F_    0.784832 0.758583 0.663706 -0.657978
F5    F     F_    0.373933 0.851910 0.380949 -0.579416
H1    H     H_    0.079122 0.318320 0.346442 0.137797
H2    H     H_    0.251089 0.586267 0.904793 0.134796
H3    H     H_    0.755713 0.546305 0.216889 0.130932
H4    H     H_    0.899180 0.749208 0.359955 0.130224
H5    H     H_    0.830885 0.963539 0.377872 0.106348
H6    H     H_    0.617295 0.971774 0.254875 0.147954
H7    H     H_    0.463452 0.770149 0.133363 0.195466
H8    H     H_    0.708578 0.379775 0.893197 0.112488
H9    H     H_    0.940407 0.425781 0.982347 0.120889
H10   H     H_    0.052737 0.649408 0.048738 0.148260
H11   H     H_    0.933007 0.827198 0.025175 0.135707
H12   H     H_    0.386909 0.362650 0.065982 0.223280
H13   H     H_    0.701072 0.782917 0.938066 0.151055
H14   H     H_    0.465151 0.959992 0.866751 0.227267
H15   H     H_    0.595290 0.117783 0.095779 0.153071
H16   H     H_    0.804523 0.226106 0.094138 0.111350
H17   H     H_    0.885174 0.173680 0.864180 0.110209
H18   H     H_    0.757438 0.014452 0.634751 0.117143
H19   H     H_    0.958392 0.946083 0.824636 0.160216
H20   H     H_    0.853967 0.315709 0.349397 0.103203
H21   H     H_    0.544998 0.137752 0.616737 0.045240
H22   H     H_    0.430495 0.236372 0.781369 0.108651
H23   H     H_    0.223701 0.104760 0.648932 0.168446
H24   H     H_    0.030067 0.213956 0.644067 0.107324
H25   H     H_    0.044565 0.454055 0.771357 0.128651
N1    N     N_2   0.445130 0.445430 0.137370 -0.359729
N2    N     N_2   0.554930 0.554500 0.862630 -0.274526
O1    O     O_R   0.511700 0.332330 0.577400 -0.557622
O2    O     O_R   0.474680 0.295500 0.332650 -0.474775
O3    O     O_R   0.338160 0.518420 0.622400 -0.458284
O4    O     O_R   0.301140 0.481590 0.377650 -0.490397
O5    O     O_R   0.525320 0.704500 0.667350 -0.426146
O6    O     O_R   0.488300 0.667670 0.422600 -0.442671
O7    O     O_R   0.698860 0.518410 0.622350 -0.458853
O8    O     O_R   0.661840 0.481580 0.377600 -0.532257

loop_
_geom_bond_atom_site_label_1
_geom_bond_atom_site_label_2
_ccdc_geom_bond_type
C43   H21   S    
C40   H20   S    
C35   C36   A    
C27   N2    S    
C13   C41   A    
Cu1   Cu2   S    
C12   C23   A    
C37   C38   A    
C16   H23   S    
C28   C29   A    
C21   H3    S    
C36   H15   S    
C7    O8    A    
C35   H14   S    
C15   C16   A    
C18   C19   A    
Cu2   O4    S    
C4    O3    A    
C2    C44   D    
C8    C9    A    
Cu1   N2    S    
C9    C10   A    
C19   H2    S    
C6    C44   S    
C21   C22   A    
C31   H11   S    
Cu1   O5    S    
C25   H6    S    
C38   C39   A    
C6    O6    A    
C9    F3    S    
C24   C25   A    
C32   H13   S    
C10   C11   A    
C4    C23   S    
C16   C17   A    
C25   C26   A    
Cu1   O7    S    
C8    F2    S    
C29   C30   A    
C31   C32   A    
C29   H9    S    
C2    C43   S    
C8    C12   A    
C23   C34   A    
C17   C18   A    
C39   H18   S    
C3    C20   S    
Cu1   O1    S    
C33   C39   A    
C12   C13   A    
C26   H7    S    
C5    C14   S    
Cu2   O6    S    
C10   H19   S    
C40   C41   A    
C15   H22   S    
C38   H17   S    
C1    O1    A    
C22   C24   A    
C42   C43   D    
C3    N1    D    
H12   N1    S    
C28   H8    S    
C36   C37   A    
C18   H25   S    
C6    O5    A    
C27   C32   A    
C33   C44   S    
C14   C19   A    
Cu1   O3    S    
C3    C5    S    
Cu2   N1    S    
C22   H4    S    
C24   H5    S    
C34   H1    S    
C11   F4    S    
Cu2   O2    S    
C11   C13   A    
C30   C31   A    
C7    O7    A    
C20   C26   A    
C37   H16   S    
C33   C35   A    
C42   F1    S    
C7    C41   S    
C2    F5    S    
C1    C42   S    
C4    O4    A    
C20   C21   A    
C30   H10   S    
C27   C28   A    
C17   H24   S    
C1    O2    A    
C14   C15   A    
C34   C40   A    
C5    N2    D    
Cu2   O8    S    
