data_mof_unit_5235.cif
_audit_creation_date              2012-12-11T15:54:58-0500
_audit_creation_method            fapswitch 2.2
_symmetry_space_group_name_H-M    P1
_symmetry_Int_Tables_number       1
_space_group_crystal_system       triclinic
_cell_length_a                    17.525354
_cell_length_b                    24.390069
_cell_length_c                    14.991377
_cell_angle_alpha                 89.999807
_cell_angle_beta                  125.895975
_cell_angle_gamma                 90.000294
_cell_volume                      5190.99704476

loop_
_atom_site_label
_atom_site_type_symbol
_atom_type_description
_atom_site_fract_x
_atom_site_fract_y
_atom_site_fract_z
_atom_type_partial_charge
C1    C     C_R   0.902340 0.876306 0.092449 -0.098025
C2    C     C_R   0.150044 0.848039 0.090886 -0.152166
C3    C     C_R   0.313416 0.637519 0.000061 0.017812
C4    C     C_R   0.699119 0.999960 0.630752 0.057520
C5    C     C_R   0.199119 0.500040 0.630752 0.057501
C6    C     C_R   0.065505 0.999761 0.367353 0.012450
C7    C     C_R   0.565514 0.500238 0.367357 0.012425
C8    C     C_R   0.267969 0.953961 0.247605 -0.139882
C9    C     C_R   0.268026 0.045995 0.247656 -0.131441
C10   C     C_R   0.768027 0.454006 0.247656 -0.131446
C11   C     C_R   0.767968 0.546040 0.247606 -0.139879
C12   C     C_R   0.018641 0.045793 0.750188 -0.077245
C13   C     C_R   0.650046 0.651960 0.090885 -0.152170
C14   C     C_R   0.019898 0.953658 0.752581 -0.103997
C15   C     C_R   0.519898 0.546342 0.752580 -0.103947
C16   C     C_R   0.518639 0.454207 0.750186 -0.077269
C17   C     C_2   0.218822 0.047818 0.755893 0.523907
C18   C     C_2   0.886975 0.964697 0.501660 0.596245
C19   C     C_2   0.386999 0.535334 0.501667 0.596236
C20   C     C_2   0.718795 0.452148 0.755880 0.523879
C21   C     C_2   0.786898 0.149711 0.181753 0.493719
C22   C     C_2   0.790274 0.849008 0.185024 0.489502
C23   C     C_2   0.290332 0.651026 0.185074 0.489456
C24   C     C_R   0.650613 0.348215 0.090716 -0.149529
C25   C     C_2   0.287047 0.350211 0.181891 0.493615
C26   C     C_R   0.324258 0.999959 0.273746 0.002006
C27   C     C_R   0.824258 0.500042 0.273747 0.001995
C28   C     C_R   0.047368 0.999456 0.723288 0.002164
C29   C     C_R   0.547368 0.500543 0.723288 0.002139
C30   C     C_R   0.120910 0.817780 0.998353 0.013060
C31   C     C_R   0.122032 0.181717 0.997962 0.010542
C32   C     C_R   0.622048 0.318289 0.997962 0.010555
C33   C     C_R   0.902141 0.123603 0.092277 -0.097605
C34   C     C_R   0.620915 0.682218 0.998352 0.013062
C35   C     C_3   0.134142 0.044644 0.549972 -0.502347
C36   C     C_3   0.965523 0.010578 0.426669 -0.434693
C37   C     C_3   0.465527 0.489434 0.426669 -0.434720
C38   C     C_3   0.634131 0.455346 0.549965 -0.502341
C39   C     C_3   0.123590 0.047253 0.645459 -0.152920
C40   C     C_3   0.958173 0.007905 0.523255 -0.202467
C41   C     C_3   0.458173 0.492112 0.523253 -0.202465
C42   C     C_3   0.623568 0.452734 0.645443 -0.152909
C43   C     C_3   0.101444 0.943360 0.526455 -0.412315
C44   C     C_R   0.402144 0.376396 0.092279 -0.097634
C45   C     C_3   0.601475 0.556634 0.526476 -0.412301
C46   C     C_3   0.068005 0.999612 0.466682 0.363902
C47   C     C_3   0.568013 0.500387 0.466687 0.363889
C48   C     C_3   0.058787 0.999068 0.633484 0.184873
C49   C     C_3   0.558790 0.500931 0.633486 0.184862
C50   C     C_R   0.809347 0.122670 0.907584 -0.140115
C51   C     C_R   0.809378 0.877257 0.907754 -0.142946
C52   C     C_R   0.309379 0.622745 0.907756 -0.142948
C53   C     C_R   0.309345 0.377332 0.907588 -0.140104
C54   C     C_3   0.101044 0.943929 0.628144 -0.427992
C55   C     C_R   0.402344 0.623698 0.092450 -0.098042
C56   C     C_3   0.601078 0.556063 0.628168 -0.427982
C57   C     C_3   0.672416 0.196871 0.879465 -0.412928
C58   C     C_3   0.670870 0.804168 0.880253 -0.414401
C59   C     C_3   0.170852 0.695821 0.880260 -0.414394
C60   C     C_3   0.172347 0.303172 0.879480 -0.412913
C61   C     C_3   0.116239 0.744669 0.879314 -0.410838
C62   C     C_3   0.117809 0.254326 0.878548 -0.406764
C63   C     C_3   0.617860 0.245705 0.878536 -0.406791
C64   C     C_3   0.616250 0.755325 0.879310 -0.410851
C65   C     C_3   0.321688 0.733771 0.046540 -0.412731
C66   C     C_R   0.057106 0.848459 0.907374 -0.161813
C67   C     C_3   0.322799 0.266410 0.048201 -0.415931
C68   C     C_3   0.822839 0.233582 0.048308 -0.415960
C69   C     C_3   0.821698 0.766236 0.046574 -0.412733
C70   C     C_3   0.715335 0.169977 0.065905 -0.139757
C71   C     C_3   0.717020 0.830036 0.068617 -0.136490
C72   C     C_3   0.217050 0.669970 0.068654 -0.136454
C73   C     C_3   0.215411 0.330010 0.066012 -0.139671
C74   C     C_3   0.756932 0.182645 0.999643 0.278907
C75   C     C_3   0.756720 0.817568 0.000177 0.284205
C76   C     C_3   0.256722 0.682433 0.000180 0.284204
C77   C     C_R   0.057924 0.151126 0.907020 -0.121058
C78   C     C_3   0.256924 0.317361 0.999650 0.278875
C79   C     C_3   0.166008 0.767460 0.997711 0.402590
C80   C     C_3   0.166881 0.232052 0.997201 0.386990
C81   C     C_3   0.666898 0.267957 0.997199 0.387026
C82   C     C_3   0.666012 0.732538 0.997710 0.402604
C83   C     C_3   0.268350 0.783426 0.043969 -0.389838
C84   C     C_3   0.269660 0.216473 0.044920 -0.374711
C85   C     C_3   0.769692 0.283527 0.044976 -0.374685
C86   C     C_3   0.768357 0.716576 0.043978 -0.389831
C87   C     C_3   0.166340 0.721921 0.070188 -0.504805
C88   C     C_R   0.557930 0.348876 0.907019 -0.121030
C89   C     C_3   0.165743 0.277777 0.068372 -0.501295
C90   C     C_3   0.665712 0.222218 0.068317 -0.501333
C91   C     C_3   0.666334 0.778079 0.070176 -0.504816
C92   C     C_3   0.476165 0.948320 0.358493 -0.414197
C93   C     C_3   0.476432 0.051175 0.357717 -0.404805
C94   C     C_3   0.976435 0.448833 0.357704 -0.404818
C95   C     C_3   0.976162 0.551688 0.358506 -0.414189
C96   C     C_R   0.745401 0.954374 0.694460 -0.129152
C97   C     C_R   0.745345 0.045580 0.694419 -0.149264
C98   C     C_R   0.245344 0.454420 0.694418 -0.149289
C99   C     C_R   0.557108 0.651540 0.907373 -0.161815
C100  C     C_R   0.245402 0.545627 0.694460 -0.129139
C101  C     C_3   0.580330 0.948193 0.458289 -0.379076
C102  C     C_3   0.580697 0.051226 0.457366 -0.385008
C103  C     C_3   0.080706 0.448787 0.457341 -0.384981
C104  C     C_3   0.080322 0.551820 0.458313 -0.379110
C105  C     C_3   0.435156 0.000274 0.471584 -0.385865
C106  C     C_3   0.935157 0.499717 0.471584 -0.385865
C107  C     C_3   0.426030 0.999930 0.362224 0.392423
C108  C     C_3   0.926030 0.500072 0.362225 0.392431
C109  C     C_3   0.602162 0.999933 0.530192 0.372984
C110  C     C_R   0.150607 0.151787 0.090716 -0.149512
C111  C     C_3   0.102162 0.500069 0.530192 0.372991
C112  C     C_3   0.538140 0.000355 0.569711 -0.412326
C113  C     C_3   0.038141 0.499624 0.569711 -0.412328
C114  C     C_R   0.049171 0.045564 0.304701 -0.117664
C115  C     C_R   0.049970 0.954190 0.304580 -0.121159
C116  C     C_R   0.549973 0.545809 0.304582 -0.121142
C117  C     C_R   0.549175 0.454435 0.304703 -0.117630
C118  C     C_R   0.813413 0.862484 0.000058 0.017838
C119  C     C_R   0.813331 0.137516 0.999745 0.018789
C120  C     C_R   0.313328 0.362489 0.999751 0.018750
H1    H     H_    0.932620 0.867643 0.177593 0.085085
H2    H     H_    0.930596 0.048322 0.527424 0.146106
H3    H     H_    0.560873 0.412107 0.330760 0.079285
H4    H     H_    0.289051 0.911527 0.263241 0.088793
H5    H     H_    0.289260 0.088406 0.263500 0.088423
H6    H     H_    0.789263 0.411595 0.263503 0.088422
H7    H     H_    0.789048 0.588474 0.263241 0.088792
H8    H     H_    0.023289 0.088035 0.732464 0.090494
H9    H     H_    0.025999 0.911088 0.738779 0.079159
H10   H     H_    0.525996 0.588912 0.738773 0.079144
H11   H     H_    0.523285 0.411965 0.732461 0.090524
H12   H     H_    0.012120 0.835353 0.822447 0.087798
H13   H     H_    0.430573 0.451701 0.527410 0.146147
H14   H     H_    0.013412 0.163984 0.821913 0.081337
H15   H     H_    0.513417 0.336019 0.821912 0.081336
H16   H     H_    0.512122 0.664646 0.822446 0.087804
H17   H     H_    0.194021 0.165702 0.175226 0.083489
H18   H     H_    0.193512 0.834272 0.175492 0.082957
H19   H     H_    0.693514 0.665728 0.175491 0.082958
H20   H     H_    0.694025 0.334298 0.175225 0.083492
H21   H     H_    0.207993 0.035544 0.580348 0.153586
H22   H     H_    0.916869 0.980707 0.360870 0.205339
H23   H     H_    0.416883 0.519308 0.360872 0.205341
H24   H     H_    0.588113 0.413158 0.636843 0.128054
H25   H     H_    0.707987 0.464438 0.580351 0.153584
H26   H     H_    0.268927 0.015017 0.778618 0.009532
H27   H     H_    0.896192 0.922337 0.487682 0.008969
H28   H     H_    0.396243 0.577692 0.487704 0.009004
H29   H     H_    0.768919 0.484941 0.778628 0.009529
H30   H     H_    0.843966 0.176208 0.242350 -0.010499
H31   H     H_    0.846696 0.821683 0.243931 -0.011275
H32   H     H_    0.346743 0.678367 0.243947 -0.011240
H33   H     H_    0.344105 0.323682 0.242398 -0.010441
H34   H     H_    0.173434 0.933686 0.550966 0.152913
H35   H     H_    0.053253 0.910091 0.471156 0.154928
H36   H     H_    0.553296 0.589909 0.471188 0.154937
H37   H     H_    0.673467 0.566300 0.550987 0.152908
H38   H     H_    0.173559 0.937844 0.703828 0.155580
H39   H     H_    0.059536 0.907957 0.621896 0.141788
H40   H     H_    0.559594 0.592043 0.621941 0.141784
H41   H     H_    0.932140 0.132241 0.177358 0.083473
H42   H     H_    0.673598 0.562133 0.703853 0.155581
H43   H     H_    0.697776 0.208490 0.829174 0.164465
H44   H     H_    0.694733 0.792834 0.828342 0.158457
H45   H     H_    0.194691 0.707145 0.828321 0.158445
H46   H     H_    0.197635 0.291579 0.829105 0.164416
H47   H     H_    0.624565 0.160965 0.839614 0.152298
H48   H     H_    0.623488 0.840373 0.842111 0.151046
H49   H     H_    0.123472 0.659613 0.842148 0.151048
H50   H     H_    0.124505 0.339088 0.839715 0.152318
H51   H     H_    0.544200 0.233236 0.843483 0.154280
H52   H     H_    0.432153 0.367753 0.177361 0.083522
H53   H     H_    0.542868 0.767932 0.845301 0.151804
H54   H     H_    0.042857 0.732065 0.845310 0.151794
H55   H     H_    0.044153 0.266787 0.843530 0.154276
H56   H     H_    0.112935 0.776429 0.823774 0.149322
H57   H     H_    0.115364 0.222341 0.823903 0.164557
H58   H     H_    0.615433 0.277703 0.823923 0.164605
H59   H     H_    0.612945 0.723562 0.823773 0.149320
H60   H     H_    0.348979 0.742586 0.997035 0.167792
H61   H     H_    0.351815 0.257640 0.000503 0.176284
H62   H     H_    0.851955 0.242353 0.000718 0.176263
H63   H     H_    0.432629 0.632362 0.177595 0.085114
H64   H     H_    0.849027 0.757423 0.997107 0.167785
H65   H     H_    0.752110 0.127991 0.821925 0.093270
H66   H     H_    0.752040 0.871988 0.822127 0.091696
H67   H     H_    0.252040 0.628013 0.822129 0.091694
H68   H     H_    0.252104 0.372016 0.821929 0.093270
H69   H     H_    0.268654 0.816018 0.992075 0.160193
H70   H     H_    0.270960 0.183969 0.993571 0.196172
H71   H     H_    0.771024 0.316023 0.993638 0.196176
H72   H     H_    0.768668 0.683990 0.992079 0.160191
H73   H     H_    0.661124 0.137273 0.020824 0.152293
H74   H     H_    0.116447 0.085599 0.510092 0.152340
H75   H     H_    0.663764 0.863376 0.025563 0.148569
H76   H     H_    0.163815 0.636617 0.025638 0.148550
H77   H     H_    0.161241 0.362742 0.021028 0.152276
H78   H     H_    0.591688 0.212223 0.035856 0.167671
H79   H     H_    0.592651 0.788613 0.038374 0.161561
H80   H     H_    0.092659 0.711377 0.038378 0.161560
H81   H     H_    0.091729 0.287792 0.035925 0.167668
H82   H     H_    0.201167 0.737446 0.155597 0.144598
H83   H     H_    0.200668 0.262684 0.154085 0.145180
H84   H     H_    0.700651 0.237291 0.154047 0.145193
H85   H     H_    0.942905 0.052042 0.388505 0.195127
H86   H     H_    0.701177 0.762560 0.155593 0.144600
H87   H     H_    0.384049 0.727068 0.132804 0.138594
H88   H     H_    0.383982 0.273571 0.134936 0.139248
H89   H     H_    0.883954 0.226400 0.135071 0.139240
H90   H     H_    0.884035 0.772945 0.132850 0.138593
H91   H     H_    0.305845 0.800114 0.129028 0.147078
H92   H     H_    0.306611 0.199827 0.129940 0.144739
H93   H     H_    0.806617 0.300179 0.129988 0.144722
H94   H     H_    0.805846 0.699881 0.129032 0.147075
H95   H     H_    0.443490 0.909992 0.361302 0.144725
H96   H     H_    0.442899 0.447970 0.388503 0.195268
H97   H     H_    0.444000 0.089722 0.360099 0.144459
H98   H     H_    0.944012 0.410283 0.360092 0.144467
H99   H     H_    0.943479 0.590013 0.361309 0.144718
H100  H     H_    0.470756 0.947812 0.280742 0.167289
H101  H     H_    0.470867 0.051224 0.279866 0.170321
H102  H     H_    0.970858 0.448788 0.279845 0.170303
H103  H     H_    0.970765 0.552200 0.280762 0.167284
H104  H     H_    0.626436 0.947174 0.429897 0.200693
H105  H     H_    0.626704 0.051521 0.428801 0.189580
H106  H     H_    0.126702 0.448514 0.428762 0.189584
H107  H     H_    0.616425 0.414394 0.510073 0.152347
H108  H     H_    0.126437 0.552861 0.429936 0.200676
H109  H     H_    0.732973 0.912048 0.668428 0.083483
H110  H     H_    0.732754 0.087899 0.668332 0.085159
H111  H     H_    0.232750 0.412102 0.668332 0.085161
H112  H     H_    0.232978 0.587953 0.668429 0.083495
H113  H     H_    0.593451 0.910104 0.505966 0.138237
H114  H     H_    0.594307 0.089623 0.504399 0.140354
H115  H     H_    0.094337 0.410382 0.504359 0.140348
H116  H     H_    0.093423 0.589900 0.506006 0.138246
H117  H     H_    0.399970 0.963596 0.476638 0.152441
H118  H     H_    0.088160 0.086836 0.636885 0.128044
H119  H     H_    0.400015 0.037147 0.476055 0.153089
H120  H     H_    0.900006 0.462845 0.476041 0.153081
H121  H     H_    0.899981 0.536396 0.476654 0.152445
H122  H     H_    0.552415 0.963748 0.621868 0.155323
H123  H     H_    0.552515 0.037347 0.621011 0.157044
H124  H     H_    0.052512 0.462618 0.620978 0.157038
H125  H     H_    0.052421 0.536218 0.621901 0.155320
H126  H     H_    0.060868 0.087893 0.330760 0.079271
H127  H     H_    0.064336 0.911855 0.330576 0.078515
H128  H     H_    0.564337 0.588145 0.330578 0.078521
N1    N     N_R   0.950530 0.896220 0.057200 -0.044051
N2    N     N_R   0.818150 0.028600 0.792440 -0.035866
N3    N     N_R   0.318150 0.471400 0.792440 -0.035867
N4    N     N_R   0.318150 0.528600 0.792440 -0.036553
N5    N     N_R   0.025710 0.028600 0.207560 -0.033307
N6    N     N_R   0.025710 0.971400 0.207560 -0.032995
N7    N     N_R   0.525710 0.528600 0.207560 -0.033003
N8    N     N_R   0.525710 0.471400 0.207560 -0.033317
N9    N     N_R   0.181850 0.971400 0.207560 -0.039515
N10   N     N_R   0.181850 0.028600 0.207560 -0.039783
N11   N     N_R   0.681850 0.471400 0.207560 -0.039781
N12   N     N_R   0.950530 0.103780 0.057200 -0.044913
N13   N     N_R   0.681850 0.528600 0.207560 -0.039514
N14   N     N_R   0.974290 0.028600 0.792440 -0.038735
N15   N     N_R   0.974290 0.971400 0.792440 -0.032365
N16   N     N_R   0.474290 0.528600 0.792440 -0.032364
N17   N     N_R   0.474290 0.471400 0.792440 -0.038740
N18   N     N_R   0.049470 0.896220 0.942800 -0.033549
N19   N     N_R   0.049470 0.103780 0.942800 -0.035199
N20   N     N_R   0.549470 0.396220 0.942800 -0.035200
N21   N     N_R   0.549470 0.603780 0.942800 -0.033550
N22   N     N_R   0.106670 0.103780 0.057200 -0.032717
N23   N     N_R   0.450530 0.396220 0.057200 -0.044915
N24   N     N_R   0.106670 0.896220 0.057200 -0.032335
N25   N     N_R   0.606670 0.603780 0.057200 -0.032335
N26   N     N_R   0.606670 0.396220 0.057200 -0.032716
N27   N     N_R   0.450530 0.603780 0.057200 -0.044051
N28   N     N_R   0.893330 0.103780 0.942800 -0.041858
N29   N     N_R   0.893330 0.896220 0.942800 -0.040207
N30   N     N_R   0.393330 0.603780 0.942800 -0.040204
N31   N     N_R   0.393330 0.396220 0.942800 -0.041858
N32   N     N_R   0.818150 0.971400 0.792440 -0.036548
Ni1   Ni    Ni4+2 0.065600 0.934400 0.131190 0.206702
Ni2   Ni    Ni4+2 0.065600 0.065600 0.131190 0.208467
Ni3   Ni    Ni4+2 0.565600 0.434400 0.131190 0.208458
Ni4   Ni    Ni4+2 0.565600 0.565600 0.131190 0.206694
Ni5   Ni    Ni4+2 0.934400 0.065600 0.868810 0.219504
Ni6   Ni    Ni4+2 0.934400 0.934400 0.868810 0.220674
Ni7   Ni    Ni4+2 0.434400 0.565600 0.868810 0.220678
Ni8   Ni    Ni4+2 0.434400 0.434400 0.868810 0.219496
O1    O     O_2   0.240623 0.085522 0.820274 -0.608374
O2    O     O_2   0.818118 0.977232 0.498798 -0.610220
O3    O     O_2   0.318133 0.522814 0.498799 -0.610212
O4    O     O_2   0.740569 0.414436 0.820238 -0.608400
O5    O     O_2   0.780764 0.103570 0.208574 -0.582968
O6    O     O_2   0.786296 0.894998 0.214231 -0.591466
O7    O     O_2   0.286389 0.605041 0.214330 -0.591542
O8    O     O_2   0.280980 0.396334 0.208838 -0.583104

loop_
_geom_bond_atom_site_label_1
_geom_bond_atom_site_label_2
_ccdc_geom_bond_type
C8    C26   A    
C58   H44   S    
C79   C87   S    
C24   H20   S    
C32   C81   S    
C68   H62   S    
C13   H19   S    
C98   N3    A    
C117  N8    A    
C56   H42   S    
C51   C118  A    
C20   H29   S    
C60   C62   S    
C17   C39   S    
C36   H22   S    
N17   Ni8   S    
C4    C96   A    
C45   C56   S    
C70   C74   S    
C95   H99   S    
C52   H67   S    
C13   N25   A    
N23   N31   A    
C9    N10   A    
N20   Ni8   S    
C87   H80   S    
C41   C49   S    
C9    C26   A    
C104  H108  S    
C90   H84   S    
N28   Ni5   S    
C45   C47   S    
N30   Ni7   S    
C96   N32   A    
C31   C80   S    
C88   N20   A    
C102  H105  S    
C82   C91   S    
C78   C120  S    
C44   H52   S    
N13   Ni4   S    
C43   C54   S    
C5    C100  A    
C100  H112  S    
C34   C99   A    
C21   O5    D    
C111  C113  S    
C12   N14   A    
C63   H58   S    
C81   C90   S    
C105  C112  S    
C102  H114  S    
C106  H121  S    
C91   H86   S    
C40   C48   S    
C23   C72   S    
C88   H15   S    
N11   N13   A    
C72   H76   S    
C20   C42   S    
C3    C52   A    
C12   H8    S    
C65   H60   S    
C85   H71   S    
C40   H2    S    
C86   H72   S    
C19   H28   S    
C17   H26   S    
C15   H10   S    
C27   C108  S    
C70   H73   S    
C113  H125  S    
C62   H55   S    
C31   C110  A    
N1    N29   A    
C99   H16   S    
C95   H103  S    
C95   C108  S    
N20   N26   A    
C105  H117  S    
C10   N11   A    
C102  C109  S    
C59   H49   S    
C10   C27   A    
C4    C109  S    
C7    C117  A    
C41   H13   S    
C24   N26   A    
C105  C107  S    
C60   C78   S    
C62   C80   S    
N5    N6    A    
N19   N22   A    
C1    N1    A    
C68   C74   S    
C32   C88   A    
C51   N29   A    
C92   H95   S    
C93   H97   S    
N9    N10   A    
C16   H11   S    
C6    C114  A    
C18   C40   S    
C35   H74   S    
C54   H39   S    
C3    C55   A    
N16   N17   A    
C36   C46   S    
C37   C47   S    
C43   H34   S    
C58   H48   S    
C37   H96   S    
C16   N17   A    
C59   H45   S    
N23   Ni3   S    
C4    C97   A    
N9    Ni1   S    
C68   C85   S    
C57   C63   S    
C58   C64   S    
C59   C61   S    
C106  C113  S    
C20   O4    D    
N27   N30   A    
C45   H37   S    
C18   H27   S    
C110  N22   A    
C64   H59   S    
C9    H5    S    
N2    N32   A    
C7    C116  A    
C11   H7    S    
C86   H94   S    
C3    C76   S    
C71   H75   S    
C97   H110  S    
C57   H43   S    
C105  H119  S    
C45   H36   S    
C96   H109  S    
N22   Ni2   S    
C30   C79   S    
C101  H104  S    
C77   H14   S    
C72   C87   S    
C22   H31   S    
C28   C48   S    
C103  H115  S    
N8    Ni3   S    
N25   Ni4   S    
N26   Ni3   S    
C71   C75   S    
N14   N15   A    
C65   H87   S    
C2    N24   A    
C2    C30   A    
C51   H66   S    
C106  C108  S    
C61   C79   S    
C112  H122  S    
C25   C73   S    
C37   C41   S    
N32   Ni6   S    
N12   N28   A    
C104  H116  S    
N19   Ni5   S    
C94   H102  S    
C19   O3    D    
C69   H90   S    
C34   C82   S    
C10   H6    S    
C59   C76   S    
C14   H9    S    
C81   C85   S    
C67   H88   S    
C38   H107  S    
C23   H32   S    
C80   C84   S    
C62   H57   S    
C53   C120  A    
N3    N4    A    
C75   C118  S    
C65   C76   S    
N1    Ni1   S    
C12   C28   A    
C53   H68   S    
C43   H35   S    
C44   C120  A    
C101  C109  S    
C103  C111  S    
C80   C89   S    
C67   H61   S    
C116  H128  S    
C31   C77   A    
C6    C46   S    
C106  H120  S    
C61   H56   S    
C23   O7    D    
C15   C29   A    
C115  H127  S    
C61   H54   S    
C25   H33   S    
C8    H4    S    
C29   C49   S    
C82   C86   S    
C99   N21   A    
C60   H46   S    
C2    H18   S    
C35   C39   S    
C18   O2    D    
N18   Ni6   S    
C63   H51   S    
C113  H124  S    
N10   Ni2   S    
C92   C101  S    
C44   N23   A    
C94   C103  S    
C101  H113  S    
N3    Ni8   S    
C22   O6    D    
N4    Ni7   S    
N5    Ni2   S    
C52   N30   A    
N24   Ni1   S    
C53   N31   A    
C114  N5    A    
C37   H23   S    
C83   H69   S    
C110  H17   S    
C93   C102  S    
C84   H92   S    
C97   N2    A    
C57   H47   S    
C55   N27   A    
N21   N25   A    
C60   H50   S    
C73   C89   S    
C13   C34   A    
N18   N24   A    
C79   C83   S    
C114  H126  S    
C115  N6    A    
N2    Ni5   S    
C69   C75   S    
C36   H85   S    
C6    C115  A    
C14   N15   A    
C98   H111  S    
C71   C91   S    
C55   H63   S    
C64   H53   S    
C35   C46   S    
C19   C41   S    
C7    C47   S    
C39   C48   S    
C116  N7    A    
C89   H81   S    
C33   H41   S    
C72   C76   S    
C24   C32   A    
C103  H106  S    
C48   C54   S    
C74   C119  S    
C94   C108  S    
C63   C81   S    
C38   C42   S    
C65   C83   S    
C94   H98   S    
C8    N9    A    
C92   H100  S    
C15   N16   A    
C112  H123  S    
C73   H77   S    
N7    Ni4   S    
C73   C78   S    
C84   H70   S    
C11   C27   A    
C66   N18   A    
C91   H79   S    
C67   C84   S    
N15   Ni6   S    
C70   C90   S    
C67   C78   S    
C68   H89   S    
C58   C75   S    
C66   H12   S    
C50   C119  A    
C36   C40   S    
C109  C112  S    
C5    C111  S    
C16   C29   A    
C77   N19   A    
C57   C74   S    
C38   H25   S    
C85   H93   S    
C54   H38   S    
C92   C107  S    
C69   H64   S    
C21   H30   S    
N27   Ni4   S    
C64   C82   S    
C38   C47   S    
C30   C66   A    
C35   H21   S    
C89   H83   S    
C33   C119  A    
C25   O8    D    
N7    N8    A    
C22   C71   S    
C95   C104  S    
C87   H82   S    
C1    H1    S    
N16   Ni7   S    
N21   Ni7   S    
C100  N4    A    
C26   C107  S    
C104  C111  S    
N12   Ni2   S    
C90   H78   S    
C49   C56   S    
N29   Ni6   S    
C21   C70   S    
N31   Ni8   S    
N11   Ni3   S    
C117  H3    S    
C56   H40   S    
C93   C107  S    
C42   H24   S    
C17   O1    D    
C33   N12   A    
C1    C118  A    
C11   N13   A    
C43   C46   S    
C42   C49   S    
N6    Ni1   S    
N14   Ni5   S    
C5    C98   A    
C50   N28   A    
C93   H101  S    
C14   C28   A    
C50   H65   S    
C39   H118  S    
C83   H91   S    
C69   C86   S    
