data_mof_unit_55269.cif
_audit_creation_date              2012-12-11T15:52:36-0500
_audit_creation_method            fapswitch 2.2
_symmetry_space_group_name_H-M    P1
_symmetry_Int_Tables_number       1
_space_group_crystal_system       triclinic
_cell_length_a                    6.92244
_cell_length_b                    14.615654
_cell_length_c                    16.017384
_cell_angle_alpha                 90.12116
_cell_angle_beta                  89.75565
_cell_angle_gamma                 89.625361
_cell_volume                      1620.52154952

loop_
_atom_site_label
_atom_site_type_symbol
_atom_type_description
_atom_site_fract_x
_atom_site_fract_y
_atom_site_fract_z
_atom_type_partial_charge
O1    O     O_R   0.494400 0.415640 0.412830 -0.540401
O2    O     O_R   0.823920 0.405510 0.586560 -0.515858
O3    O     O_R   0.994250 0.584360 0.587170 -0.522914
C1    C     C_R   0.655525 0.384256 0.616251 0.756052
O4    O     O_R   0.824110 0.404610 0.413450 -0.548840
O5    O     O_R   0.994440 0.583460 0.412820 -0.547126
C2    C     C_R   0.656471 0.383315 0.383410 0.692582
O6    O     O_R   0.494210 0.416540 0.587180 -0.544989
O7    O     O_3   0.660810 0.558680 0.500000 -0.378898
V1    V     V_3+5 0.935650 0.489110 0.500000 1.430244
O8    O     O_R   0.324150 0.594490 0.413440 -0.544337
C3    C     C_R   0.154956 0.616273 0.384243 0.689702
O9    O     O_R   0.323970 0.595390 0.586550 -0.547586
C4    C     C_R   0.152938 0.617874 0.615381 0.731572
V2    V     V_3+5 0.435660 0.510890 0.500000 1.404856
O10   O     O_3   0.160630 0.441320 0.500000 -0.370022
C5    C     C_3   0.921626 0.691022 0.726611 0.404131
C6    C     C_3   0.923276 0.756821 0.805227 -0.009600
H1    H     H_    0.813878 0.811735 0.793701 0.133108
H2    H     H_    0.112580 0.803877 0.599755 0.121247
H3    H     H_    0.030713 0.896786 0.711816 0.111704
C7    C     C_3   0.193990 0.783725 0.656501 -0.438526
C8    C     C_3   0.282436 0.660888 0.756709 -0.368544
C9    C     C_3   0.134899 0.686879 0.686903 -0.000800
H4    H     H_    0.429208 0.656302 0.728846 0.169291
H5    H     H_    0.253453 0.591213 0.780429 0.183127
C10   C     C_3   0.122418 0.807132 0.813617 -0.017262
C11   C     C_3   0.161775 0.855785 0.727539 0.021548
C12   C     C_3   0.287565 0.734553 0.827583 -0.134299
H6    H     H_    0.427560 0.770562 0.821820 0.118154
H7    H     H_    0.348249 0.782038 0.636611 0.180357
C13   C     C_R   0.965484 0.759231 0.203537 -0.201303
H8    H     H_    0.833415 0.764558 0.167877 0.159275
C14   C     C_R   0.974168 0.695723 0.268771 -0.158074
H9    H     H_    0.848021 0.654642 0.281922 0.129438
C15   C     C_R   0.144083 0.684281 0.315435 -0.073027
C16   C     C_R   0.304469 0.738310 0.295803 -0.190589
H10   H     H_    0.435846 0.730867 0.331747 0.116964
C17   C     C_R   0.296878 0.803707 0.231479 0.221634
C18   C     C_R   0.125151 0.814280 0.183715 -0.060784
C19   C     C_R   0.797567 0.311973 0.746099 0.189864
C20   C     C_R   0.784742 0.248986 0.813570 -0.063278
C21   C     C_R   0.623994 0.189027 0.818782 -0.140718
C22   C     C_R   0.476421 0.196362 0.759313 -0.080725
H11   H     H_    0.352750 0.151392 0.762010 0.152948
C23   C     C_R   0.487279 0.260050 0.694676 -0.226538
H12   H     H_    0.371083 0.262989 0.649661 0.128748
C24   C     C_R   0.647607 0.317552 0.686446 -0.071079
C25   C     C_R   0.801107 0.302090 0.255466 0.216504
C26   C     C_R   0.783428 0.237222 0.191283 -0.140776
H13   H     H_    0.901124 0.229585 0.146988 0.143586
C27   C     C_R   0.616335 0.184032 0.182254 -0.160871
C28   C     C_R   0.462154 0.198179 0.239873 0.216223
C29   C     C_R   0.480663 0.262338 0.304475 -0.145506
H14   H     H_    0.362329 0.270340 0.348415 0.141981
C30   C     C_R   0.648272 0.314960 0.313908 -0.161126
O11   O     O_R   0.771300 0.080930 0.910090 -0.551682
O12   O     O_R   0.441270 0.092800 0.083770 -0.543861
O13   O     O_R   0.271080 0.913920 0.084380 -0.524490
C31   C     C_R   0.608825 0.114725 0.113425 0.693873
O14   O     O_R   0.441580 0.091910 0.910670 -0.517418
O15   O     O_R   0.271390 0.913020 0.910040 -0.538151
C32   C     C_R   0.611109 0.116495 0.883890 0.692737
O16   O     O_R   0.770990 0.081830 0.084440 -0.546997
O17   O     O_3   0.604750 0.938760 0.997250 -0.360745
V3    V     V_3+5 0.329850 0.008280 0.997210 1.476908
O18   O     O_R   0.941680 0.901940 0.910610 -0.536293
C33   C     C_R   0.111415 0.878682 0.882837 0.733017
O19   O     O_R   0.941370 0.902830 0.083720 -0.539525
C34   C     C_R   0.111080 0.881523 0.113600 0.694263
V4    V     V_3+5 0.829860 0.986420 0.997150 1.450155
O20   O     O_3   0.104830 0.056030 0.997180 -0.372054
N1    N     N_3   0.777884 0.729310 0.667815 -0.717305
H15   H     H_    0.813614 0.794395 0.646431 0.193143
H16   H     H_    0.750792 0.687025 0.616886 0.272979
N2    N     N_3   0.323330 0.920384 0.731908 -0.672469
H17   H     H_    0.323201 0.959783 0.677461 0.223053
H18   H     H_    0.455395 0.885413 0.733086 0.235571
N3    N     N_3   0.462402 0.860254 0.216105 -0.646329
H19   H     H_    0.427223 0.926198 0.236487 0.203255
H20   H     H_    0.579553 0.839137 0.252401 0.211310
N4    N     N_3   0.956670 0.374115 0.739934 -0.637189
H21   H     H_    0.082859 0.336504 0.728476 0.261185
H22   H     H_    0.970204 0.409284 0.796403 0.248654
C35   C     C_2   0.929505 0.250760 0.882164 0.389608
H23   H     H_    0.883718 0.238883 0.946093 0.050062
O21   O     O_2   0.100671 0.263585 0.868366 -0.538061
N5    N     N_3   0.857627 0.597767 0.747671 -0.635697
H24   H     H_    0.718406 0.599183 0.772894 0.237746
H25   H     H_    0.948352 0.566153 0.790528 0.218466
N6    N     N_3   0.973758 0.355572 0.257454 -0.653034
H26   H     H_    0.935981 0.424957 0.257671 0.227830
H27   H     H_    0.049827 0.340016 0.311803 0.245961
N7    N     N_3   0.285771 0.147696 0.236056 -0.668125
H28   H     H_    0.214385 0.164300 0.180788 0.251079
H29   H     H_    0.317996 0.077844 0.236570 0.213353
N8    N     N_3   0.863110 0.714519 0.884498 -0.670535
H30   H     H_    0.715970 0.699422 0.882199 0.236702
H31   H     H_    0.937937 0.654163 0.896884 0.263936
C36   C     C_2   0.293542 0.694833 0.915097 0.349242
H32   H     H_    0.292208 0.740419 0.968620 0.063943
O22   O     O_2   0.304985 0.612537 0.927374 -0.528522

loop_
_geom_bond_atom_site_label_1
_geom_bond_atom_site_label_2
_ccdc_geom_bond_type
C10   C12   S    
C5    N5    S    
C19   C20   A    
C1    O6    A    
N8    H30   S    
C21   C32   S    
C28   C29   A    
C22   H11   S    
O17   V3    S    
C16   H10   S    
C18   C34   S    
C8    C12   S    
C15   C16   A    
N2    H18   S    
C14   H9    S    
O13   V3    S    
O5    C3    A    
O16   V4    S    
O12   C31   A    
V2    O10   S    
O14   C32   A    
C6    H1    S    
N1    H15   S    
C8    H5    S    
C4    C9    S    
O19   V4    S    
C10   C33   S    
C27   C31   S    
C29   H14   S    
O8    V2    S    
O14   V3    S    
O12   V3    S    
V3    O20   S    
C26   C27   A    
C8    C9    S    
O1    V2    S    
C6    N8    S    
C3    C15   S    
O7    V1    S    
C14   C15   A    
C13   C18   A    
C7    C11   S    
O9    C4    A    
C5    N1    S    
N1    H16   S    
N7    H28   S    
C2    C30   S    
C25   N6    S    
N8    H31   S    
C22   C23   A    
O11   C32   A    
C23   C24   A    
C35   O21   D    
C29   C30   A    
C5    C9    S    
C7    H7    S    
O15   V3    S    
O18   C33   A    
N2    H17   S    
N6    H26   S    
N3    H20   S    
C26   H13   S    
C35   H23   S    
C17   N3    S    
O2    C1    A    
C21   C22   A    
C12   H6    S    
N6    H27   S    
C36   O22   D    
C5    C6    S    
C20   C35   S    
O11   V4    S    
N7    H29   S    
O3    C4    A    
H3    C11   S    
H2    C7    S    
C25   C26   A    
O6    V2    S    
N4    H22   S    
O9    V2    S    
C7    C9    S    
C20   C21   A    
C11   N2    S    
C17   C18   A    
C27   C28   A    
O4    C2    A    
C1    C24   S    
C23   H12   S    
C12   C36   S    
C28   N7    S    
O1    C2    A    
C6    C10   S    
N5    H25   S    
O5    V1    S    
O8    C3    A    
C25   C30   A    
O15   C33   A    
C31   O16   A    
C13   H8    S    
O7    V2    S    
O4    V1    S    
C16   C17   A    
O3    V1    S    
O17   V4    S    
C19   N4    S    
C36   H32   S    
C19   C24   A    
O18   V4    S    
C8    H4    S    
O19   C34   A    
O13   C34   A    
N3    H19   S    
V4    O20   S    
N5    H24   S    
N4    H21   S    
C10   C11   S    
V1    O10   S    
C13   C14   A    
O2    V1    S    
