data_mof_unit_32231.cif
_audit_creation_date              2013-03-05T15:43:49-0500
_audit_creation_method            fapswitch 2.2
_symmetry_space_group_name_H-M    P1
_symmetry_Int_Tables_number       1
_space_group_crystal_system       triclinic
_cell_length_a                    10.720051
_cell_length_b                    11.360574
_cell_length_c                    9.962852
_cell_angle_alpha                 90.695311
_cell_angle_beta                  88.415644
_cell_angle_gamma                 94.602895
_cell_volume                      1208.89977034

loop_
_atom_site_label
_atom_site_type_symbol
_atom_site_description
_atom_site_fract_x
_atom_site_fract_y
_atom_site_fract_z
_atom_type_partial_charge
O1    O     O_R   0.500020 0.321960 0.617040 -0.582899
O2    O     O_R   0.499980 0.321920 0.382900 -0.573170
C1    C     C_R   0.502120 0.267392 0.501842 0.725935
O3    O     O_R   0.316870 0.499990 0.617050 -0.604101
O4    O     O_R   0.316830 0.499950 0.382910 -0.539568
C2    C     C_R   0.261128 0.506396 0.501256 0.894493
Cu1   Cu    Cu3+1 0.500030 0.500020 0.638630 1.056669
Cu2   Cu    Cu3+1 0.499970 0.499980 0.361370 1.056453
O5    O     O_R   0.500020 0.678080 0.617100 -0.593797
O6    O     O_R   0.499980 0.678040 0.382960 -0.625116
O7    O     O_R   0.683170 0.500050 0.617090 -0.508111
O8    O     O_R   0.683130 0.500010 0.382950 -0.548642
C3    C     C_R   0.504376 0.732853 0.503138 0.714338
C4    C     C_R   0.739731 0.504216 0.497792 0.885316
C5    C     C_3   0.034735 0.499397 0.625323 -0.341600
C6    C     C_3   0.951832 0.411398 0.539977 0.354050
H1    H     H_    0.052660 0.506483 0.732880 0.185457
C7    C     C_3   0.876826 0.510902 0.491436 -0.287795
C8    C     C_3   0.961769 0.599927 0.571031 0.212643
C9    C     C_3   0.052753 0.617002 0.450557 0.256450
C10   C     C_3   0.968559 0.528368 0.370454 0.247389
C11   C     C_3   0.042233 0.425900 0.417334 -0.247631
C12   C     C_3   0.125244 0.515678 0.501667 -0.230874
H2    H     H_    0.075106 0.353233 0.353310 0.188596
C13   C     C_2   0.509978 0.934361 0.415901 -0.187272
C14   C     C_2   0.520462 0.862935 0.521176 0.428372
H3    H     H_    0.485689 0.894364 0.320288 0.139866
C15   C     C_2   0.532261 0.065935 0.417233 -0.183162
C16   C     C_2   0.498358 0.137576 0.518588 0.377890
H4    H     H_    0.570860 0.104983 0.325019 0.119553
C17   C     C_2   0.425428 0.430129 0.926650 0.388010
N1    N     N_2   0.498620 0.498660 0.846910 -0.154849
C18   C     C_2   0.438332 0.418710 0.080016 0.578660
N2    N     N_2   0.498590 0.498630 0.153040 -0.085050
N3    N     N_R   0.899683 0.293633 0.576620 0.116255
O9    O     O_R   0.968967 0.225987 0.641490 -0.362296
O10   O     O_R   0.811300 0.243851 0.503450 -0.404921
O11   O     O_3   0.446614 0.088355 0.637714 -0.581621
C19   C     C_3   0.503366 0.133410 0.758963 0.110682
H5    H     H_    0.469124 0.077112 0.843050 0.112499
H6    H     H_    0.462756 0.212904 0.794822 0.208009
C20   C     C_3   0.648493 0.151541 0.755599 -0.284525
H7    H     H_    0.691724 0.087624 0.687713 0.298585
H8    H     H_    0.677892 0.240655 0.717309 0.265912
C21   C     C_3   0.703219 0.142708 0.894466 -0.811320
H9    H     H_    0.655895 0.198540 0.968984 0.257684
H10   H     H_    0.804550 0.171266 0.889394 0.287379
H11   H     H_    0.693497 0.050467 0.928327 0.241292
O12   O     O_3   0.334260 0.353836 0.869293 -0.633929
C22   C     C_3   0.217509 0.402259 0.867807 0.096563
H12   H     H_    0.181111 0.377318 0.768034 0.216716
H13   H     H_    0.222717 0.500248 0.880246 0.126812
C23   C     C_3   0.123988 0.342547 0.969369 -0.438066
H14   H     H_    0.124280 0.245834 0.956922 0.243084
H15   H     H_    0.148687 0.369933 0.072945 0.265929
C24   C     C_3   0.990504 0.372784 0.947627 -0.700492
H16   H     H_    0.982901 0.469108 0.959945 0.315104
H17   H     H_    0.927412 0.323153 0.020748 0.288149
H18   H     H_    0.959378 0.345039 0.846731 0.271264
N4    N     N_R   0.625273 0.507505 0.874032 0.253016
O13   O     O_R   0.683163 0.412475 0.890066 -0.360058
O14   O     O_R   0.691782 0.605700 0.847488 -0.315389
O15   O     O_3   0.355091 0.338133 0.146600 -0.616612
C25   C     C_3   0.385616 0.220979 0.118892 0.094675
H19   H     H_    0.453987 0.196777 0.191800 0.169408
H20   H     H_    0.431427 0.209627 0.019289 0.090974
C26   C     C_3   0.266956 0.135245 0.127308 -0.385440
H21   H     H_    0.188543 0.178464 0.177632 0.251409
H22   H     H_    0.239665 0.108322 0.023988 0.210159
C27   C     C_3   0.285521 0.022895 0.203216 -0.780955
H23   H     H_    0.367803 0.981014 0.160679 0.219363
H24   H     H_    0.201592 0.959762 0.193384 0.306562
H25   H     H_    0.297892 0.043513 0.311339 0.277604
O16   O     O_3   0.616728 0.527378 0.110302 -0.492265
C28   C     C_3   0.654791 0.646375 0.142335 0.366799
H26   H     H_    0.746765 0.665879 0.090063 0.220486
H27   H     H_    0.676552 0.660905 0.248490 0.157077
C29   C     C_3   0.567129 0.735852 0.094021 -0.490371
H28   H     H_    0.539528 0.712404 0.991346 0.227367
H29   H     H_    0.479555 0.733748 0.155672 0.249639
C30   C     C_3   0.633534 0.859698 0.096966 -0.930498
H30   H     H_    0.676288 0.879076 0.195862 0.278593
H31   H     H_    0.565833 0.926132 0.078798 0.235201
H32   H     H_    0.709134 0.866469 0.018341 0.292160
N5    N     N_R   0.917555 0.696609 0.652150 0.181672
O17   O     O_R   0.949026 0.709643 0.776900 -0.315421
O18   O     O_R   0.847751 0.771330 0.599412 -0.311041
N6    N     N_R   0.105898 0.731723 0.403334 0.160562
O19   O     O_R   0.032474 0.811244 0.368796 -0.288718
O20   O     O_R   0.226473 0.755805 0.396765 -0.412808
N7    N     N_R   0.931760 0.541845 0.232853 0.116391
O21   O     O_R   0.980894 0.628926 0.160347 -0.344386
O22   O     O_R   0.851279 0.464000 0.181053 -0.333729
O23   O     O_3   0.565129 0.911675 0.642313 -0.570044
C31   C     C_3   0.509261 0.861937 0.763241 0.166636
H33   H     H_    0.541253 0.916938 0.848269 0.127572
H34   H     H_    0.554332 0.782649 0.791660 0.201285
C32   C     C_3   0.363294 0.848096 0.767610 -0.346158
H35   H     H_    0.324287 0.935369 0.768499 0.255722
H36   H     H_    0.325093 0.799788 0.678554 0.240043
C33   C     C_3   0.311643 0.782132 0.891954 -0.874482
H37   H     H_    0.342539 0.691292 0.891251 0.239331
H38   H     H_    0.207716 0.775957 0.892503 0.303942
H39   H     H_    0.343474 0.829767 0.984193 0.253476

loop_
_geom_bond_atom_site_label_1
_geom_bond_atom_site_label_2
_geom_bond_distance
_ccdc_geom_bond_type
C14   O23   1.402001 S    
C33   H37   1.108747 S    
C7    C10   1.538887 S    
C4    C7    1.465181 S    
C31   H33   1.092922 S    
C30   H30   1.110327 S    
C31   C32   1.559495 S    
Cu1   Cu2   2.762313 S    
C19   H6    1.086009 S    
C23   H14   1.104447 S    
C13   C15   1.494630 S    
C5    C8    1.546127 S    
N4    O14   1.300699 A    
C15   C16   1.349583 D    
N3    O10   1.300442 A    
C6    N3    1.454736 S    
O4    C2    1.310765 A    
O7    C4    1.318879 A    
C29   H29   1.106364 S    
C21   H11   1.100868 S    
C5    C6    1.546222 S    
C24   H16   1.108906 S    
Cu1   O5    2.036801 S    
C7    C8    1.534133 S    
C21   H10   1.108420 S    
C1    C16   1.483415 S    
O5    C3    1.299242 A    
C8    C9    1.529750 S    
C16   O11   1.399599 S    
C22   H13   1.115691 S    
C17   C18   1.545967 S    
C27   H23   1.107160 S    
Cu2   O8    1.981093 S    
C5    C12   1.550473 S    
C33   H38   1.110545 S    
C10   C11   1.542136 S    
C20   H8    1.105122 S    
C17   O12   1.384140 S    
O3    Cu1   1.981093 S    
C30   H31   1.107970 S    
C22   H12   1.103400 S    
C19   C20   1.552355 S    
C23   H15   1.107173 S    
C22   C23   1.529875 S    
O16   C28   1.415667 S    
N5    O18   1.300430 A    
C26   H21   1.111761 S    
C25   C26   1.539803 S    
O3    C2    1.319244 A    
N7    O21   1.300243 A    
C29   H28   1.096532 S    
C13   C14   1.346449 D    
N5    O17   1.300449 A    
N4    O13   1.301303 A    
O1    C1    1.298293 A    
C20   C21   1.525143 S    
C25   H20   1.105737 S    
Cu1   O7    1.969030 S    
C28   H26   1.109853 S    
N7    O22   1.297640 A    
C17   N1    1.317348 D    
C9    C12   1.538794 S    
C18   O15   1.387514 S    
C27   H25   1.108886 S    
C18   N2    1.298748 D    
Cu2   N2    2.075883 S    
N6    O19   1.300279 A    
C28   H27   1.097009 S    
N2    O16   1.341274 S    
Cu2   O6    2.031662 S    
O8    C4    1.308410 A    
C32   H35   1.106372 S    
C33   H39   1.108787 S    
C32   H36   1.108298 S    
C11   H2    1.110870 S    
C3    C14   1.483339 S    
C20   H7    1.106451 S    
N1    N4    1.387174 S    
C19   H5    1.097246 S    
C30   H32   1.110255 S    
C10   N7    1.450213 S    
C23   C24   1.519996 S    
C5    H1    1.094755 S    
C6    C11   1.540474 S    
Cu1   N1    2.074937 S    
O1    Cu1   2.031662 S    
O2    Cu2   2.036799 S    
N6    O20   1.299572 A    
C8    N5    1.457749 S    
O6    C3    1.343081 A    
O4    Cu2   1.969030 S    
C31   H34   1.099358 S    
C13   H3    1.079770 S    
C32   C33   1.523433 S    
C24   H18   1.102326 S    
C26   C27   1.520910 S    
C25   H19   1.098659 S    
C15   H4    1.082340 S    
O2    C1    1.345399 A    
C29   C30   1.525303 S    
O11   C19   1.437713 S    
C2    C12   1.468801 S    
C9    N6    1.457875 S    
C24   H17   1.107956 S    
O23   C31   1.432409 S    
C28   C29   1.529156 S    
O15   C25   1.417980 S    
C21   H9    1.109163 S    
C9    C10   1.529666 S    
C6    C7    1.529343 S    
O12   C22   1.407492 S    
C11   C12   1.553371 S    
C27   H24   1.110457 S    
N3    O9    1.300051 A    
C26   H22   1.110575 S    
