data_mof_unit_8105.cif
_audit_creation_date              2012-12-10T17:22:56-0500
_audit_creation_method            fapswitch 2.2
_symmetry_space_group_name_H-M    P1
_symmetry_Int_Tables_number       1
_space_group_crystal_system       triclinic
_cell_length_a                    10.146359
_cell_length_b                    10.523575
_cell_length_c                    10.854797
_cell_angle_alpha                 91.244541
_cell_angle_beta                  95.610582
_cell_angle_gamma                 81.314591
_cell_volume                      1140.22280903

loop_
_atom_site_label
_atom_site_type_symbol
_atom_type_description
_atom_site_fract_x
_atom_site_fract_y
_atom_site_fract_z
_atom_type_partial_charge
C1    C     C_R   0.443742 0.509782 0.267723 0.932344
C2    C     C_3   0.498146 0.122859 0.489991 -0.031078
C3    C     C_3   0.625301 0.939232 0.490391 -0.190211
C4    C     C_3   0.374686 0.060772 0.509611 -0.190193
C5    C     C_2   0.411557 0.512823 0.135947 -0.400073
C6    C     C_2   0.588451 0.486987 0.864020 -0.400142
C7    C     C_2   0.512553 0.504699 0.065429 -0.183494
C8    C     C_2   0.487491 0.494776 0.934521 -0.183458
C9    C     C_2   0.072582 0.489190 0.489580 -0.135197
C10   C     C_2   0.927418 0.510810 0.510420 -0.135146
C11   C     C_R   0.583726 0.033521 0.262400 0.096055
C12   C     C_R   0.556258 0.490186 0.732266 0.932449
C13   C     C_R   0.625189 0.919541 0.197634 -0.165039
C14   C     C_R   0.667753 0.924328 0.079440 -0.112533
C15   C     C_R   0.668813 0.042863 0.024592 -0.092022
C16   C     C_R   0.626530 0.156547 0.087665 -0.146354
C17   C     C_R   0.583338 0.152182 0.205860 -0.149371
C18   C     C_R   0.416292 0.966365 0.737592 0.096056
C19   C     C_R   0.374536 0.080280 0.802354 -0.165013
C20   C     C_R   0.332042 0.075347 0.920577 -0.112474
C21   C     C_R   0.331330 0.956741 0.975443 -0.092038
C22   C     C_R   0.373938 0.843125 0.912377 -0.146544
C23   C     C_R   0.498122 0.257847 0.493093 0.848636
C24   C     C_R   0.417062 0.847637 0.794161 -0.149143
C25   C     C_R   0.501873 0.742155 0.506893 0.848591
C26   C     C_3   0.539234 0.024073 0.389900 0.051492
C27   C     C_3   0.460754 0.975924 0.610097 0.051530
C28   C     C_3   0.416115 0.960132 0.408978 -0.219158
C29   C     C_3   0.583870 0.039871 0.591024 -0.219141
C30   C     C_3   0.501844 0.877143 0.510005 -0.031112
H1    H     H_    0.347233 0.924613 0.334666 0.137459
H2    H     H_    0.108242 0.418918 0.421116 0.160089
H3    H     H_    0.879712 0.381801 0.384543 0.161590
H4    H     H_    0.120288 0.618198 0.615457 0.161628
H5    H     H_    0.624545 0.826787 0.238784 0.140388
H6    H     H_    0.699175 0.836151 0.030134 0.128342
H7    H     H_    0.701168 0.046659 0.932807 0.119659
H8    H     H_    0.626937 0.247926 0.044467 0.152786
H9    H     H_    0.548925 0.241005 0.251811 0.139086
H10   H     H_    0.374891 0.173090 0.761182 0.140361
H11   H     H_    0.300381 0.163474 0.969881 0.128292
H12   H     H_    0.652751 0.075390 0.665338 0.137492
H13   H     H_    0.299018 0.952841 0.067245 0.119652
H14   H     H_    0.373858 0.751686 0.955597 0.152954
H15   H     H_    0.451757 0.758872 0.748229 0.138815
H16   H     H_    0.728270 0.887527 0.483864 0.150689
H17   H     H_    0.271718 0.112478 0.516139 0.150647
H18   H     H_    0.384101 0.496900 0.895755 0.192915
H19   H     H_    0.615976 0.502413 0.104176 0.192846
H20   H     H_    0.691818 0.482902 0.903206 0.149029
H21   H     H_    0.308165 0.517076 0.096777 0.149068
H22   H     H_    0.891758 0.581082 0.578884 0.160083
N1    N     N_2   0.157310 0.552180 0.551120 -0.195455
N2    N     N_2   0.842690 0.447820 0.448880 -0.195460
O1    O     O_R   0.568940 0.489500 0.307530 -0.619702
O2    O     O_R   0.431060 0.510500 0.692470 -0.619655
O3    O     O_R   0.348880 0.522990 0.340350 -0.611033
O4    O     O_R   0.651120 0.477010 0.659650 -0.611054
O5    O     O_R   0.610000 0.297210 0.483560 -0.612951
O6    O     O_R   0.390000 0.702790 0.516440 -0.612858
O7    O     O_R   0.389940 0.330700 0.516390 -0.623242
O8    O     O_R   0.610060 0.669300 0.483610 -0.623242
Zn1   Zn    Zn3+2 0.646930 0.477640 0.478080 0.926246
Zn2   Zn    Zn3+2 0.353070 0.522360 0.521920 0.926312

loop_
_geom_bond_atom_site_label_1
_geom_bond_atom_site_label_2
_ccdc_geom_bond_type
O7    Zn2   S    
C2    C4    S    
C8    H18   S    
O8    Zn1   S    
C25   O6    A    
C1    O3    A    
C29   H12   S    
C3    C30   S    
C9    C10   S    
C3    H16   S    
O5    Zn1   S    
C19   C20   A    
C9    H2    S    
C23   O7    A    
O6    Zn2   S    
C10   H22   S    
C28   C30   S    
C20   H11   S    
C1    O1    A    
C12   O4    A    
C7    C8    S    
C2    C26   S    
C21   H13   S    
C21   C22   A    
C6    H20   S    
C27   C30   S    
C23   O5    A    
C11   C13   A    
O2    Zn2   S    
C12   O2    A    
C22   H14   S    
H3    N2    S    
O3    Zn2   S    
C2    C29   S    
C18   C24   A    
C24   H15   S    
O1    Zn1   S    
C4    C28   S    
C13   H5    S    
C22   C24   A    
C25   O8    A    
C3    C26   S    
C6    C12   S    
C10   N2    D    
N1    Zn2   S    
C1    C5    S    
C27   C29   S    
C19   H10   S    
C15   C16   A    
C2    C23   S    
C4    C27   S    
C9    N1    D    
C20   C21   A    
C7    H19   S    
H4    N1    S    
C5    C7    D    
C18   C19   A    
N2    Zn1   S    
C25   C30   S    
C3    C29   S    
C17   H9    S    
C14   C15   A    
C15   H7    S    
C14   H6    S    
C6    C8    D    
C11   C26   S    
C13   C14   A    
C26   C28   S    
C28   H1    S    
C5    H21   S    
C18   C27   S    
O4    Zn1   S    
C16   H8    S    
C16   C17   A    
C4    H17   S    
C11   C17   A    
