data_mof_unit_33710.cif
_audit_creation_date              2012-12-10T18:22:32-0500
_audit_creation_method            fapswitch 2.2
_symmetry_space_group_name_H-M    P1
_symmetry_Int_Tables_number       1
_space_group_crystal_system       triclinic
_cell_length_a                    23.561997
_cell_length_b                    10.647184
_cell_length_c                    9.423883
_cell_angle_alpha                 90.172679
_cell_angle_beta                  89.607659
_cell_angle_gamma                 90.356406
_cell_volume                      2364.04772448

loop_
_atom_site_label
_atom_site_type_symbol
_atom_type_description
_atom_site_fract_x
_atom_site_fract_y
_atom_site_fract_z
_atom_type_partial_charge
C1    C     C_R   0.499994 0.259691 0.499699 0.798373
C2    C     C_R   0.701735 0.580885 0.596001 0.094110
C3    C     C_R   0.237757 0.432799 0.398688 0.182794
C4    C     C_R   0.761453 0.574249 0.602107 0.183753
C5    C     C_R   0.208790 0.508062 0.498672 0.264994
C6    C     C_R   0.791140 0.496905 0.505618 0.254297
C7    C     C_3   0.538225 0.042422 0.592356 0.176982
C8    C     C_3   0.461717 0.957592 0.407435 0.176262
C9    C     C_3   0.551571 0.959577 0.462480 0.151414
C10   C     C_3   0.448358 0.040479 0.537270 0.151035
C11   C     C_3   0.500107 0.876914 0.500735 -0.108835
C12   C     C_R   0.499980 0.740320 0.500273 0.797383
C13   C     C_3   0.499832 0.123118 0.499093 -0.109268
C14   C     C_3   0.486697 0.958837 0.632200 -0.219720
C15   C     C_3   0.513227 0.041212 0.367601 -0.219548
C16   C     C_R   0.391063 0.498846 0.500526 0.827563
C17   C     C_R   0.608921 0.501796 0.499548 0.827364
C18   C     C_3   0.532641 0.586440 0.048303 0.300750
C19   C     C_3   0.467358 0.413551 0.951686 0.300963
C20   C     C_3   0.482377 0.606616 0.949444 -0.082853
C21   C     C_3   0.517622 0.393378 0.050553 -0.083333
C22   C     C_3   0.550641 0.480626 0.948177 -0.084123
C23   C     C_R   0.238655 0.579959 0.600410 0.151219
C24   C     C_3   0.449359 0.519368 0.051818 -0.083941
C25   C     C_R   0.879855 0.586796 0.425955 0.546523
C26   C     C_R   0.120013 0.420265 0.581053 0.524640
C27   C     C_R   0.880331 0.415410 0.588067 0.526734
C28   C     C_R   0.119566 0.592300 0.419857 0.546088
C29   C     C_R   0.940248 0.411870 0.586071 -0.044360
C30   C     C_R   0.059631 0.591451 0.416081 -0.048291
C31   C     C_R   0.969931 0.505177 0.507439 -0.098309
C32   C     C_R   0.029956 0.506456 0.506018 -0.095870
C33   C     C_R   0.939632 0.596832 0.429761 -0.059859
C34   C     C_R   0.762100 0.421731 0.405199 0.152693
C35   C     C_R   0.060252 0.421881 0.593316 -0.056590
C36   C     C_R   0.971156 0.321237 0.663721 0.136819
C37   C     C_R   0.028652 0.675358 0.329473 0.131248
C38   C     C_R   0.029814 0.339810 0.686086 0.154556
C39   C     C_R   0.970107 0.692279 0.355308 0.153526
C40   C     C_3   0.943813 0.198521 0.710389 -0.802095
C41   C     C_3   0.055726 0.737509 0.200809 -0.800154
C42   C     C_3   0.571467 0.690296 0.101803 -0.857578
C43   C     C_3   0.428517 0.309717 0.898144 -0.857384
C44   C     C_3   0.056904 0.281621 0.817717 -0.342748
C45   C     C_R   0.298829 0.579162 0.599182 0.069596
C46   C     C_3   0.079717 0.382103 0.919489 -0.799209
C47   C     C_3   0.943246 0.818019 0.315736 -0.344663
C48   C     C_3   0.920841 0.888023 0.446655 -0.793471
C49   C     C_3   0.205641 0.653620 0.712591 -0.377341
C50   C     C_3   0.196359 0.790046 0.668488 -0.788020
C51   C     C_3   0.796290 0.342380 0.300010 -0.370073
C52   C     C_3   0.794218 0.395961 0.149731 -0.779899
C53   C     C_3   0.332290 0.662377 0.700782 -0.838688
C54   C     C_3   0.668711 0.336382 0.304621 -0.833511
C55   C     C_3   0.327113 0.331634 0.304904 -0.841844
C56   C     C_R   0.701835 0.422263 0.404039 0.080116
C57   C     C_3   0.671218 0.672614 0.694047 -0.843963
C58   C     C_3   0.204790 0.358815 0.288067 -0.790988
C59   C     C_3   0.793681 0.652220 0.710685 -0.796277
C60   C     C_3   0.609973 0.907547 0.422861 -0.400687
C61   C     C_3   0.649287 0.007754 0.361279 -0.831282
C62   C     C_3   0.389890 0.092475 0.576381 -0.397405
C63   C     C_3   0.350730 0.992253 0.638617 -0.835000
C64   C     C_3   0.580897 0.092339 0.699593 -0.849931
C65   C     C_3   0.419081 0.907604 0.300142 -0.848333
C66   C     C_R   0.328192 0.499692 0.501834 -0.133951
C67   C     C_R   0.671786 0.502886 0.498811 -0.136954
C68   C     C_R   0.297473 0.423979 0.403827 0.092440
Cu1   Cu    Cu3+1 0.500010 0.499990 0.643150 0.924259
Cu2   Cu    Cu3+1 0.499990 0.500010 0.356850 0.924603
H1    H     H_    0.467850 0.696379 0.902757 0.121910
H2    H     H_    0.084897 0.671409 0.145997 0.255246
H3    H     H_    0.023696 0.761100 0.119390 0.196537
H4    H     H_    0.078686 0.824404 0.232600 0.259026
H5    H     H_    0.594339 0.733041 0.010436 0.208362
H6    H     H_    0.545916 0.764391 0.154131 0.238731
H7    H     H_    0.603085 0.651655 0.176075 0.247039
H8    H     H_    0.405656 0.266938 0.989509 0.208439
H9    H     H_    0.396888 0.348399 0.823932 0.246622
H10   H     H_    0.454037 0.235626 0.845705 0.238864
H11   H     H_    0.114453 0.438114 0.870860 0.262387
H12   H     H_    0.532149 0.303614 0.097238 0.121620
H13   H     H_    0.045017 0.446540 0.951901 0.241024
H14   H     H_    0.096577 0.336399 0.016110 0.236371
H15   H     H_    0.025587 0.227665 0.881659 0.191575
H16   H     H_    0.090041 0.212616 0.788822 0.241490
H17   H     H_    0.886680 0.834860 0.501700 0.271962
H18   H     H_    0.955944 0.905213 0.522558 0.237563
H19   H     H_    0.903412 0.980141 0.414046 0.233023
H20   H     H_    0.974640 0.883267 0.267350 0.192123
H21   H     H_    0.909946 0.806228 0.234312 0.239821
H22   H     H_    0.235949 0.833649 0.626833 0.256301
H23   H     H_    0.593294 0.465006 0.900875 0.133571
H24   H     H_    0.163422 0.795249 0.585416 0.277479
H25   H     H_    0.181471 0.845227 0.761559 0.233407
H26   H     H_    0.163591 0.610594 0.734735 0.194901
H27   H     H_    0.227457 0.649712 0.816492 0.204083
H28   H     H_    0.750225 0.399123 0.109123 0.251907
H29   H     H_    0.812319 0.492426 0.148106 0.279056
H30   H     H_    0.819784 0.336131 0.077135 0.244332
H31   H     H_    0.841663 0.336469 0.329015 0.198956
H32   H     H_    0.781858 0.243101 0.301656 0.193827
H33   H     H_    0.349372 0.604623 0.788398 0.243336
H34   H     H_    0.406710 0.535027 0.099123 0.133882
H35   H     H_    0.367769 0.709731 0.643773 0.228923
H36   H     H_    0.307565 0.739231 0.749233 0.234322
H37   H     H_    0.634004 0.288119 0.363570 0.224354
H38   H     H_    0.650373 0.392483 0.217255 0.244297
H39   H     H_    0.693806 0.260746 0.255177 0.228886
H40   H     H_    0.370890 0.308822 0.336629 0.229265
H41   H     H_    0.304715 0.239737 0.305038 0.227344
H42   H     H_    0.327950 0.369486 0.195280 0.235457
H43   H     H_    0.627225 0.693201 0.662280 0.230283
H44   H     H_    0.670695 0.635425 0.803971 0.235687
H45   H     H_    0.476343 0.923298 0.740015 0.147760
H46   H     H_    0.692799 0.765447 0.693351 0.226289
H47   H     H_    0.207660 0.256793 0.310348 0.232888
H48   H     H_    0.159122 0.382309 0.284530 0.223159
H49   H     H_    0.222258 0.378467 0.180643 0.228916
H50   H     H_    0.839536 0.630761 0.715411 0.227861
H51   H     H_    0.790030 0.753497 0.685089 0.223500
H52   H     H_    0.776231 0.634532 0.818568 0.234864
H53   H     H_    0.630063 0.051160 0.266181 0.246150
H54   H     H_    0.658235 0.080993 0.442024 0.256622
H55   H     H_    0.690146 0.964218 0.329395 0.252646
H56   H     H_    0.523563 0.076762 0.259780 0.147719
H57   H     H_    0.629720 0.868204 0.518896 0.204054
H58   H     H_    0.604957 0.830905 0.344355 0.208073
H59   H     H_    0.342507 0.917561 0.559079 0.256269
H60   H     H_    0.369733 0.950631 0.735010 0.246707
H61   H     H_    0.309544 0.035304 0.668620 0.253359
H62   H     H_    0.394811 0.169497 0.654478 0.207333
H63   H     H_    0.370125 0.131405 0.480007 0.203639
H64   H     H_    0.558139 0.140529 0.787499 0.234170
H65   H     H_    0.605595 0.013210 0.743530 0.227817
H66   H     H_    0.610182 0.160292 0.647681 0.231238
H67   H     H_    0.913836 0.163692 0.628594 0.252959
H68   H     H_    0.394400 0.986698 0.256069 0.227879
H69   H     H_    0.441870 0.859358 0.212327 0.233880
H70   H     H_    0.389776 0.839678 0.352025 0.232036
H71   H     H_    0.975585 0.122465 0.719893 0.196241
H72   H     H_    0.921656 0.210871 0.813804 0.257842
N1    N     N_R   0.852145 0.499143 0.505892 -0.452697
N2    N     N_R   0.147767 0.507489 0.500514 -0.447877
N3    N     N_3   0.500040 0.499970 0.858290 -0.162886
N4    N     N_3   0.499960 0.500030 0.141710 -0.163040
O1    O     O_R   0.500030 0.316850 0.620870 -0.573155
O2    O     O_2   0.150748 0.330957 0.645449 -0.559324
O3    O     O_2   0.849890 0.339205 0.674090 -0.551880
O4    O     O_2   0.150044 0.678004 0.346250 -0.554345
O5    O     O_R   0.499970 0.683150 0.379130 -0.573121
O6    O     O_R   0.500000 0.316860 0.379090 -0.590224
O7    O     O_R   0.500000 0.683140 0.620910 -0.590892
O8    O     O_R   0.417890 0.499960 0.620920 -0.578182
O9    O     O_R   0.582110 0.500040 0.379080 -0.578400
O10   O     O_R   0.417870 0.499970 0.379140 -0.575248
O11   O     O_R   0.582130 0.500030 0.620860 -0.575276
O12   O     O_2   0.849080 0.661145 0.340867 -0.565656

loop_
_geom_bond_atom_site_label_1
_geom_bond_atom_site_label_2
_ccdc_geom_bond_type
C59   H51   S    
C66   C68   A    
C64   H66   S    
C28   O4    S    
C59   H50   S    
C23   C45   A    
C40   H72   S    
C55   H42   S    
C27   C29   A    
Cu1   N3    S    
C3    C68   A    
C12   O7    A    
C6    C34   A    
C55   C68   S    
C2    C57   S    
C25   N1    A    
C43   H8    S    
C34   C56   A    
C29   C36   A    
C34   C51   S    
C19   N3    S    
C54   H37   S    
C61   H54   S    
Cu2   O10   S    
C62   H63   S    
C19   C21   S    
C18   C42   S    
C8    C10   S    
C11   C14   S    
C26   N2    A    
C50   H25   S    
C23   C49   S    
C43   H9    S    
C14   H45   S    
C58   H48   S    
C1    O6    A    
C63   H60   S    
C52   H28   S    
C41   H4    S    
C65   H70   S    
C53   H36   S    
C7    C14   S    
C20   C24   S    
C44   C46   S    
C15   H56   S    
C16   O10   A    
C47   C48   S    
C27   N1    A    
C48   H18   S    
C20   H1    S    
Cu2   N4    S    
C63   H61   S    
C17   O11   A    
C59   H52   S    
C64   H65   S    
C45   C53   S    
C8    C65   S    
C27   O3    S    
C40   H71   S    
C12   O5    A    
C10   C62   S    
C44   H16   S    
C19   C43   S    
C57   H46   S    
C54   C56   S    
C64   H64   S    
C17   C67   S    
Cu2   O9    S    
C32   C35   A    
C62   H62   S    
C60   H58   S    
C35   C38   A    
Cu2   O6    S    
C4    C6    A    
C2    C67   A    
C10   C14   S    
C50   H24   S    
C5    N2    S    
C57   H43   S    
C3    C5    A    
C43   H10   S    
C41   H3    S    
C52   H30   S    
C58   H47   S    
Cu1   O7    S    
C51   C52   S    
C30   C37   A    
C60   C61   S    
C51   H32   S    
C2    C4    A    
C38   C44   S    
C62   C63   S    
C46   H11   S    
Cu1   O11   S    
C31   C32   A    
C5    C23   A    
C22   N3    S    
C36   C40   S    
C40   H67   S    
C31   C33   A    
C42   H5    S    
C48   H17   S    
C33   C39   A    
C26   O2    S    
C9    C11   S    
C41   H2    S    
C28   N2    A    
C65   H68   S    
C50   H22   S    
C8    C15   S    
C48   H19   S    
C13   C15   S    
C55   H40   S    
C16   O8    A    
Cu1   O1    S    
C22   H23   S    
C46   H14   S    
C1    O1    A    
C1    C13   S    
C44   H15   S    
C17   O9    A    
C25   O12   S    
C39   C47   S    
C7    C9    S    
C55   H41   S    
C18   C22   S    
C47   H21   S    
C60   H57   S    
Cu2   O5    S    
C18   N4    S    
C10   C13   S    
C11   C12   S    
C57   H44   S    
C51   H31   S    
C56   C67   A    
C52   H29   S    
C42   H6    S    
Cu1   O8    S    
C54   H38   S    
C61   H53   S    
C9    C60   S    
C21   N4    S    
C28   C30   A    
C19   C24   S    
C9    C15   S    
C29   C31   A    
C24   N4    S    
C30   C32   A    
C53   H33   S    
C8    C11   S    
C4    C59   S    
C36   C38   A    
C58   H49   S    
C47   H20   S    
C18   C20   S    
C63   H59   S    
C49   H26   S    
C37   C41   S    
Cu1   Cu2   S    
C7    C64   S    
C49   H27   S    
C46   H13   S    
C65   H69   S    
C3    C58   S    
C53   H35   S    
C26   C35   A    
C7    C13   S    
C16   C66   S    
C21   H12   S    
C54   H39   S    
C42   H7    S    
C37   C39   A    
C49   C50   S    
C45   C66   A    
C20   N3    S    
C61   H55   S    
C24   H34   S    
C6    N1    S    
C21   C22   S    
C25   C33   A    
