data_mof_unit_12472.cif
_audit_creation_date              2013-03-05T15:51:36-0500
_audit_creation_method            fapswitch 2.2
_symmetry_space_group_name_H-M    P1
_symmetry_Int_Tables_number       1
_space_group_crystal_system       triclinic
_cell_length_a                    31.662191
_cell_length_b                    18.31118
_cell_length_c                    25.792492
_cell_angle_alpha                 89.94707
_cell_angle_beta                  144.590412
_cell_angle_gamma                 90.053592
_cell_volume                      8664.47102873

loop_
_atom_site_label
_atom_site_type_symbol
_atom_site_description
_atom_site_fract_x
_atom_site_fract_y
_atom_site_fract_z
_atom_type_partial_charge
Zn1   Zn    Zn3+2 0.000000 0.086750 0.293940 1.039884
Zn2   Zn    Zn3+2 0.000000 0.913250 0.706060 1.035820
Zn3   Zn    Zn3+2 0.000000 0.086750 0.706060 1.031962
Zn4   Zn    Zn3+2 0.000000 0.913250 0.293940 1.050857
Zn5   Zn    Zn3+2 0.500000 0.586750 0.293940 1.089221
Zn6   Zn    Zn3+2 0.500000 0.413250 0.706060 1.067431
Zn7   Zn    Zn3+2 0.500000 0.586750 0.706060 1.027727
Zn8   Zn    Zn3+2 0.500000 0.413250 0.293940 1.022732
Zn9   Zn    Zn3+2 0.913220 0.000000 0.119290 1.082094
Zn10  Zn    Zn3+2 0.086780 0.000000 0.880710 1.101827
Zn11  Zn    Zn3+2 0.413220 0.500000 0.119290 1.071250
Zn12  Zn    Zn3+2 0.586780 0.500000 0.880710 1.078621
Zn13  Zn    Zn3+2 0.086730 0.000000 0.292800 1.015133
Zn14  Zn    Zn3+2 0.913270 0.000000 0.707200 0.979596
Zn15  Zn    Zn3+2 0.586730 0.500000 0.292800 0.979293
Zn16  Zn    Zn3+2 0.413270 0.500000 0.707200 1.010349
O1    O     O_3   0.999990 0.000000 0.249990 -0.515409
O2    O     O_3   0.000010 0.000000 0.750010 -0.517465
O3    O     O_3   0.499990 0.500000 0.249990 -0.515833
O4    O     O_3   0.500010 0.500000 0.750010 -0.515214
O5    O     O_R   0.914560 0.853840 0.195310 -0.598483
O6    O     O_R   0.085440 0.146160 0.804690 -0.615295
O7    O     O_R   0.085440 0.853840 0.804690 -0.637668
O8    O     O_R   0.914560 0.146160 0.195310 -0.598508
O9    O     O_R   0.414560 0.353840 0.195310 -0.623344
O10   O     O_R   0.585440 0.646160 0.804690 -0.616307
O11   O     O_R   0.585440 0.353840 0.804690 -0.579047
O12   O     O_R   0.414560 0.646160 0.195310 -0.588931
O13   O     O_R   0.085440 0.146150 0.366190 -0.593149
O14   O     O_R   0.914560 0.853850 0.633810 -0.622038
O15   O     O_R   0.914560 0.146150 0.633810 -0.642920
O16   O     O_R   0.085440 0.853850 0.366190 -0.614039
O17   O     O_R   0.585440 0.646150 0.366190 -0.605724
O18   O     O_R   0.414560 0.353850 0.633810 -0.594060
O19   O     O_R   0.414560 0.646150 0.633810 -0.608479
O20   O     O_R   0.585440 0.353850 0.366190 -0.639308
O21   O     O_R   0.853820 0.085430 0.073070 -0.631271
O22   O     O_R   0.146180 0.914570 0.926930 -0.560177
O23   O     O_R   0.146180 0.085430 0.926930 -0.613375
O24   O     O_R   0.853820 0.914570 0.073070 -0.609541
O25   O     O_R   0.353820 0.585430 0.073070 -0.595569
O26   O     O_R   0.646180 0.414570 0.926930 -0.638903
O27   O     O_R   0.646180 0.585430 0.926930 -0.605294
O28   O     O_R   0.353820 0.414570 0.073070 -0.615126
O29   O     O_R   0.146150 0.914540 0.365390 -0.644839
O30   O     O_R   0.853850 0.085460 0.634610 -0.635370
O31   O     O_R   0.853850 0.914540 0.634610 -0.641986
O32   O     O_R   0.146150 0.085460 0.365390 -0.649365
O33   O     O_R   0.646150 0.414540 0.365390 -0.640123
O34   O     O_R   0.353850 0.585460 0.634610 -0.647423
O35   O     O_R   0.353850 0.414540 0.634610 -0.650601
O36   O     O_R   0.646150 0.585460 0.365390 -0.649885
O37   O     O_R   0.939240 0.000000 0.071950 -0.582892
O38   O     O_R   0.060760 0.000000 0.928050 -0.589765
O39   O     O_R   0.439240 0.500000 0.071950 -0.620958
O40   O     O_R   0.560760 0.500000 0.928050 -0.582277
O41   O     O_R   0.000020 0.939290 0.367320 -0.621830
O42   O     O_R   0.999980 0.060710 0.632680 -0.595392
O43   O     O_R   0.999980 0.939290 0.632680 -0.654223
O44   O     O_R   0.000020 0.060710 0.367320 -0.659298
O45   O     O_R   0.500020 0.439290 0.367320 -0.619387
O46   O     O_R   0.499980 0.560710 0.632680 -0.656749
O47   O     O_R   0.499980 0.439290 0.632680 -0.622401
O48   O     O_R   0.500020 0.560710 0.367320 -0.625417
O49   O     O_R   0.060680 0.000000 0.193390 -0.648229
O50   O     O_R   0.939320 0.000000 0.806610 -0.654206
O51   O     O_R   0.560680 0.500000 0.193390 -0.643779
O52   O     O_R   0.439320 0.500000 0.806610 -0.652733
C1    C     C_R   0.860510 0.859768 0.109880 0.888000
C2    C     C_R   0.140639 0.138999 0.890178 0.845882
C3    C     C_R   0.138626 0.858923 0.889805 0.899360
C4    C     C_R   0.861413 0.141123 0.110655 0.859336
C5    C     C_R   0.359450 0.360797 0.109929 0.857387
C6    C     C_R   0.639422 0.640272 0.890132 0.877430
C7    C     C_R   0.638532 0.358824 0.889348 0.856474
C8    C     C_R   0.361290 0.640907 0.110502 0.894988
C9    C     C_R   0.139694 0.139898 0.389602 0.821951
C10   C     C_R   0.860412 0.859973 0.610671 0.803512
C11   C     C_R   0.860169 0.139769 0.610084 0.768605
C12   C     C_R   0.139734 0.860123 0.389664 0.820370
C13   C     C_R   0.639491 0.640054 0.389216 0.808908
C14   C     C_R   0.360331 0.360085 0.610447 0.819894
C15   C     C_R   0.360246 0.639880 0.610310 0.824505
C16   C     C_R   0.639808 0.360210 0.389875 0.770854
C17   C     C_R   0.000271 0.000975 0.109300 0.830605
C18   C     C_R   0.999736 0.999486 0.890648 0.820329
C19   C     C_R   0.500264 0.500770 0.109297 0.814775
C20   C     C_R   0.499683 0.498316 0.890597 0.831750
C21   C     C_R   0.999308 0.999999 0.390889 0.850437
C22   C     C_R   0.000153 0.000005 0.608508 0.880292
C23   C     C_R   0.499858 0.499964 0.391487 0.917587
C24   C     C_R   0.500571 0.500037 0.608990 0.856867
C25   C     C_3   0.058566 0.964799 0.540676 -0.288143
C26   C     C_3   0.938772 0.035033 0.456565 -0.280236
C27   C     C_3   0.998804 0.930156 0.516142 -0.233427
C28   C     C_3   0.998442 0.069695 0.480926 -0.236829
C29   C     C_3   0.501508 0.430232 0.484222 -0.218626
C30   C     C_3   0.499729 0.569709 0.517193 -0.243782
C31   C     C_3   0.441355 0.463886 0.459415 -0.270771
C32   C     C_3   0.559823 0.536077 0.541887 -0.305038
C33   C     C_3   0.057330 0.033632 0.573552 0.372349
C34   C     C_3   0.939847 0.966292 0.423381 0.381914
C35   C     C_3   0.560002 0.467316 0.576353 0.377485
C36   C     C_3   0.441249 0.532693 0.425142 0.399423
C37   C     C_3   0.999253 0.999866 0.550426 -0.108311
C38   C     C_3   0.998225 0.000043 0.446888 -0.105327
C39   C     C_3   0.501279 0.500094 0.552617 -0.104509
C40   C     C_3   0.499840 0.499901 0.448638 -0.110307
C41   C     C_R   0.162424 0.230732 0.322733 -0.080629
C42   C     C_R   0.836223 0.769770 0.676401 -0.112495
C43   C     C_R   0.885689 0.278172 0.684527 -0.144812
C44   C     C_R   0.165108 0.772323 0.324360 -0.088748
C45   C     C_R   0.661253 0.732269 0.321947 -0.087939
C46   C     C_R   0.337650 0.269257 0.677368 -0.078929
C47   C     C_R   0.334598 0.727541 0.675426 -0.082753
C48   C     C_R   0.614213 0.221743 0.315446 -0.149414
C49   C     C_R   0.172817 0.274502 0.289545 -0.050757
C50   C     C_R   0.825036 0.726268 0.708838 -0.104792
C51   C     C_R   0.898698 0.345075 0.721535 -0.114689
C52   C     C_R   0.176020 0.729385 0.291421 -0.047031
C53   C     C_R   0.671319 0.776690 0.288732 -0.073590
C54   C     C_R   0.327369 0.225419 0.710644 -0.057351
C55   C     C_R   0.323384 0.770244 0.708149 -0.057678
C56   C     C_R   0.601157 0.154797 0.278461 -0.112731
C57   C     C_R   0.724491 0.830622 0.342298 -0.095020
C58   C     C_R   0.274284 0.171365 0.657274 -0.076667
C59   C     C_R   0.270827 0.824763 0.655148 -0.096632
C60   C     C_R   0.654704 0.101108 0.332046 -0.100439
C61   C     C_R   0.225891 0.328556 0.342918 -0.084680
C62   C     C_R   0.772546 0.671712 0.655663 -0.120853
C63   C     C_R   0.845145 0.398757 0.667955 -0.099032
C64   C     C_R   0.228474 0.674774 0.344350 -0.065945
C65   C     C_R   0.768321 0.840102 0.429687 -0.159383
C66   C     C_R   0.230936 0.161136 0.570166 -0.154689
C67   C     C_R   0.228855 0.836466 0.568919 -0.152388
C68   C     C_R   0.721626 0.114121 0.422864 -0.148208
C69   C     C_R   0.269161 0.338829 0.429970 -0.157746
C70   C     C_R   0.730243 0.660934 0.569234 -0.154757
C71   C     C_R   0.778266 0.385782 0.577114 -0.135857
C72   C     C_R   0.270740 0.663280 0.430770 -0.156535
C73   C     C_R   0.760150 0.794771 0.465731 0.066980
C74   C     C_R   0.239432 0.205836 0.534138 0.065718
C75   C     C_R   0.238254 0.792858 0.533388 0.068395
C76   C     C_R   0.736150 0.181640 0.462122 0.071276
C77   C     C_R   0.260623 0.294143 0.465958 0.069009
C78   C     C_R   0.739010 0.705807 0.533599 0.072069
C79   C     C_R   0.763783 0.318299 0.537836 0.070369
C80   C     C_R   0.261577 0.707064 0.466470 0.063051
C81   C     C_R   0.206251 0.239517 0.411429 0.072119
C82   C     C_R   0.793210 0.760607 0.588198 0.070252
C83   C     C_R   0.818282 0.263782 0.592274 0.074329
C84   C     C_R   0.207529 0.761973 0.412199 0.068101
C85   C     C_R   0.705650 0.740254 0.410969 0.068444
C86   C     C_R   0.293797 0.260470 0.588658 0.071659
C87   C     C_R   0.292328 0.737978 0.587682 0.068315
C88   C     C_R   0.681653 0.236162 0.407682 0.074657
C89   C     C_R   0.803924 0.804125 0.554163 -0.144215
C90   C     C_R   0.195934 0.195948 0.445867 -0.130262
C91   C     C_R   0.196018 0.804153 0.445924 -0.140635
C92   C     C_R   0.804059 0.195936 0.553953 -0.132474
C93   C     C_R   0.304102 0.304037 0.554208 -0.129690
C94   C     C_R   0.695673 0.696100 0.445468 -0.139619
C95   C     C_R   0.695899 0.304028 0.445994 -0.132405
C96   C     C_R   0.303921 0.695847 0.554014 -0.141699
H1    H     H_    0.119502 0.190403 0.277841 0.164288
H2    H     H_    0.878836 0.810389 0.721273 0.158320
H3    H     H_    0.928840 0.237934 0.729090 0.116514
H4    H     H_    0.122722 0.813127 0.279735 0.167537
H5    H     H_    0.618075 0.692179 0.276859 0.160936
H6    H     H_    0.380523 0.309634 0.722218 0.165136
H7    H     H_    0.377002 0.686767 0.720075 0.164148
H8    H     H_    0.571065 0.261985 0.270884 0.117396
C97   C     C_R   0.725658 0.886392 0.024513 -0.188309
C98   C     C_R   0.152625 0.235118 0.987537 -0.230552
C99   C     C_R   0.237267 0.848167 0.904241 -0.173117
C100  C     C_R   0.742094 0.129088 0.060102 -0.231468
C101  C     C_R   0.347897 0.262840 0.014070 -0.232082
C102  C     C_R   0.774963 0.613131 0.977305 -0.225919
C103  C     C_R   0.758214 0.371394 0.940677 -0.192701
C104  C     C_R   0.257781 0.642335 0.087398 -0.135246
C105  C     C_R   0.662570 0.900026 0.989191 -0.200440
C106  C     C_R   0.155027 0.282201 0.031792 -0.260801
C107  C     C_R   0.290843 0.852569 0.920068 -0.171377
C108  C     C_R   0.681671 0.117390 0.030758 -0.243686
C109  C     C_R   0.349591 0.211598 0.976402 -0.268302
C110  C     C_R   0.838311 0.599390 0.013203 -0.222215
C111  C     C_R   0.818381 0.382845 0.969476 -0.205400
C112  C     C_R   0.211705 0.643216 0.083603 -0.121975
C113  C     C_R   0.308128 0.148174 0.938168 0.317238
C114  C     C_R   0.889601 0.654260 0.056621 0.280345
C115  C     C_R   0.880587 0.339862 0.036978 0.274479
C116  C     C_R   0.160897 0.698420 0.038317 0.270307
C117  C     C_R   0.610829 0.845443 0.944798 0.279708
C118  C     C_R   0.200972 0.342495 0.077432 0.295643
C119  C     C_R   0.356680 0.815764 0.992161 0.280497
C120  C     C_R   0.619163 0.159853 0.962487 0.285724
C121  C     C_R   0.259736 0.138654 0.931919 0.241845
C122  C     C_R   0.877483 0.724129 0.066007 0.234932
C123  C     C_R   0.879987 0.281043 0.072056 0.216489
C124  C     C_R   0.152866 0.751596 0.991205 0.227269
C125  C     C_R   0.622311 0.775876 0.934107 0.236383
C126  C     C_R   0.247676 0.354177 0.081343 0.219978
C127  C     C_R   0.365044 0.766938 0.042496 0.215563
C128  C     C_R   0.619788 0.218589 0.927339 0.215047
C129  C     C_R   0.251798 0.195250 0.962150 -0.078404
C130  C     C_R   0.815343 0.737227 0.036347 -0.066570
C131  C     C_R   0.814702 0.263100 0.034758 -0.079035
C132  C     C_R   0.199579 0.751241 0.993196 -0.078347
C133  C     C_R   0.684545 0.762740 0.963911 -0.069022
C134  C     C_R   0.250878 0.301862 0.043024 -0.076697
C135  C     C_R   0.306017 0.754495 0.018626 -0.075953
C136  C     C_R   0.685248 0.236800 0.965116 -0.077700
C137  C     C_R   0.738150 0.817925 0.013243 0.036908
C138  C     C_R   0.200443 0.243345 0.992708 0.053951
C139  C     C_R   0.244959 0.801190 0.955195 0.034274
C140  C     C_R   0.744772 0.187952 0.027337 0.055678
C141  C     C_R   0.300297 0.255241 0.009270 0.051725
C142  C     C_R   0.761967 0.681916 0.987482 0.041601
C143  C     C_R   0.755335 0.312181 0.972931 0.042382
C144  C     C_R   0.254238 0.696765 0.045035 0.003752
C145  C     C_R   0.198582 0.193346 0.948928 -0.080506
C146  C     C_R   0.803807 0.804052 0.051726 -0.084686
C147  C     C_R   0.806625 0.198776 0.057281 -0.087207
C148  C     C_R   0.194169 0.802024 0.945827 -0.089211
C149  C     C_R   0.696073 0.695983 0.948407 -0.084596
C150  C     C_R   0.301739 0.306032 0.052212 -0.085187
C151  C     C_R   0.306200 0.698174 0.056586 -0.088369
C152  C     C_R   0.693379 0.301217 0.942762 -0.086513
H9    H     H_    0.654727 0.953432 0.998288 0.196662
H10   H     H_    0.118433 0.273157 0.027389 0.185758
H11   H     H_    0.282650 0.888795 0.879230 0.243603
H12   H     H_    0.682815 0.072677 0.059358 0.207960
H13   H     H_    0.386951 0.219521 0.981852 0.183502
H14   H     H_    0.846620 0.545716 0.005120 0.196226
H15   H     H_    0.817314 0.427732 0.941092 0.213633
H16   H     H_    0.217847 0.602477 0.119803 0.267928
H17   H     H_    0.993898 0.749240 0.042791 0.201914
H18   H     H_    0.004316 0.252318 0.955303 0.151710
H19   H     H_    0.497853 0.247466 0.047435 0.150839
H20   H     H_    0.496743 0.750131 0.947062 0.208310
C153  C     C_R   0.010891 0.135455 0.063753 -0.158485
C154  C     C_R   0.979675 0.866408 0.927146 -0.080732
C155  C     C_R   0.517976 0.633666 0.069520 -0.134911
C156  C     C_R   0.491565 0.363679 0.938869 -0.163418
C157  C     C_R   0.010336 0.201297 0.036078 -0.083661
C158  C     C_R   0.979204 0.800722 0.954031 -0.064049
C159  C     C_R   0.514938 0.699321 0.039145 -0.096678
C160  C     C_R   0.492365 0.297999 0.966993 -0.089962
C161  C     C_R   0.005770 0.201145 0.977742 -0.120664
C162  C     C_R   0.991910 0.800426 0.019833 -0.044714
C163  C     C_R   0.500442 0.699113 0.971816 -0.078840
C164  C     C_R   0.496330 0.298501 0.024763 -0.126854
C165  C     C_R   0.003179 0.135133 0.948341 -0.156259
C166  C     C_R   0.001870 0.866160 0.055952 -0.100987
C167  C     C_R   0.492570 0.633001 0.937949 -0.105415
C168  C     C_R   0.498283 0.364689 0.053347 -0.156272
C169  C     C_R   0.002664 0.067708 0.974909 0.079502
C170  C     C_R   0.998603 0.933576 0.025961 0.044900
C171  C     C_R   0.498565 0.565825 0.970827 0.055926
C172  C     C_R   0.498263 0.431957 0.026058 0.084992
C173  C     C_R   0.005035 0.067993 0.031663 0.061153
C174  C     C_R   0.992075 0.933454 0.965312 0.067261
C175  C     C_R   0.505993 0.566342 0.032272 0.054246
C176  C     C_R   0.496142 0.431341 0.969531 0.057182
C177  C     C_R   0.998148 0.000203 0.944442 -0.125476
C178  C     C_R   0.001904 0.000912 0.055401 -0.143260
C179  C     C_R   0.497764 0.498350 0.944125 -0.145933
C180  C     C_R   0.501837 0.499680 0.055392 -0.136814
H21   H     H_    0.016388 0.137600 0.110746 0.176920
H22   H     H_    0.970279 0.864240 0.876438 0.167220
H23   H     H_    0.531849 0.635617 0.123917 0.179157
H24   H     H_    0.486637 0.361268 0.892416 0.177428
H25   H     H_    0.013364 0.252532 0.059863 0.200317
H26   H     H_    0.971497 0.749667 0.926049 0.179780
H27   H     H_    0.523637 0.750487 0.067577 0.209916
H28   H     H_    0.489873 0.246627 0.943873 0.200584
N1    N     N_R   0.122062 0.071860 0.656311 0.224933
O53   O     O_R   0.186441 0.047852 0.708395 -0.336246
O54   O     O_R   0.115646 0.133080 0.674989 -0.346082
N2    N     N_R   0.873861 0.929013 0.340311 0.216067
O55   O     O_R   0.829785 0.901199 0.330415 -0.399129
O56   O     O_R   0.857248 0.925425 0.274749 -0.401742
N3    N     N_R   0.626662 0.431108 0.659884 0.216001
O57   O     O_R   0.671362 0.404767 0.670270 -0.370418
O58   O     O_R   0.643037 0.426739 0.725206 -0.418480
N4    N     N_R   0.374939 0.569547 0.342231 0.231821
O59   O     O_R   0.328572 0.592590 0.330246 -0.394126
O60   O     O_R   0.363019 0.582192 0.281500 -0.379771
N5    N     N_R   0.225024 0.069078 0.903441 0.192124
O61   O     O_R   0.176191 0.047401 0.821462 -0.365762
O62   O     O_R   0.250536 0.022985 0.962816 -0.380389
N6    N     N_R   0.919682 0.783585 0.088525 0.176096
O63   O     O_R   0.983822 0.797886 0.171634 -0.431347
O64   O     O_R   0.891033 0.826856 0.025444 -0.418910
N7    N     N_R   0.947148 0.244560 0.149897 0.210697
O65   O     O_R   0.970012 0.193178 0.142185 -0.480917
O66   O     O_R   0.989632 0.268939 0.228886 -0.334178
N8    N     N_R   0.097991 0.805618 0.943766 0.177662
O67   O     O_R   0.032198 0.793920 0.861079 -0.477957
O68   O     O_R   0.110313 0.859029 0.988057 -0.353579
N9    N     N_R   0.578822 0.716654 0.909254 0.180540
O69   O     O_R   0.605287 0.673334 0.970990 -0.405775
O70   O     O_R   0.514848 0.703739 0.825548 -0.427328
N10   N     N_R   0.287463 0.421253 0.118963 0.195000
O71   O     O_R   0.266015 0.472371 0.065986 -0.415448
O72   O     O_R   0.336553 0.435773 0.202966 -0.365479
N11   N     N_R   0.435231 0.735639 0.121769 0.199635
O73   O     O_R   0.456161 0.679202 0.116234 -0.477512
O74   O     O_R   0.478779 0.764414 0.199492 -0.346166
N12   N     N_R   0.552492 0.254460 0.848733 0.210167
O75   O     O_R   0.510958 0.229738 0.770260 -0.329213
O76   O     O_R   0.528579 0.305665 0.855146 -0.485391
H29   H     H_    0.000308 0.137559 0.903582 0.102732
H30   H     H_    0.012715 0.863790 0.107936 0.178516
H31   H     H_    0.481585 0.634935 0.885813 0.176097
H32   H     H_    0.500836 0.362538 0.097805 0.105144
H33   H     H_    0.108076 0.937015 0.575273 0.181375
H34   H     H_    0.889156 0.062657 0.421806 0.179035
H35   H     H_    0.997665 0.872992 0.529357 0.192348
H36   H     H_    0.999624 0.126872 0.467779 0.195668
H37   H     H_    0.503444 0.373084 0.471895 0.198515
H38   H     H_    0.497725 0.626862 0.529440 0.196121
H39   H     H_    0.392178 0.435450 0.425156 0.185092
H40   H     H_    0.608936 0.564572 0.576041 0.175800
H41   H     H_    0.266884 0.136913 0.683605 0.192252
H42   H     H_    0.731525 0.865600 0.315856 0.193247
H43   H     H_    0.644487 0.049218 0.303089 0.163741
H44   H     H_    0.262761 0.858433 0.681080 0.164656
H45   H     H_    0.764666 0.637434 0.681544 0.153493
H46   H     H_    0.233348 0.362976 0.316638 0.184553
H47   H     H_    0.236150 0.640827 0.318146 0.205273
H48   H     H_    0.855325 0.450611 0.696933 0.155871
H49   H     H_    0.139182 0.266828 0.221890 0.159752
H50   H     H_    0.857320 0.734623 0.775598 0.139371
H51   H     H_    0.950487 0.355180 0.792162 0.153041
H52   H     H_    0.143029 0.738031 0.224141 0.184457
H53   H     H_    0.637493 0.769603 0.220996 0.155145
H54   H     H_    0.361125 0.233050 0.778381 0.159055
H55   H     H_    0.356139 0.761428 0.775272 0.159830
H56   H     H_    0.549334 0.144664 0.207851 0.156362
H57   H     H_    0.808000 0.883746 0.467987 0.132273
H58   H     H_    0.191280 0.117482 0.532012 0.128302
H59   H     H_    0.189624 0.880469 0.531136 0.126009
H60   H     H_    0.761774 0.070884 0.461628 0.122172
H61   H     H_    0.308807 0.382492 0.468116 0.125284
H62   H     H_    0.690962 0.616926 0.531190 0.120904
H63   H     H_    0.738111 0.429012 0.538355 0.120698
H64   H     H_    0.309926 0.619231 0.468522 0.134769
N13   N     N_R   0.951945 0.639311 0.086807 0.213337
O77   O     O_R   0.947714 0.590779 0.045853 -0.337056
O78   O     O_R   0.015278 0.667149 0.161179 -0.357998
N14   N     N_R   0.318460 0.092479 0.909911 0.261298
O79   O     O_R   0.336356 0.110540 0.880677 -0.342837
O80   O     O_R   0.321773 0.024097 0.926603 -0.312479
N15   N     N_R   0.119525 0.701951 0.043864 0.216363
O81   O     O_R   0.085213 0.644158 0.025884 -0.354837
O82   O     O_R   0.132116 0.754891 0.088817 -0.358324
N16   N     N_R   0.943840 0.357111 0.069307 0.216305
O83   O     O_R   0.936230 0.391053 0.017659 -0.347761
O84   O     O_R   0.009427 0.345234 0.152127 -0.333249
N17   N     N_R   0.197716 0.392793 0.116942 0.237801
O85   O     O_R   0.184129 0.368886 0.149898 -0.394413
O86   O     O_R   0.198028 0.462873 0.109100 -0.309658
N18   N     N_R   0.548556 0.860361 0.914758 0.216295
O87   O     O_R   0.484898 0.833692 0.839553 -0.357124
O88   O     O_R   0.553279 0.907874 0.956841 -0.324984
N19   N     N_R   0.555645 0.142147 0.929522 0.214401
O89   O     O_R   0.562874 0.107258 0.980457 -0.355416
O90   O     O_R   0.490168 0.154786 0.846835 -0.331655
N20   N     N_R   0.415444 0.830545 0.015549 0.220724
O91   O     O_R   0.401448 0.848196 0.953674 -0.372240
O92   O     O_R   0.481863 0.837331 0.099035 -0.350771
H65   H     H_    0.764317 0.930849 0.060510 0.148105
H66   H     H_    0.113114 0.191428 0.950290 0.143257
H67   H     H_    0.190126 0.882762 0.851834 0.194369
H68   H     H_    0.787446 0.091970 0.110511 0.147934
H69   H     H_    0.384970 0.308414 0.047296 0.146660
H70   H     H_    0.736580 0.568478 0.941876 0.146399
H71   H     H_    0.713204 0.409011 0.891096 0.168079
H72   H     H_    0.298065 0.599476 0.126904 0.226829

loop_
_geom_bond_atom_site_label_1
_geom_bond_atom_site_label_2
_geom_bond_distance
_ccdc_geom_bond_type
C109  H13   1.081069 S    
C126  N10   1.429639 S    
C25   H33   1.110384 S    
C122  C130  1.435560 A    
C86   C93   1.415341 A    
C27   H35   1.110143 S    
C172  C176  1.403825 A    
C42   C50   1.393280 A    
N9    O69   1.300320 A    
C161  C165  1.393903 A    
C104  H72   1.078395 S    
O26   C7    1.288007 A    
C169  C173  1.403341 A    
C6    C149  1.456669 S    
C171  C175  1.399825 A    
O30   C11   1.278242 A    
C119  C127  1.411694 A    
C113  C121  1.414530 A    
C71   H63   1.082138 S    
C117  C125  1.412742 A    
C114  N13   1.439796 S    
Zn12  O26   1.937210 S    
C56   H56   1.082820 S    
C78   C82   1.412485 A    
C21   C38   1.472431 S    
C106  C118  1.388832 A    
C76   C92   1.414327 A    
C103  H71   1.081794 S    
C27   C34   1.538165 S    
C19   C180  1.431383 S    
C54   C58   1.388373 A    
C113  N14   1.438371 S    
C100  H68   1.082239 S    
C153  C173  1.413057 A    
C33   C37   1.526468 S    
C74   C90   1.414961 A    
O11   C7    1.272339 A    
O34   C15   1.277570 A    
C49   H49   1.081598 S    
N12   O76   1.298255 A    
C51   H51   1.082775 S    
C158  H26   1.080823 S    
C169  C177  1.408616 A    
Zn1   O44   1.950865 S    
C25   C33   1.537972 S    
C11   C92   1.455349 S    
C44   C52   1.392691 A    
Zn2   O43   1.950865 S    
C12   C91   1.455069 S    
C133  C137  1.414089 A    
C144  C151  1.413249 A    
Zn6   O47   1.950865 S    
C110  C114  1.391175 A    
C97   C137  1.414826 A    
C54   H54   1.081938 S    
Zn7   O46   1.951719 S    
O16   C12   1.279879 A    
C78   C94   1.413310 A    
C137  C146  1.417174 A    
C117  N18   1.439778 S    
N20   O92   1.301219 A    
N15   O81   1.301060 A    
Zn16  O4    1.954141 S    
C65   H57   1.081420 S    
N14   O79   1.301778 A    
Zn12  O4    1.953262 S    
Zn1   O13   1.937706 S    
Zn3   O15   1.938613 S    
Zn4   O16   1.938614 S    
C115  N16   1.443309 S    
C73   C89   1.414194 A    
C153  C157  1.393358 A    
C43   H3    1.082211 S    
N8    O67   1.300727 A    
C159  H27   1.078405 S    
C62   C70   1.391262 A    
Zn6   O4    1.952194 S    
C99   C107  1.386250 A    
C69   C77   1.418244 A    
C100  C108  1.384944 A    
C103  C143  1.413434 A    
C156  H24   1.075761 S    
C22   C37   1.474933 S    
C101  C141  1.414769 A    
C42   C82   1.417161 A    
Zn10  O22   1.937210 S    
C59   H44   1.082711 S    
N6    O64   1.300390 A    
C173  C178  1.410969 A    
O25   C8    1.284204 A    
Zn13  O29   1.937034 S    
C62   H45   1.082707 S    
C77   C93   1.414749 A    
Zn10  O2    1.953262 S    
O29   C12   1.277480 A    
Zn15  O33   1.937034 S    
C48   C88   1.417193 A    
C102  C110  1.384528 A    
C61   C69   1.392743 A    
C58   C66   1.392998 A    
H20   C163  1.082269 S    
C68   C76   1.416889 A    
C97   H65   1.081660 S    
C35   C39   1.529040 S    
O48   C23   1.276619 A    
C46   C86   1.417971 A    
C160  C164  1.389662 A    
C36   N4    1.455283 S    
C55   H55   1.082569 S    
N4    O60   1.298248 A    
C15   C96   1.455557 S    
C131  C147  1.424965 A    
N13   O77   1.301672 A    
C82   C89   1.415737 A    
C13   C94   1.454262 S    
C41   C81   1.417953 A    
Zn16  O35   1.936984 S    
C98   C106  1.382832 A    
N20   O91   1.301639 A    
N7    O66   1.301055 A    
C129  C141  1.413863 A    
Zn7   O10   1.937766 S    
O33   C16   1.278298 A    
O40   C20   1.276203 A    
C52   H52   1.082854 S    
C2    C145  1.456039 S    
N18   O87   1.300176 A    
C43   C51   1.393530 A    
C24   C39   1.472325 S    
C168  H32   1.082511 S    
C75   C87   1.412304 A    
C106  H10   1.080720 S    
Zn5   O17   1.937706 S    
C116  C124  1.408537 A    
C51   C63   1.389991 A    
C26   H34   1.110129 S    
C143  C152  1.416071 A    
C172  C180  1.408919 A    
C49   C61   1.388225 A    
C81   C90   1.415405 A    
N10   O72   1.300686 A    
C84   C91   1.415838 A    
C25   C27   1.558834 S    
C123  N7    1.428266 S    
N1    O53   1.299954 A    
C134  C150  1.425849 A    
C127  C135  1.430960 A    
C170  C174  1.400958 A    
C155  C175  1.412035 A    
C61   H46   1.082707 S    
C125  C133  1.436295 A    
C131  C143  1.413636 A    
C32   C40   1.544399 S    
Zn8   O3    1.950489 S    
C80   C96   1.415319 A    
N2    O55   1.300125 A    
C98   H66   1.080957 S    
O38   C18   1.275000 A    
C64   H47   1.082147 S    
C116  N15   1.430454 S    
O5    C1    1.284074 A    
O32   C9    1.278683 A    
C76   C88   1.413126 A    
C79   C83   1.413095 A    
C53   C57   1.387921 A    
C25   C38   1.544082 S    
C48   H8    1.082214 S    
C55   C59   1.388147 A    
Zn15  O51   1.951222 S    
N5    O61   1.300128 A    
C154  C174  1.414829 A    
C60   H43   1.082664 S    
Zn11  O28   1.936148 S    
C74   C86   1.412433 A    
N16   O84   1.300724 A    
C26   C34   1.538704 S    
C16   C95   1.455302 S    
N15   O82   1.300352 A    
C121  N5    1.433091 S    
H17   C162  1.082308 S    
C120  C128  1.416466 A    
C170  C178  1.407110 A    
C107  H11   1.081867 S    
O8    C4    1.272213 A    
C157  C161  1.389345 A    
C3    C148  1.457608 S    
H19   C164  1.081977 S    
C17   C178  1.432616 S    
C80   C84   1.412347 A    
C68   H60   1.082141 S    
O50   C18   1.264439 A    
O37   C17   1.275915 A    
C109  C113  1.390573 A    
C159  C163  1.388221 A    
C132  C148  1.429620 A    
C141  C150  1.418865 A    
Zn1   O1    1.952192 S    
Zn13  O1    1.954139 S    
Zn2   O14   1.937705 S    
C101  H69   1.080929 S    
C79   C95   1.414248 A    
C73   C85   1.412687 A    
C130  C146  1.423365 A    
C176  C179  1.410981 A    
C168  C172  1.417848 A    
C58   H41   1.082786 S    
C153  H21   1.075708 S    
O9    C5    1.283255 A    
O39   C19   1.275691 A    
O36   C13   1.278353 A    
C63   C71   1.393848 A    
C118  N17   1.438915 S    
C31   H39   1.110379 S    
O13   C9    1.279837 A    
Zn1   O8    1.937971 S    
C124  C132  1.437500 A    
Zn2   O7    1.937969 S    
Zn3   O6    1.937766 S    
O18   C14   1.279834 A    
O31   C10   1.278056 A    
O6    C2    1.285211 A    
C110  H14   1.081153 S    
C162  C166  1.392347 A    
C26   C37   1.544373 S    
C121  C129  1.437580 A    
C66   H58   1.081368 S    
C165  C169  1.418005 A    
C139  C148  1.418210 A    
C174  C177  1.409847 A    
C41   C49   1.393111 A    
Zn14  O30   1.937032 S    
Zn15  O3    1.954139 S    
N17   O86   1.300197 A    
Zn11  O3    1.953262 S    
C154  C158  1.393939 A    
O41   C21   1.276494 A    
C33   N1    1.454556 S    
Zn16  O34   1.937032 S    
C60   C68   1.393914 A    
C5    C150  1.458047 S    
C128  N12   1.428425 S    
C103  C111  1.384800 A    
C118  C126  1.413868 A    
C101  C109  1.383445 A    
C70   H62   1.081352 S    
C165  H29   1.082510 S    
Zn8   O20   1.938614 S    
C104  C112  1.380327 A    
C88   C95   1.413820 A    
C122  N6    1.428755 S    
C107  C119  1.392522 A    
C44   C84   1.418528 A    
C156  C176  1.412845 A    
C105  C117  1.391114 A    
C102  H70   1.081569 S    
C9    C90   1.455066 S    
C56   C60   1.390023 A    
C31   C36   1.536874 S    
C97   C105  1.384367 A    
C28   C33   1.535736 S    
C8    C151  1.456945 S    
Zn8   O9    1.937769 S    
C28   H36   1.110168 S    
N8    O68   1.299462 A    
C50   H50   1.079042 S    
C119  N20   1.438337 S    
N9    O70   1.300597 A    
C175  C180  1.410396 A    
N11   O73   1.297407 A    
O7    C3    1.279778 A    
C47   C55   1.392889 A    
C47   H7    1.079909 S    
C123  C131  1.436674 A    
N7    O65   1.298152 A    
O19   C15   1.280086 A    
C45   H5    1.080938 S    
C108  C120  1.393490 A    
C4    C147  1.458391 S    
Zn9   O24   1.936148 S    
C67   H59   1.081260 S    
C30   C39   1.545009 S    
Zn6   O18   1.937705 S    
Zn10  O23   1.936146 S    
C98   C138  1.415333 A    
C99   C139  1.415276 A    
C50   C62   1.387426 A    
C138  C145  1.417794 A    
C53   H53   1.079955 S    
C66   C74   1.418267 A    
C163  C167  1.391815 A    
C115  C123  1.416036 A    
N19   O90   1.301058 A    
Zn15  O36   1.936984 S    
O15   C11   1.278989 A    
O42   C22   1.277197 A    
C41   H1    1.080555 S    
Zn4   O1    1.950489 S    
C155  C159  1.394276 A    
C32   H40   1.110324 S    
Zn9   O37   1.951755 S    
O12   C8    1.274730 A    
C36   C40   1.529086 S    
Zn11  O39   1.951755 S    
C114  C122  1.412646 A    
C69   H61   1.081369 S    
N12   O75   1.301072 A    
C7    C152  1.458537 S    
C48   C56   1.393561 A    
O51   C19   1.265164 A    
C23   C40   1.474536 S    
C102  C142  1.415026 A    
C34   N2    1.457684 S    
C167  H31   1.080745 S    
C20   C179  1.430557 S    
C75   C91   1.415038 A    
Zn5   O3    1.952192 S    
C64   C72   1.393164 A    
C31   C39   1.544060 S    
C65   C73   1.417884 A    
C112  C116  1.382757 A    
C85   C94   1.414785 A    
C140  C147  1.416025 A    
C133  C149  1.423750 A    
C63   H48   1.082644 S    
C46   C54   1.393067 A    
N18   O88   1.301664 A    
C32   C35   1.537954 S    
O28   C5    1.275726 A    
C155  H23   1.076209 S    
C171  C179  1.405200 A    
C136  C152  1.424846 A    
Zn3   O42   1.951719 S    
C156  C160  1.393455 A    
Zn5   O48   1.950865 S    
Zn7   O4    1.950488 S    
O21   C4    1.288037 A    
C18   C177  1.428809 S    
C77   C81   1.412409 A    
C132  C144  1.416581 A    
C135  C139  1.410659 A    
N3    O58   1.299895 A    
Zn14  O2    1.954141 S    
N19   O89   1.301922 A    
C72   C80   1.418463 A    
Zn13  O49   1.951222 S    
O44   C21   1.275519 A    
C130  C142  1.413311 A    
C71   C79   1.416873 A    
C154  H22   1.080031 S    
N6    O63   1.300678 A    
N2    O56   1.300301 A    
C160  H28   1.082106 S    
Zn12  O27   1.936146 S    
N4    O59   1.300024 A    
N14   O80   1.299956 A    
C166  C170  1.414577 A    
C44   H4    1.080032 S    
Zn3   O2    1.950488 S    
C157  H25   1.082003 S    
C1    C146  1.457303 S    
C27   C37   1.546956 S    
N5    O62   1.300999 A    
C29   C40   1.546459 S    
C136  C140  1.413413 A    
C105  H9    1.081175 S    
O46   C24   1.275905 A    
Zn4   O41   1.951719 S    
C100  C140  1.413538 A    
C34   C38   1.529014 S    
Zn16  O52   1.951224 S    
C142  C149  1.417025 A    
C111  C115  1.393067 A    
C112  H16   1.081259 S    
Zn8   O45   1.951719 S    
C164  C168  1.394075 A    
O27   C6    1.273844 A    
N13   O78   1.300113 A    
C135  C151  1.418124 A    
C128  C136  1.436573 A    
C126  C134  1.438728 A    
Zn10  O38   1.951752 S    
C35   N3    1.457294 S    
C29   C31   1.559360 S    
C125  N9    1.429189 S    
C167  C171  1.415748 A    
O24   C1    1.274396 A    
C166  H30   1.080274 S    
C108  H12   1.082215 S    
C29   H37   1.110131 S    
C134  C138  1.415505 A    
N11   O74   1.300944 A    
O43   C22   1.276331 A    
C124  N8    1.424809 S    
O47   C24   1.276076 A    
C26   C28   1.559002 S    
C72   H64   1.081295 S    
Zn5   O12   1.937971 S    
C10   C89   1.455689 S    
Zn6   O11   1.937969 S    
Zn9   O21   1.937210 S    
Zn14  O50   1.951224 S    
C45   C53   1.392994 A    
C29   C35   1.537741 S    
O35   C14   1.278582 A    
Zn12  O40   1.951752 S    
Zn9   O1    1.953262 S    
N10   O71   1.300238 A    
N1    O54   1.300376 A    
H18   C161  1.082018 S    
O52   C20   1.263952 A    
C104  C144  1.413588 A    
N3    O57   1.300221 A    
C127  N11   1.428693 S    
C158  C162  1.388993 A    
C57   C65   1.392082 A    
C46   H6    1.080522 S    
C28   C38   1.545877 S    
O22   C3    1.280785 A    
C47   C87   1.418414 A    
C52   C64   1.388075 A    
Zn7   O19   1.938613 S    
C45   C85   1.417208 A    
Zn2   O2    1.952194 S    
C120  N19   1.443822 S    
C43   C83   1.417155 A    
Zn13  O32   1.936984 S    
O49   C17   1.265155 A    
Zn14  O31   1.936984 S    
C14   C93   1.454895 S    
C87   C96   1.416124 A    
N17   O85   1.301656 A    
C30   C32   1.559237 S    
C70   C78   1.418129 A    
C83   C92   1.413788 A    
C99   H67   1.080597 S    
Zn4   O5    1.937769 S    
C42   H2    1.080474 S    
O20   C16   1.278900 A    
C30   C36   1.536058 S    
C129  C145  1.421184 A    
C67   C75   1.418564 A    
O10   C6    1.284353 A    
O23   C2    1.272413 A    
C57   H42   1.082341 S    
Zn11  O25   1.937210 S    
N16   O83   1.301705 A    
C59   C67   1.392922 A    
O14   C10   1.280796 A    
C30   H38   1.110166 S    
O17   C13   1.279628 A    
C111  H15   1.082281 S    
O45   C23   1.276494 A    
