data_mof_unit_6451.cif
_audit_creation_date              2012-12-10T20:31:08-0500
_audit_creation_method            fapswitch 2.2
_symmetry_space_group_name_H-M    P1
_symmetry_Int_Tables_number       1
_space_group_crystal_system       triclinic
_cell_length_a                    14.860595
_cell_length_b                    10.720485
_cell_length_c                    9.905409
_cell_angle_alpha                 89.304493
_cell_angle_beta                  88.902217
_cell_angle_gamma                 89.452787
_cell_volume                      1577.58388735

loop_
_atom_site_label
_atom_site_type_symbol
_atom_type_description
_atom_site_fract_x
_atom_site_fract_y
_atom_site_fract_z
_atom_type_partial_charge
C1    C     C_R   0.499442 0.260379 0.500525 0.918088
C2    C     C_R   0.188048 0.388902 0.496070 -0.209998
C3    C     C_R   0.232172 0.501435 0.503894 -0.053807
C4    C     C_R   0.327286 0.500863 0.501149 0.863577
C5    C     C_R   0.186538 0.614297 0.514442 -0.262294
C6    C     C_R   0.548594 0.061283 0.595577 0.093048
C7    C     C_R   0.501847 0.128491 0.498298 -0.240965
C8    C     C_R   0.464538 0.067733 0.388475 -0.314947
C9    C     C_R   0.465334 0.938273 0.384187 0.524761
C10   C     C_R   0.502037 0.871774 0.494179 -0.248239
C11   C     C_R   0.548825 0.933857 0.593142 -0.031023
C12   C     C_R   0.904635 0.615857 0.513512 0.073237
C13   C     C_3   0.543868 0.922127 0.743768 -0.172890
C14   C     C_3   0.542808 0.064909 0.746511 0.405963
C15   C     C_R   0.424371 0.530622 0.072778 0.125341
C16   C     C_R   0.498737 0.739707 0.498951 0.926290
C17   C     C_R   0.576949 0.474972 0.068916 0.126898
C18   C     C_R   0.576468 0.474990 0.925394 -0.203837
C19   C     C_R   0.425102 0.536114 0.930544 0.141039
C20   C     C_3   0.333333 0.480416 0.924075 -0.145399
C21   C     C_3   0.335520 0.464893 0.077000 -0.116664
C22   C     C_R   0.672729 0.499366 0.498886 0.878745
C23   C     C_R   0.955589 0.273614 0.480789 0.411422
C24   C     C_R   0.811151 0.612974 0.511582 -0.262741
C25   C     C_R   0.767859 0.500234 0.496718 -0.048479
C26   C     C_R   0.814213 0.388097 0.484930 -0.179205
C27   C     C_R   0.907477 0.387061 0.488763 -0.066221
C28   C     C_R   0.953061 0.501730 0.502441 -0.034924
C29   C     C_3   0.459931 0.896407 0.158818 -0.291462
C30   C     C_3   0.608313 0.141318 0.936718 -0.295507
C31   C     C_3   0.909534 0.131328 0.330786 -0.263624
C32   C     C_3   0.108388 0.129429 0.635885 -0.270648
C33   C     C_R   0.049040 0.273546 0.493454 0.405309
C34   C     C_R   0.094761 0.387521 0.497800 -0.058004
C35   C     C_R   0.046766 0.502046 0.504746 -0.034491
C36   C     C_R   0.092852 0.616513 0.515044 0.073244
C37   C     C_R   0.044436 0.729893 0.526226 0.084905
C38   C     C_R   0.950598 0.729600 0.526647 0.073168
H1    H     H_    0.770794 0.697203 0.521397 0.124705
H2    H     H_    0.429836 0.120184 0.310746 0.174362
H3    H     H_    0.430202 0.831575 0.085844 0.184895
H4    H     H_    0.533499 0.875575 0.161383 0.148133
H5    H     H_    0.447597 0.992821 0.120649 0.140746
H6    H     H_    0.631493 0.774721 0.760975 0.209289
H7    H     H_    0.617572 0.857071 0.901638 0.171158
H8    H     H_    0.672509 0.174491 0.977799 0.182459
H9    H     H_    0.589182 0.055910 0.994527 0.136623
H10   H     H_    0.556328 0.215245 0.952078 0.152979
H11   H     H_    0.707383 0.509812 0.103348 0.170391
H12   H     H_    0.480948 0.878191 0.783444 0.116826
H13   H     H_    0.680393 0.357074 0.106139 0.150444
H14   H     H_    0.283363 0.612091 0.791523 0.219608
H15   H     H_    0.204869 0.526380 0.872583 0.196693
H16   H     H_    0.399612 0.291648 0.073817 0.174154
H17   H     H_    0.348917 0.327418 0.221894 0.228408
H18   H     H_    0.878565 0.207365 0.269057 0.132422
H19   H     H_    0.867674 0.047329 0.318880 0.176699
H20   H     H_    0.978392 0.108990 0.291543 0.194519
H21   H     H_    0.130994 0.209267 0.697469 0.131778
H22   H     H_    0.162346 0.057682 0.641800 0.174659
H23   H     H_    0.478041 0.107395 0.783095 0.028964
H24   H     H_    0.045514 0.089887 0.680612 0.207113
H25   H     H_    0.128850 0.842239 0.625034 0.162318
H26   H     H_    0.130372 0.861654 0.453844 0.210599
H27   H     H_    0.863205 0.860317 0.456283 0.184912
H28   H     H_    0.862436 0.842296 0.627314 0.197012
H29   H     H_    0.637570 0.452211 0.869632 0.179269
H30   H     H_    0.331000 0.392589 0.865279 0.177699
H31   H     H_    0.281690 0.516614 0.133167 0.199029
H32   H     H_    0.776921 0.302250 0.475247 0.178749
H33   H     H_    0.227067 0.303130 0.488237 0.167882
H34   H     H_    0.225203 0.699073 0.521189 0.130008
N1    N     N_R   0.499390 0.499140 0.142800 -0.112077
N2    N     N_R   0.499390 0.499180 0.857150 -0.124960
N3    N     N_3   0.626122 0.865805 0.797006 -0.377887
N4    N     N_3   0.658758 0.445693 0.135803 -0.388632
N5    N     N_3   0.265502 0.573141 0.885190 -0.461972
N6    N     N_3   0.342096 0.333001 0.117364 -0.457549
N7    N     N_3   0.089132 0.846861 0.539119 -0.400670
N8    N     N_3   0.903507 0.846431 0.540522 -0.384704
O1    O     O_R   0.500010 0.316790 0.614690 -0.609797
O2    O     O_3   0.621838 0.116891 0.798358 -0.547192
O3    O     O_3   0.911004 0.161726 0.468887 -0.576738
O4    O     O_3   0.095719 0.161478 0.498776 -0.588655
O5    O     O_R   0.500000 0.316760 0.385350 -0.628754
O6    O     O_R   0.367850 0.499990 0.614680 -0.640152
O7    O     O_R   0.367840 0.499950 0.385340 -0.624472
O8    O     O_R   0.500000 0.683240 0.614650 -0.638452
O9    O     O_R   0.499990 0.683210 0.385310 -0.570594
O10   O     O_R   0.632160 0.500050 0.614660 -0.622094
O11   O     O_R   0.632150 0.500010 0.385320 -0.594310
O12   O     O_3   0.417721 0.877202 0.286113 -0.587479
Zn1   Zn    Zn3+2 0.500010 0.500020 0.653130 0.935823
Zn2   Zn    Zn3+2 0.499990 0.499980 0.346870 0.966147

loop_
_geom_bond_atom_site_label_1
_geom_bond_atom_site_label_2
_ccdc_geom_bond_type
O7    Zn2   S    
C29   H4    S    
C35   C36   A    
C7    C8    A    
C4    O7    A    
H25   N7    S    
C15   C19   A    
C37   N7    S    
C26   C27   A    
C23   O3    S    
C20   N5    S    
C12   C28   A    
C31   H20   S    
C30   H10   S    
C36   C37   A    
C5    H34   S    
C4    O6    A    
C1    O1    A    
C5    C36   A    
C24   H1    S    
C31   O3    S    
C34   C35   A    
O9    Zn2   S    
C19   C20   S    
C28   C35   A    
C8    C9    A    
C23   C33   A    
C22   C25   S    
C21   N6    S    
C17   N4    S    
C22   O11   A    
C23   C27   A    
C31   H18   S    
C9    C10   A    
C2    C34   A    
C16   O9    A    
C18   N2    A    
H27   N8    S    
C13   C14   S    
C29   H5    S    
C17   N1    A    
N2    Zn1   S    
N1    Zn2   S    
C9    O12   S    
C30   H8    S    
C17   C18   A    
C1    O5    A    
C32   O4    S    
C13   N3    S    
C30   H9    S    
H13   N4    S    
C6    C11   A    
H17   N6    S    
C25   C26   A    
C14   H23   S    
C3    C4    S    
C21   H31   S    
C30   O2    S    
H6    N3    S    
H15   N5    S    
C37   C38   A    
O6    Zn1   S    
C6    C14   S    
O1    Zn1   S    
O5    Zn2   S    
C33   C34   A    
C22   O10   A    
H11   N4    S    
C24   C25   A    
C15   N1    A    
C26   H32   S    
H26   N7    S    
C14   O2    S    
C2    H33   S    
O10   Zn1   S    
O8    Zn1   S    
C29   H3    S    
C1    C7    S    
C20   H30   S    
C19   N2    A    
C3    C5    A    
C6    C7    A    
H28   N8    S    
C12   C24   A    
H7    N3    S    
C31   H19   S    
C2    C3    A    
C18   H29   S    
C32   H24   S    
C10   C16   S    
O11   Zn2   S    
C11   C13   S    
C38   N8    S    
C12   C38   A    
C33   O4    S    
C10   C11   A    
C13   H12   S    
C15   C21   S    
C20   C21   S    
C27   C28   A    
C16   O8    A    
C32   H22   S    
C8    H2    S    
C32   H21   S    
C29   O12   S    
H14   N5    S    
H16   N6    S    
