data_mof_unit_63200.cif
_audit_creation_date              2012-10-26T20:15:18-0400
_audit_creation_method            fapswitch 2.2
_symmetry_space_group_name_H-M    P1
_symmetry_Int_Tables_number       1
_space_group_crystal_system       triclinic
_cell_length_a                    11.074973
_cell_length_b                    15.995337
_cell_length_c                    14.778421
_cell_angle_alpha                 89.922808
_cell_angle_beta                  102.613011
_cell_angle_gamma                 90.004556
_cell_volume                      2554.78537496

loop_
_atom_site_label
_atom_site_type_symbol
_atom_type_description
_atom_site_fract_x
_atom_site_fract_y
_atom_site_fract_z
_atom_type_partial_charge
C1    C     C_R   0.500040 0.340855 0.500031 0.550514
C2    C     C_1   0.500464 0.499014 0.197481 0.199616
C3    C     C_R   0.262296 0.500011 0.462824 0.554227
C4    C     C_R   0.737704 0.499988 0.537176 0.554223
C5    C     C_2   0.127768 0.500004 0.441480 -0.120013
C6    C     C_2   0.872232 0.499996 0.558520 -0.120014
C7    C     C_2   0.067152 0.500014 0.510215 -0.152030
C8    C     C_2   0.932848 0.499987 0.489785 -0.152032
C9    C     C_R   0.505637 0.956226 0.582925 -0.097101
C10   C     C_R   0.494365 0.043774 0.417074 -0.097103
C11   C     C_R   0.499977 0.912782 0.499944 0.036809
C12   C     C_R   0.499960 0.659145 0.499968 0.550515
C13   C     C_R   0.500025 0.087218 0.500055 0.036808
C14   C     C_R   0.494340 0.956521 0.417020 -0.098014
C15   C     C_R   0.505661 0.043479 0.582980 -0.098014
C16   C     C_1   0.499961 0.823323 0.499896 -0.048139
C17   C     C_1   0.500040 0.176676 0.500104 -0.048140
C18   C     C_1   0.500045 0.251729 0.500109 -0.011755
C19   C     C_1   0.499956 0.748270 0.499891 -0.011756
C20   C     C_2   0.519003 0.661398 0.912647 0.579174
C21   C     C_2   0.481147 0.338571 0.087372 0.579199
C22   C     C_R   0.509392 0.577642 0.955276 0.058107
C23   C     C_R   0.490639 0.422339 0.044730 0.058067
C24   C     C_R   0.498812 0.502606 0.902595 -0.045262
C25   C     C_R   0.501184 0.497380 0.097406 -0.045258
C26   C     C_R   0.489370 0.426499 0.948422 -0.143775
C27   C     C_R   0.510634 0.573486 0.051577 -0.143765
C28   C     C_1   0.499535 0.500979 0.802519 0.199571
Cu1   Cu    Cu3+1 0.500030 0.500000 0.589230 1.030008
Cu2   Cu    Cu3+1 0.499970 0.500000 0.410770 1.030022
H1    H     H_    0.883224 0.499960 0.417612 0.166719
H2    H     H_    0.078039 0.499981 0.369383 0.114223
H3    H     H_    0.498750 0.732033 0.796870 0.343533
H4    H     H_    0.501380 0.267953 0.203166 0.343530
H5    H     H_    0.116776 0.500040 0.582387 0.166723
H6    H     H_    0.510058 0.076766 0.647427 0.125947
H7    H     H_    0.489943 0.923234 0.352572 0.125943
H8    H     H_    0.510016 0.922706 0.647331 0.124928
H9    H     H_    0.489986 0.077293 0.352668 0.124926
H10   H     H_    0.517887 0.630655 0.091717 0.156810
H11   H     H_    0.482123 0.369331 0.908279 0.156861
H12   H     H_    0.921961 0.500019 0.630617 0.114222
N1    N     N_1   0.500040 0.499980 0.276720 -0.167074
N2    N     N_1   0.499960 0.500020 0.723280 -0.167091
O1    O     O_R   0.500060 0.380310 0.575330 -0.499048
O2    O     O_R   0.488288 0.672148 0.816415 -0.686484
O3    O     O_2   0.447705 0.277980 0.037766 -0.513443
O4    O     O_R   0.511638 0.327863 0.183612 -0.686486
O5    O     O_R   0.499940 0.619690 0.424670 -0.499049
O6    O     O_R   0.500000 0.380310 0.424640 -0.470619
O7    O     O_R   0.500000 0.619690 0.575360 -0.470637
O8    O     O_R   0.320710 0.500010 0.547660 -0.496151
O9    O     O_R   0.679290 0.499990 0.452340 -0.496159
O10   O     O_R   0.320650 0.500010 0.396960 -0.491694
O11   O     O_R   0.679350 0.499990 0.603040 -0.491702
O12   O     O_2   0.552761 0.721938 0.962260 -0.513420

loop_
_geom_bond_atom_site_label_1
_geom_bond_atom_site_label_2
_ccdc_geom_bond_type
C3    O8    A    
Cu1   Cu2   S    
C4    O9    A    
C25   C27   A    
C9    C11   A    
C1    O6    A    
C2    N1    T    
C13   C17   S    
C27   H10   S    
C20   O12   D    
C5    H2    S    
C12   O7    A    
C21   O4    S    
C21   C23   S    
C17   C18   T    
Cu2   O6    S    
C7    C8    S    
C4    O11   A    
C14   H7    S    
H3    O2    S    
Cu2   O10   S    
C1    O1    A    
C1    C18   S    
C16   C19   T    
C12   C19   S    
C9    H8    S    
Cu2   O9    S    
Cu2   O5    S    
C24   C26   A    
C12   O5    A    
C2    C25   S    
C22   C27   A    
C13   C15   A    
Cu1   N2    S    
C9    C15   A    
Cu1   O8    S    
C3    O10   A    
C22   C24   A    
Cu2   N1    S    
H4    O4    S    
Cu1   O7    S    
C10   C14   A    
C15   H6    S    
C23   C25   A    
C4    C6    S    
C11   C16   S    
C23   C26   A    
Cu1   O1    S    
C11   C14   A    
C5    C7    D    
C6    C8    D    
Cu1   O11   S    
C3    C5    S    
C8    H1    S    
C7    H5    S    
C28   N2    T    
C20   O2    S    
C24   C28   S    
C26   H11   S    
C20   C22   S    
C10   H9    S    
C21   O3    D    
C10   C13   A    
C6    H12   S    
