data_mof_unit_25753.cif
_audit_creation_date              2012-10-26T21:10:50-0400
_audit_creation_method            fapswitch 2.2
_symmetry_space_group_name_H-M    P1
_symmetry_Int_Tables_number       1
_space_group_crystal_system       triclinic
_cell_length_a                    10.848852
_cell_length_b                    14.687636
_cell_length_c                    14.690709
_cell_angle_alpha                 65.321066
_cell_angle_beta                  102.711606
_cell_angle_gamma                 102.195544
_cell_volume                      2056.02774696

loop_
_atom_site_label
_atom_site_type_symbol
_atom_type_description
_atom_site_fract_x
_atom_site_fract_y
_atom_site_fract_z
_atom_type_partial_charge
C1    C     C_R   0.479974 0.119665 0.312058 0.590880
C2    C     C_R   0.657825 0.781581 0.970207 0.266711
C3    C     C_R   0.461144 0.150543 0.127141 0.277927
C4    C     C_R   0.638950 0.847997 0.867779 0.277990
C5    C     C_R   0.496104 0.291852 0.178973 -0.180473
C6    C     C_R   0.510495 0.710989 0.824591 -0.171100
C7    C     C_R   0.501550 0.361685 0.079018 -0.025740
C8    C     C_R   0.541027 0.641233 0.923797 -0.018094
C9    C     C_R   0.482180 0.323878 0.002022 -0.005951
C10   C     C_R   0.604036 0.678797 0.998813 -0.016518
C11   C     C_R   0.528349 0.468044 0.053567 0.052356
C12   C     C_R   0.527817 0.880492 0.687756 0.579369
C13   C     C_R   0.512589 0.535040 0.949948 0.050635
C14   C     C_R   0.479668 0.493789 0.875187 -0.096161
C15   C     C_R   0.576895 0.509457 0.127708 -0.092754
C16   C     C_R   0.262895 0.000393 0.501296 0.581930
C17   C     C_R   0.736809 0.999981 0.497651 0.570951
C18   C     C_R   0.472007 0.390951 0.900826 -0.097939
C19   C     C_R   0.615141 0.612518 0.100513 -0.116402
C20   C     C_R   0.738004 0.297662 0.643400 -0.134878
C21   C     C_R   0.265131 0.702821 0.354643 -0.131040
C22   C     C_R   0.698509 0.213540 0.618729 0.071060
C23   C     C_R   0.869730 0.998312 0.496197 0.034152
C24   C     C_R   0.303568 0.787515 0.378434 0.069634
C25   C     C_R   0.508755 0.279259 0.521347 0.080391
C26   C     C_R   0.490920 0.720624 0.480529 0.083144
C27   C     C_R   0.550548 0.372319 0.533483 0.025062
C28   C     C_R   0.450752 0.627450 0.468619 0.026979
C29   C     C_R   0.662792 0.376161 0.602741 0.006797
C30   C     C_R   0.339658 0.623644 0.397901 0.011784
C31   C     C_R   0.483414 0.458969 0.483932 0.048773
C32   C     C_R   0.518880 0.541061 0.518595 0.047544
C33   C     C_R   0.620863 0.532164 0.601150 0.255367
C34   C     C_R   0.129393 0.001617 0.501637 0.035117
C35   C     C_R   0.384876 0.468899 0.399394 0.264556
C36   C     C_R   0.695740 0.454997 0.635761 -0.014499
C37   C     C_R   0.308824 0.545223 0.364257 -0.008761
C38   C     C_R   0.304689 0.101664 0.768729 -0.155185
C39   C     C_R   0.671032 0.904956 0.232208 -0.115294
C40   C     C_R   0.242958 0.052849 0.703883 0.250881
C41   C     C_R   0.748875 0.952715 0.293537 0.261586
C42   C     C_R   0.176487 0.108301 0.608841 0.016281
C43   C     C_R   0.820003 0.894980 0.385329 0.001444
C44   C     C_R   0.173955 0.212806 0.579606 0.230661
C45   C     C_R   0.908732 0.946433 0.447383 0.031917
C46   C     C_R   0.816754 0.790278 0.411334 0.230274
C47   C     C_R   0.234544 0.259865 0.646528 0.238027
C48   C     C_R   0.740686 0.744435 0.347125 0.229245
C49   C     C_R   0.298508 0.203871 0.740640 -0.177592
C50   C     C_R   0.665928 0.801516 0.259331 -0.172053
C51   C     C_R   0.960620 0.050228 0.546974 -0.134825
C52   C     C_R   0.038385 0.949360 0.450673 -0.130043
C53   C     C_3   0.610298 0.179969 0.957250 -0.033016
C54   C     C_3   0.622240 0.138219 0.881264 -0.352342
C55   C     C_3   0.853386 0.794873 0.065655 0.009557
C56   C     C_R   0.089803 0.053677 0.549632 0.033777
C57   C     C_3   0.936455 0.853296 0.126922 -0.369845
C58   C     C_3   0.165174 0.891683 0.798843 -0.027115
C59   C     C_3   0.181785 0.781258 0.834090 -0.342833
C60   C     C_3   0.851094 0.109080 0.210797 -0.030305
C61   C     C_3   0.849554 0.221734 0.178192 -0.342536
C62   C     C_3   0.811587 0.953344 0.798566 -0.006044
C63   C     C_3   0.917335 0.028694 0.825322 -0.385580
C64   C     C_3   0.325855 0.012689 0.113059 0.009102
C65   C     C_3   0.331083 0.918059 0.096492 -0.378364
C66   C     C_R   0.476200 0.187353 0.204005 -0.023454
C67   C     C_R   0.557811 0.813589 0.795478 -0.031110
C68   C     C_R   0.473828 0.219241 0.027521 0.245731
Cl1   Cl    Cl    0.655369 0.603897 0.676875 -0.658278
Cl2   Cl    Cl    0.363688 0.403319 0.318951 -0.652664
Cl3   Cl    Cl    0.092519 0.284297 0.460463 -0.521887
Cl4   Cl    Cl    0.907747 0.716218 0.523778 -0.504784
Cl5   Cl    Cl    0.226637 0.387759 0.616982 -0.559592
Cl6   Cl    Cl    0.744135 0.617227 0.370951 -0.582914
Cu1   Cu    Cu3+1 0.466270 0.918260 0.475690 1.014933
Cu2   Cu    Cu3+1 0.533730 0.081740 0.524310 1.011459
H1    H     H_    0.342393 0.239876 0.792360 0.194987
H2    H     H_    0.757774 0.154382 0.647178 0.132796
H3    H     H_    0.826230 0.301005 0.694389 0.116556
H4    H     H_    0.178784 0.699894 0.301660 0.109308
H5    H     H_    0.354565 0.059343 0.842153 0.159111
H6    H     H_    0.616998 0.948594 0.161671 0.189724
H7    H     H_    0.931300 0.088305 0.586412 0.132695
H8    H     H_    0.067969 0.912199 0.410443 0.137748
H9    H     H_    0.456052 0.364352 0.840291 0.168105
H10   H     H_    0.656154 0.639714 0.160037 0.189273
H11   H     H_    0.447263 0.686853 0.768709 0.164203
H12   H     H_    0.606359 0.766335 0.210211 0.170936
H13   H     H_    0.503986 0.317475 0.238876 0.197824
H14   H     H_    0.652710 0.129471 0.033164 0.167705
H15   H     H_    0.665525 0.257143 0.936569 0.131172
H16   H     H_    0.576836 0.184360 0.804546 0.161666
H17   H     H_    0.724537 0.140616 0.879204 0.117939
H18   H     H_    0.576269 0.058484 0.903922 0.195699
H19   H     H_    0.896808 0.814904 0.996840 0.118941
H20   H     H_    0.855677 0.712875 0.111814 0.147368
H21   H     H_    0.904866 0.827398 0.201543 0.173409
H22   H     H_    0.037038 0.840113 0.140068 0.079026
H23   H     H_    0.467521 0.539653 0.795398 0.181267
H24   H     H_    0.930915 0.935550 0.085857 0.145216
H25   H     H_    0.065470 0.901186 0.760135 0.132476
H26   H     H_    0.181782 0.910529 0.866989 0.114278
H27   H     H_    0.279923 0.768995 0.874750 0.156758
H28   H     H_    0.112333 0.732626 0.886141 0.110481
H29   H     H_    0.165261 0.759670 0.767924 0.197116
H30   H     H_    0.842356 0.092622 0.142037 0.105813
H31   H     H_    0.944670 0.090187 0.257973 0.136718
H32   H     H_    0.928084 0.265456 0.133467 0.119586
H33   H     H_    0.757298 0.243783 0.130916 0.142590
H34   H     H_    0.595675 0.463683 0.207430 0.171330
H35   H     H_    0.862575 0.240262 0.245989 0.206384
H36   H     H_    0.787813 0.980787 0.715154 0.147517
H37   H     H_    0.850087 0.880342 0.824858 0.095133
H38   H     H_    0.953725 0.997632 0.907501 0.145552
H39   H     H_    0.997372 0.044255 0.782830 0.087071
H40   H     H_    0.881659 0.100926 0.805909 0.149363
H41   H     H_    0.284097 0.068359 0.039525 0.145628
H42   H     H_    0.261211 0.993416 0.169511 0.114410
H43   H     H_    0.367400 0.858652 0.168808 0.155842
H44   H     H_    0.234444 0.888910 0.067380 0.078196
H45   H     H_    0.776581 0.452924 0.694839 0.168212
H46   H     H_    0.395424 0.936131 0.040197 0.165882
H47   H     H_    0.230435 0.547956 0.303231 0.165766
H48   H     H_    0.583836 0.738253 0.517384 0.202494
H49   H     H_    0.415056 0.262976 0.484143 0.197831
H50   H     H_    0.245748 0.848362 0.346146 0.116653
N1    N     N_R   0.584450 0.204570 0.560790 -0.249497
N2    N     N_R   0.415550 0.795430 0.439210 -0.248425
O1    O     O_R   0.455540 0.022090 0.338120 -0.457341
O2    O     O_3   0.727434 0.819115 0.041402 -0.555524
O3    O     O_3   0.252445 0.952057 0.731364 -0.544188
O4    O     O_3   0.749350 0.054986 0.265984 -0.536741
O5    O     O_3   0.701924 0.945834 0.840322 -0.534877
O6    O     O_3   0.449881 0.047894 0.150774 -0.528532
O7    O     O_R   0.544460 0.977910 0.661880 -0.462611
O8    O     O_R   0.512510 0.160150 0.379180 -0.496307
O9    O     O_R   0.487490 0.839850 0.620820 -0.492476
O10   O     O_R   0.291160 0.930970 0.479480 -0.519199
O11   O     O_R   0.708840 0.069030 0.520520 -0.528996
O12   O     O_R   0.348130 0.069020 0.520540 -0.493117
O13   O     O_R   0.651870 0.930980 0.479460 -0.495549
O14   O     O_3   0.480593 0.182955 0.955946 -0.594390

loop_
_geom_bond_atom_site_label_1
_geom_bond_atom_site_label_2
_ccdc_geom_bond_type
C34   C56   A    
C8    C13   A    
C23   C45   A    
C27   C29   A    
C14   C18   A    
C2    C4    A    
C3    C68   A    
C19   H10   S    
C61   H33   S    
C60   O4    S    
Cu2   O8    S    
C14   H23   S    
C47   C49   A    
C38   C49   A    
C53   C54   S    
C7    C11   A    
C29   C36   A    
C59   H29   S    
C26   H48   S    
C59   H28   S    
C62   O5    S    
C35   C37   A    
C53   O14   S    
C1    O1    A    
C33   C36   A    
C64   H42   S    
C44   Cl3   S    
C17   O13   A    
Cu1   N2    S    
C52   H8    S    
C61   H32   S    
C25   H49   S    
C54   H17   S    
Cu1   O13   S    
C42   C56   S    
C37   H47   S    
C63   H38   S    
C11   C15   A    
C35   Cl2   S    
C12   O7    A    
C53   H15   S    
C68   O14   S    
C58   H26   S    
C1    O8    A    
C10   C19   A    
C46   Cl4   S    
C44   C47   A    
C50   H12   S    
C63   H39   S    
C40   C42   A    
C13   C14   A    
C24   H50   S    
C41   C43   A    
C15   H34   S    
C16   O12   A    
C42   C44   A    
Cu2   O7    S    
C64   O6    S    
C20   C29   A    
Cu2   O12   S    
C12   C67   S    
C46   C48   A    
C18   H9    S    
C27   C31   A    
C48   Cl6   S    
C28   C32   A    
C22   H2    S    
C62   H37   S    
C55   H19   S    
Cu1   O9    S    
C5    C7    A    
C5    C66   A    
C6    C8    A    
C45   C52   A    
C58   C59   S    
C57   H24   S    
C64   H41   S    
C30   C37   A    
C60   C61   S    
C15   C19   A    
Cu1   Cu2   S    
C54   H16   S    
C62   C63   S    
C41   O4    S    
C23   C51   A    
C31   C32   A    
C17   C23   S    
C58   O3    S    
C55   O2    S    
C57   H21   S    
C1    C66   S    
C65   H43   S    
C17   O11   A    
C58   H25   S    
C26   N2    A    
C65   H46   S    
C48   C50   A    
C43   C45   S    
C47   Cl5   S    
C60   H31   S    
C63   H40   S    
C6    C67   A    
C40   O3    S    
C20   C22   A    
C16   C34   S    
C38   H5    S    
C31   C35   A    
C3    C66   A    
C2    C10   A    
C51   H7    S    
C60   H30   S    
Cu2   O11   S    
C7    C9    A    
C20   H3    S    
C34   C52   A    
C16   O10   A    
C51   C56   A    
C39   H6    S    
C55   H20   S    
Cu1   O10   S    
C4    C67   A    
C33   Cl1   S    
C25   C27   A    
C21   C30   A    
C26   C28   A    
C3    O6    S    
C59   H27   S    
C64   C65   S    
C55   C57   S    
C36   H45   S    
C25   N1    A    
C9    C68   A    
C32   C33   A    
C38   C40   A    
C11   C13   A    
C22   N1    A    
C57   H22   S    
C21   H4    S    
C28   C30   A    
C2    O2    S    
C65   H44   S    
C49   H1    S    
C43   C46   A    
C54   H18   S    
C6    H11   S    
C9    C18   A    
C39   C50   A    
C62   H36   S    
C39   C41   A    
C8    C10   A    
C21   C24   A    
C53   H14   S    
C24   N2    A    
Cu2   N1    S    
C12   O9    A    
C5    H13   S    
Cu1   O1    S    
C4    O5    S    
C61   H35   S    
