data_mof_unit_28850.cif
_audit_creation_date              2012-10-26T20:13:52-0400
_audit_creation_method            fapswitch 2.2
_symmetry_space_group_name_H-M    P1
_symmetry_Int_Tables_number       1
_space_group_crystal_system       triclinic
_cell_length_a                    8.720698
_cell_length_b                    10.843652
_cell_length_c                    9.619826
_cell_angle_alpha                 89.318889
_cell_angle_beta                  97.028413
_cell_angle_gamma                 91.720197
_cell_volume                      902.417681052

loop_
_atom_site_label
_atom_site_type_symbol
_atom_type_description
_atom_site_fract_x
_atom_site_fract_y
_atom_site_fract_z
_atom_type_partial_charge
C1    C     C_R   0.501278 0.262650 0.500753 0.536818
C2    C     C_R   0.630827 0.529969 0.940286 0.103041
C3    C     C_3   0.736313 0.639591 0.937615 -0.207669
C4    C     C_R   0.204419 0.501308 0.464883 0.566240
C5    C     C_3   0.737863 0.643486 0.096475 -0.051114
C6    C     C_R   0.499645 0.737494 0.499551 0.528696
C7    C     C_R   0.795038 0.507789 0.534746 0.548076
C8    C     C_2   0.038729 0.495729 0.447927 -0.129863
C9    C     C_2   0.959160 0.532119 0.550068 0.219381
C10   C     C_R   0.527031 0.062731 0.627437 0.025986
C11   C     C_R   0.511915 0.129665 0.501889 0.007212
C12   C     C_R   0.506195 0.938154 0.374470 -0.170880
C13   C     C_R   0.511868 0.066239 0.375502 -0.164915
C14   C     C_3   0.996145 0.720244 0.652707 -0.125630
C15   C     C_3   0.263599 0.257092 0.110346 -0.087427
C16   C     C_R   0.508318 0.871192 0.500275 -0.000555
C17   C     C_R   0.526610 0.935381 0.626783 0.013755
C18   C     C_3   0.432380 0.925835 0.746506 -0.264192
C19   C     C_3   0.432532 0.065718 0.746670 -0.273961
C20   C     C_R   0.630884 0.531174 0.085861 0.102776
C21   C     C_R   0.383880 0.442224 0.064039 0.421550
C22   C     C_R   0.382592 0.443213 0.915227 0.200688
Cu1   Cu    Cu3+1 0.499990 0.499980 0.640670 0.951801
Cu2   Cu    Cu3+1 0.500010 0.500020 0.359330 0.968781
H1    H     H_    0.981050 0.455271 0.351805 0.090395
H2    H     H_    0.498105 0.106688 0.842279 0.140678
H3    H     H_    0.293968 0.327560 0.756296 0.261584
H4    H     H_    0.171582 0.439724 0.800559 0.305172
H5    H     H_    0.549476 0.750131 0.117241 0.247967
H6    H     H_    0.700851 0.765801 0.246591 0.255492
H7    H     H_    0.055437 0.769699 0.745272 0.132757
H8    H     H_    0.870126 0.735507 0.649557 0.116275
H9    H     H_    0.040233 0.761005 0.557943 0.109056
H10   H     H_    0.238181 0.214158 0.210565 0.132581
H11   H     H_    0.375467 0.220833 0.085595 0.080924
H12   H     H_    0.849851 0.615441 0.905790 0.150899
H13   H     H_    0.169900 0.226766 0.028262 0.140176
H14   H     H_    0.680255 0.718743 0.879565 0.157874
H15   H     H_    0.853583 0.625969 0.154809 0.144565
H16   H     H_    0.508211 0.114769 0.276468 0.128425
H17   H     H_    0.492040 0.892756 0.274596 0.136460
H18   H     H_    0.315942 0.882744 0.716336 0.138486
H19   H     H_    0.497890 0.886335 0.842221 0.143314
H20   H     H_    0.316012 0.103528 0.716044 0.128572
N1    N     N_R   0.500980 0.500930 0.148050 -0.245528
N2    N     N_R   0.500990 0.500890 0.852140 -0.253268
N3    N     N_3   0.256924 0.378287 0.836163 -0.634785
N4    N     N_3   0.669961 0.756259 0.138892 -0.648848
O1    O     O_R   0.500000 0.319640 0.618810 -0.519905
O2    O     O_3   0.262653 0.386805 0.123929 -0.525061
O3    O     O_R   0.500020 0.319680 0.381230 -0.495965
O4    O     O_R   0.274830 0.499980 0.591380 -0.470637
O5    O     O_R   0.274850 0.500020 0.353800 -0.447207
O6    O     O_R   0.499980 0.680320 0.618770 -0.501902
O7    O     O_R   0.500000 0.680360 0.381190 -0.522459
O8    O     O_R   0.725150 0.499980 0.646200 -0.480603
O9    O     O_R   0.725170 0.500020 0.408620 -0.537879
O10   O     O_3   0.029667 0.593980 0.667290 -0.576202

loop_
_geom_bond_atom_site_label_1
_geom_bond_atom_site_label_2
_ccdc_geom_bond_type
Cu1   Cu2   S    
H4    N3    S    
C12   H17   S    
C4    O5    A    
C6    C16   S    
C11   C13   A    
C15   H11   S    
C14   H7    S    
C15   H10   S    
C20   N1    A    
C1    C11   S    
C10   C19   S    
C4    C8    S    
C14   H9    S    
C18   H18   S    
C2    C3    S    
Cu1   O8    S    
C5    C20   S    
C21   C22   A    
C2    N2    A    
Cu2   O7    S    
C8    H1    S    
C1    O3    A    
Cu1   O4    S    
C16   C17   A    
C7    O8    A    
C4    O4    A    
C6    O7    A    
Cu2   N1    S    
C3    H12   S    
H6    N4    S    
C21   O2    S    
C22   N2    A    
C6    O6    A    
C22   N3    S    
C21   N1    A    
C5    H15   S    
C14   O10   S    
C5    N4    S    
Cu1   O1    S    
Cu2   O3    S    
C10   C11   A    
C10   C17   A    
C2    C20   A    
Cu1   N2    S    
C19   H20   S    
Cu1   O6    S    
C17   C18   S    
C18   C19   S    
Cu2   O9    S    
C15   O2    S    
H3    N3    S    
C7    C9    S    
C19   H2    S    
C9    O10   S    
C13   H16   S    
H5    N4    S    
C12   C13   A    
Cu2   O5    S    
C18   H19   S    
C1    O1    A    
C7    O9    A    
C15   H13   S    
C12   C16   A    
C3    H14   S    
C14   H8    S    
C8    C9    D    
C3    C5    S    
