data_mof_unit_27969.cif
_audit_creation_date              2012-12-10T17:15:42-0500
_audit_creation_method            fapswitch 2.2
_symmetry_space_group_name_H-M    P1
_symmetry_Int_Tables_number       1
_space_group_crystal_system       triclinic
_cell_length_a                    17.236577
_cell_length_b                    13.046727
_cell_length_c                    11.657797
_cell_angle_alpha                 98.95565
_cell_angle_beta                  88.860422
_cell_angle_gamma                 90.780741
_cell_volume                      2588.9969043

loop_
_atom_site_label
_atom_site_type_symbol
_atom_type_description
_atom_site_fract_x
_atom_site_fract_y
_atom_site_fract_z
_atom_type_partial_charge
C1    C     C_R   0.500662 0.299324 0.479828 0.831345
C2    C     C_R   0.502210 0.700330 0.520240 0.820705
C3    C     C_R   0.503827 0.812833 0.531483 -0.151863
C4    C     C_R   0.506447 0.186596 0.470390 -0.140351
C5    C     C_R   0.534210 0.021278 0.351818 -0.192489
C6    C     C_R   0.476146 0.977573 0.648866 -0.191025
C7    C     C_R   0.525225 0.127914 0.362368 -0.293979
C8    C     C_R   0.478136 0.870651 0.636174 -0.284268
C9    C     C_R   0.496252 0.137064 0.569179 0.389848
C10   C     C_R   0.529475 0.863051 0.438594 0.416571
C11   C     C_R   0.497431 0.028619 0.555695 0.011600
C12   C     C_R   0.520444 0.970621 0.447885 0.019484
C13   C     C_R   0.416467 0.419641 0.035846 -0.350150
C14   C     C_R   0.582184 0.582742 0.964783 -0.339434
C15   C     C_R   0.426168 0.424382 0.155864 0.093780
C16   C     C_R   0.573263 0.576632 0.844420 0.081783
C17   C     C_R   0.537079 0.532833 0.150160 0.057275
C18   C     C_R   0.462442 0.467807 0.849863 0.037291
C19   C     C_R   0.529942 0.529828 0.029139 0.067083
C20   C     C_R   0.468829 0.472259 0.971280 0.063902
C21   C     C_R   0.350731 0.499802 0.516317 0.794884
C22   C     C_R   0.649246 0.498259 0.483462 0.764328
C23   C     C_R   0.266727 0.491728 0.527632 -0.018217
C24   C     C_R   0.733072 0.489187 0.470217 -0.013348
C25   C     C_R   0.219256 0.533681 0.451365 -0.211053
C26   C     C_R   0.781481 0.541457 0.555320 -0.219567
C27   C     C_R   0.139251 0.520731 0.458167 -0.146918
C28   C     C_R   0.861258 0.527494 0.545628 -0.145895
C29   C     C_R   0.105944 0.461032 0.537531 0.120576
C30   C     C_R   0.893223 0.457085 0.453529 0.124361
C31   C     C_R   0.153696 0.422595 0.616720 -0.153048
C32   C     C_R   0.844600 0.408398 0.365958 -0.158578
C33   C     C_R   0.233641 0.438281 0.612179 -0.204709
C34   C     C_R   0.764991 0.424719 0.373971 -0.216928
C35   C     C_2   0.021230 0.441946 0.542117 0.255903
C36   C     C_2   0.977462 0.436541 0.445073 0.254830
Cu1   Cu    Cu3+1 0.505800 0.507690 0.615350 0.940846
Cu2   Cu    Cu3+1 0.494200 0.492310 0.384650 0.946149
H1    H     H_    0.368801 0.374591 0.993841 0.137964
H2    H     H_    0.629613 0.628180 0.006974 0.140783
H3    H     H_    0.129536 0.378924 0.680886 0.150269
H4    H     H_    0.867768 0.356165 0.292378 0.150343
H5    H     H_    0.897605 0.571822 0.610398 0.173602
H6    H     H_    0.103782 0.557662 0.401246 0.175976
H7    H     H_    0.458668 0.833024 0.708338 0.183959
H8    H     H_    0.534976 0.164844 0.286205 0.178728
N1    N     N_R   0.514530 0.519260 0.788680 -0.186196
N2    N     N_R   0.485470 0.480740 0.211320 -0.186214
O1    O     O_R   0.504120 0.354440 0.581590 -0.555979
O2    O     O_R   0.495880 0.645560 0.418410 -0.542195
O3    O     O_R   0.494320 0.341440 0.386760 -0.596786
O4    O     O_R   0.505680 0.658560 0.613240 -0.595126
O5    O     O_R   0.391870 0.507230 0.608700 -0.586242
O6    O     O_R   0.608130 0.492770 0.391300 -0.599888
O7    O     O_R   0.382070 0.494240 0.413880 -0.590886
O8    O     O_R   0.617930 0.505760 0.586120 -0.597082
H9    H     H_    0.244046 0.577159 0.387336 0.150708
H10   H     H_    0.757605 0.593468 0.628678 0.136235
H11   H     H_    0.613853 0.617524 0.795397 0.125722
H12   H     H_    0.385688 0.383315 0.204860 0.131759
H13   H     H_    0.728112 0.384186 0.307074 0.147254
H14   H     H_    0.269813 0.405718 0.672102 0.144484
O9    O     O_3   0.011077 0.419558 0.334543 -0.628519
C37   C     C_3   0.034020 0.314826 0.307391 0.026397
H15   H     H_    0.985437 0.260951 0.322778 0.123268
H16   H     H_    0.084298 0.299826 0.360623 0.148616
C38   C     C_3   0.058275 0.292757 0.179258 -0.300192
H17   H     H_    0.008572 0.307592 0.124958 0.218091
H18   H     H_    0.106907 0.345718 0.162776 0.223742
C39   C     C_3   0.084099 0.180665 0.144258 -0.935222
H19   H     H_    0.134685 0.164633 0.196073 0.258024
H20   H     H_    0.101271 0.167344 0.050860 0.256927
H21   H     H_    0.035868 0.126315 0.158082 0.255505
O10   O     O_3   0.987272 0.438966 0.650662 -0.628020
C40   C     C_3   0.961265 0.336789 0.657409 0.026744
H22   H     H_    0.009236 0.280172 0.635665 0.125470
H23   H     H_    0.912520 0.314251 0.597134 0.145454
C41   C     C_3   0.932389 0.332109 0.781258 -0.294061
H24   H     H_    0.980587 0.353865 0.842600 0.218160
H25   H     H_    0.884676 0.388562 0.804039 0.223919
C42   C     C_3   0.902628 0.223751 0.794261 -0.945219
H26   H     H_    0.853394 0.201159 0.735203 0.255304
H27   H     H_    0.882172 0.223181 0.885093 0.255620
H28   H     H_    0.949787 0.166221 0.773856 0.257030
O11   O     O_3   0.561845 0.807706 0.338121 -0.615114
C43   C     C_3   0.639533 0.781746 0.358625 0.075278
H29   H     H_    0.654717 0.711827 0.295709 0.161351
H30   H     H_    0.647815 0.760475 0.446603 0.107001
C44   C     C_3   0.695969 0.869352 0.338771 -0.387706
H31   H     H_    0.687375 0.889757 0.250856 0.223591
H32   H     H_    0.684580 0.939111 0.404361 0.214216
C45   C     C_3   0.780037 0.837106 0.348872 -0.903955
H33   H     H_    0.790131 0.817350 0.436658 0.255948
H34   H     H_    0.819505 0.902179 0.334914 0.253437
H35   H     H_    0.793803 0.768835 0.282367 0.258468
O12   O     O_3   0.482299 0.193626 0.678397 -0.614228
C46   C     C_3   0.552374 0.205090 0.741492 0.057475
H36   H     H_    0.580525 0.279980 0.729809 0.186477
H37   H     H_    0.595237 0.142183 0.713523 0.113657
C47   C     C_3   0.533880 0.205684 0.870472 -0.340357
H38   H     H_    0.482544 0.254539 0.896447 0.237101
H39   H     H_    0.519406 0.125664 0.885780 0.199944
C48   C     C_3   0.602144 0.246839 0.946274 -0.911625
H40   H     H_    0.653803 0.197385 0.923141 0.250943
H41   H     H_    0.586533 0.246055 0.039027 0.255391
H42   H     H_    0.616609 0.327887 0.934765 0.261706
H43   H     H_    0.550423 0.978533 0.267742 0.187431
H44   H     H_    0.455384 0.019632 0.730769 0.181991
H45   H     H_    0.416480 0.422300 0.803931 0.134033
H46   H     H_    0.583606 0.576927 0.195644 0.118593

loop_
_geom_bond_atom_site_label_1
_geom_bond_atom_site_label_2
_ccdc_geom_bond_type
C21   O5    A    
C10   O11   S    
C27   C29   A    
C15   H12   S    
C35   C36   D    
C18   H45   S    
C18   N1    A    
C46   C47   S    
C42   H26   S    
C35   O10   S    
O11   C43   S    
C24   C26   A    
C41   H25   S    
C18   C20   A    
C40   H23   S    
C8    H7    S    
C45   H33   S    
C2    O2    A    
C46   H37   S    
Cu1   O8    S    
C27   H6    S    
Cu2   O7    S    
C19   C20   A    
C33   H14   S    
C23   C33   A    
C17   N2    A    
C39   H19   S    
Cu1   N1    S    
C36   O9    S    
Cu2   N2    S    
Cu1   O5    S    
C23   C25   A    
C17   H46   S    
C25   H9    S    
C15   N2    A    
C4    C7    A    
C10   C12   A    
C16   N1    A    
C47   H39   S    
C42   H27   S    
C46   H36   S    
C31   C33   A    
C43   H30   S    
C38   H17   S    
C37   C38   S    
C5    C12   A    
C22   O6    A    
C3    C8    A    
O10   C40   S    
C6    C11   A    
C21   O7    A    
Cu1   O4    S    
C41   H24   S    
C22   O8    A    
Cu2   O3    S    
C47   C48   S    
C24   C34   A    
C38   H18   S    
C16   H11   S    
C32   C34   A    
C40   H22   S    
C7    H8    S    
Cu1   Cu2   S    
Cu1   O1    S    
Cu2   O6    S    
C13   C15   A    
O12   C46   S    
C39   H21   S    
C45   H34   S    
C48   H41   S    
C44   C45   S    
C26   H10   S    
C9    O12   S    
C2    O4    A    
C9    C11   A    
C14   C16   A    
C44   H32   S    
C42   H28   S    
C5    C7    A    
C5    H43   S    
C6    H44   S    
C31   H3    S    
C13   C20   A    
C43   H29   S    
C14   C19   A    
C43   C44   S    
C6    C8    A    
C11   C12   A    
Cu2   O2    S    
C25   C27   A    
C29   C35   S    
C28   H5    S    
C26   C28   A    
C1    O3    A    
C30   C36   S    
C1    C4    S    
C37   H15   S    
C38   C39   S    
C21   C23   S    
C2    C3    S    
C4    C9    A    
C29   C31   A    
C3    C10   A    
C30   C32   A    
C41   C42   S    
C28   C30   A    
C47   H38   S    
C17   C19   A    
C48   H42   S    
C22   C24   S    
C45   H35   S    
C40   C41   S    
C13   H1    S    
C14   H2    S    
O9    C37   S    
C34   H13   S    
C48   H40   S    
C32   H4    S    
C39   H20   S    
C44   H31   S    
C1    O1    A    
C37   H16   S    
