data_mof_unit_8988.cif
_audit_creation_date              2012-12-10T17:42:44-0500
_audit_creation_method            fapswitch 2.2
_symmetry_space_group_name_H-M    P1
_symmetry_Int_Tables_number       1
_space_group_crystal_system       triclinic
_cell_length_a                    10.031111
_cell_length_b                    10.842962
_cell_length_c                    13.305508
_cell_angle_alpha                 93.032828
_cell_angle_beta                  72.394428
_cell_angle_gamma                 91.585743
_cell_volume                      1377.37901626

loop_
_atom_site_label
_atom_site_type_symbol
_atom_type_description
_atom_site_fract_x
_atom_site_fract_y
_atom_site_fract_z
_atom_type_partial_charge
C1    C     C_R   0.505764 0.737635 0.489295 0.973127
C2    C     C_R   0.385321 0.445205 0.811219 -0.114948
C3    C     C_R   0.351373 0.869910 0.365765 0.275799
C4    C     C_R   0.424587 0.484886 0.701011 0.920372
C5    C     C_R   0.240313 0.929791 0.344206 0.260923
C6    C     C_R   0.184912 0.036630 0.404982 0.390027
C7    C     C_R   0.255838 0.093833 0.471553 -0.070589
C8    C     C_R   0.389345 0.051746 0.469814 -0.130484
C9    C     C_R   0.419791 0.928627 0.434517 -0.000076
C10   C     C_R   0.516569 0.868036 0.471662 -0.051672
C11   C     C_R   0.614474 0.934730 0.506639 -0.251650
C12   C     C_R   0.448701 0.429613 0.972361 0.025037
C13   C     C_R   0.609687 0.060959 0.515931 -0.022399
C14   C     C_R   0.493794 0.123170 0.501931 -0.092777
C15   C     C_R   0.823048 0.693294 0.618231 0.421659
C16   C     C_R   0.496940 0.259089 0.502618 0.847411
C17   C     C_R   0.883215 0.801440 0.649913 -0.195305
C18   C     C_R   0.021223 0.800770 0.647666 -0.196662
C19   C     C_R   0.095521 0.690949 0.617978 0.449081
C20   C     C_R   0.052363 0.594477 0.556205 -0.045401
C21   C     C_R   0.908296 0.594726 0.556523 0.000359
C22   C     C_R   0.951549 0.419460 0.437165 -0.115039
C23   C     C_R   0.488469 0.423864 0.861827 0.039867
C24   C     C_R   0.096030 0.419673 0.436722 0.489511
C25   C     C_R   0.576519 0.503318 0.297401 0.958681
C26   C     C_R   0.798915 0.484510 0.013263 -0.279276
C27   C     C_R   0.620287 0.501511 0.181855 -0.130208
C28   C     C_R   0.244112 0.432415 0.869269 -0.191714
C29   C     C_R   0.206333 0.402226 0.974561 -0.163775
C30   C     C_R   0.307255 0.403104 0.026913 -0.122541
C31   C     C_1   0.172643 0.167086 0.560645 0.379156
C32   C     C_1   0.727611 0.118680 0.540992 0.319142
C33   C     C_1   0.904607 0.336526 0.366223 0.331294
C34   C     C_R   0.552445 0.458067 0.022905 -0.082656
C35   C     C_1   0.796337 0.905212 0.702034 0.202884
C36   C     C_1   0.080071 0.903463 0.695578 0.206693
C37   C     C_1   0.877583 0.431174 0.790679 0.124919
C38   C     C_R   0.695928 0.457201 0.963064 -0.021359
C39   C     C_R   0.733544 0.426472 0.854611 -0.075113
C40   C     C_R   0.629168 0.397927 0.806630 0.413367
C41   C     C_R   0.517020 0.496266 0.130021 0.358117
C42   C     C_R   0.762562 0.503284 0.122733 0.383054
H1    H     H_    0.908576 0.486873 0.968414 0.147880
H2    H     H_    0.649003 0.716928 0.731276 0.314324
H3    H     H_    0.170197 0.708553 0.736890 0.317457
H4    H     H_    0.156172 0.300359 0.316629 0.336479
H5    H     H_    0.356079 0.592486 0.135185 0.333643
H6    H     H_    0.755631 0.347935 0.670109 0.351461
H7    H     H_    0.163439 0.443484 0.833119 0.188419
H8    H     H_    0.273621 0.382105 0.109403 0.196298
H9    H     H_    0.098199 0.382736 0.016720 0.153798
H10   H     H_    0.696108 0.887898 0.527067 0.185095
H11   H     H_    0.955934 0.537459 0.119035 0.329997
H12   H     H_    0.314962 0.708394 0.315309 0.378488
H13   H     H_    0.249578 0.831432 0.215568 0.358484
H14   H     H_    0.018412 0.033812 0.357197 0.384876
N1    N     N_R   0.856860 0.501200 0.500990 -0.128226
N2    N     N_R   0.142450 0.501280 0.501020 -0.101682
N3    N     N_1   0.105061 0.224100 0.632883 -0.178194
N4    N     N_1   0.824694 0.160913 0.560070 -0.152066
N5    N     N_1   0.867670 0.269980 0.308789 -0.185454
N6    N     N_1   0.726826 0.987032 0.744985 -0.165856
N7    N     N_1   0.127180 0.983698 0.735263 -0.190711
N8    N     N_1   0.992509 0.437101 0.738929 -0.196200
O1    O     O_R   0.385310 0.683220 0.500000 -0.559910
O2    O     O_3   0.398927 0.758273 0.316010 -0.755429
O3    O     O_3   0.180778 0.883667 0.268658 -0.771316
O4    O     O_3   0.061706 0.087457 0.401541 -0.776275
O5    O     O_3   0.681915 0.680799 0.658021 -0.715066
O6    O     O_3   0.197159 0.672288 0.663555 -0.704470
O7    O     O_3   0.194225 0.341801 0.370145 -0.710525
O8    O     O_3   0.385388 0.539636 0.183211 -0.750965
O9    O     O_3   0.658734 0.329204 0.712594 -0.741050
O10   O     O_R   0.614640 0.683250 0.500010 -0.580287
O11   O     O_R   0.328400 0.499950 0.653610 -0.556673
O12   O     O_R   0.557730 0.499970 0.653620 -0.529569
O13   O     O_R   0.385360 0.316750 0.499990 -0.597340
O14   O     O_R   0.614690 0.316780 0.500000 -0.615575
O15   O     O_R   0.442270 0.500030 0.346380 -0.522551
O16   O     O_R   0.671600 0.500050 0.346390 -0.583458
O17   O     O_3   0.863787 0.526537 0.172618 -0.739312
Zn1   Zn    Zn3+2 0.346880 0.499980 0.499990 1.074979
Zn2   Zn    Zn3+2 0.653120 0.500020 0.500010 1.039648

loop_
_geom_bond_atom_site_label_1
_geom_bond_atom_site_label_2
_ccdc_geom_bond_type
C25   O16   A    
C13   C32   S    
C19   C20   A    
O10   Zn2   S    
C5    O3    S    
C22   N1    A    
C7    C8    A    
C42   O17   S    
C12   C23   A    
C1    O10   A    
C28   C29   A    
C18   C19   A    
N2    Zn1   S    
C5    C6    A    
C23   C40   A    
C40   O9    S    
H11   O17   S    
C16   O13   A    
C31   N3    T    
C4    O11   A    
C11   H10   S    
O14   Zn2   S    
C8    C9    A    
C1    O1    A    
N1    Zn2   S    
C36   N7    T    
C9    C10   A    
C16   O14   A    
C6    O4    S    
C30   H8    S    
C25   O15   A    
C13   C14   A    
C34   C41   A    
O16   Zn2   S    
O12   Zn2   S    
C26   H1    S    
C15   O5    S    
C7    C31   S    
C20   N2    A    
C39   C40   A    
C26   C38   A    
H14   O4    S    
C2    C4    S    
C21   N1    A    
C29   C30   A    
C3    C9    A    
C28   H7    S    
C27   C41   A    
C17   C18   A    
H2    O5    S    
H4    O7    S    
C41   O8    S    
C33   N5    T    
C14   C16   S    
C3    O2    S    
C32   N4    T    
C12   C34   A    
C37   N8    T    
C26   C42   A    
C29   H9    S    
C15   C17   A    
C22   C33   S    
C8    C14   A    
C12   C30   A    
H3    O6    S    
C34   C38   A    
H6    O9    S    
C1    C10   S    
C3    C5    A    
O15   Zn1   S    
H13   O3    S    
O11   Zn1   S    
C6    C7    A    
H12   O2    S    
C25   C27   S    
C37   C39   S    
C11   C13   A    
C27   C42   A    
O1    Zn1   S    
C38   C39   A    
O13   Zn1   S    
C35   N6    T    
C22   C24   A    
H5    O8    S    
C4    O12   A    
C10   C11   A    
C15   C21   A    
C20   C21   A    
C24   N2    A    
C2    C23   A    
C19   O6    S    
C2    C28   A    
C17   C35   S    
C18   C36   S    
C24   O7    S    
