data_mof_unit_66785.cif
_audit_creation_date              2012-12-11T14:22:50-0500
_audit_creation_method            fapswitch 2.2
_symmetry_space_group_name_H-M    P1
_symmetry_Int_Tables_number       1
_space_group_crystal_system       triclinic
_cell_length_a                    8.22271
_cell_length_b                    14.271292
_cell_length_c                    15.294762
_cell_angle_alpha                 93.276503
_cell_angle_beta                  98.878122
_cell_angle_gamma                 90.559288
_cell_volume                      1770.10344948

loop_
_atom_site_label
_atom_site_type_symbol
_atom_type_description
_atom_site_fract_x
_atom_site_fract_y
_atom_site_fract_z
_atom_type_partial_charge
Ba1   Ba    Ba6+2 0.142880 0.544780 0.454020 1.619375
Ba2   Ba    Ba6+2 0.667290 0.455210 0.545900 1.626267
C1    C     C_3   0.242106 0.753348 0.098177 -0.094390
C2    C     C_3   0.216523 0.783580 0.193492 0.346676
C3    C     C_3   0.526528 0.740603 0.665487 0.310161
C4    C     C_3   0.538373 0.846289 0.685831 -0.400327
C5    C     C_3   0.969878 0.195377 0.750275 0.365659
C6    C     C_3   0.962034 0.096940 0.782861 -0.373089
C7    C     C_3   0.501171 0.249453 0.800952 0.378191
C8    C     C_3   0.559033 0.221483 0.895078 -0.372463
C9    C     C_R   0.010913 0.941429 0.553410 -0.065590
C10   C     C_R   0.813055 0.806990 0.506778 0.029791
C11   C     C_R   0.655105 0.777620 0.466761 -0.306379
C12   C     C_3   0.788708 0.785534 0.243117 0.273608
C13   C     C_R   0.542605 0.839288 0.424332 0.031420
C14   C     C_R   0.589351 0.933895 0.417416 -0.043125
C15   C     C_R   0.746255 0.967662 0.462072 0.008178
C16   C     C_R   0.858120 0.904588 0.508229 -0.024438
C17   C     C_R   0.944981 0.099827 0.505005 -0.027616
C18   C     C_R   0.055006 0.037468 0.551850 -0.003546
C19   C     C_R   0.991989 0.196588 0.502062 0.040717
C20   C     C_R   0.147783 0.226993 0.544434 -0.264087
C21   C     C_R   0.258063 0.165266 0.588396 0.008044
C22   C     C_R   0.210837 0.071408 0.594093 -0.174928
C23   C     C_3   0.779940 0.885594 0.213414 -0.391604
C24   C     C_R   0.793308 0.063338 0.461211 -0.046599
C25   C     C_R   0.242430 0.456260 0.771489 -0.273511
C26   C     C_R   0.150380 0.418987 0.831148 0.002858
C27   C     C_R   0.211010 0.423675 0.923631 -0.022707
C28   C     C_R   0.359472 0.479901 0.957031 0.021126
C29   C     C_R   0.437899 0.524236 0.892368 -0.129647
C30   C     C_R   0.383540 0.510258 0.800702 0.026359
C31   C     C_R   0.601175 0.531589 0.082808 -0.138596
C32   C     C_R   0.667596 0.545573 0.173663 0.039670
C33   C     C_R   0.425242 0.477897 0.213908 0.044102
C34   C     C_3   0.884457 0.320820 0.276906 0.256016
C35   C     C_R   0.349831 0.476579 0.125855 -0.148739
C36   C     C_R   0.437037 0.495243 0.055640 0.001201
C37   C     C_R   0.582094 0.514631 0.237844 -0.260091
C38   C     C_3   0.811156 0.308177 0.179255 -0.441960
C39   C     C_3   0.046032 0.652355 0.713031 0.317481
C40   C     C_3   0.106458 0.675995 0.809925 -0.440637
C41   C     C_3   0.453221 0.259080 0.297080 0.285990
C42   C     C_3   0.463164 0.189746 0.218848 -0.438661
H1    H     H_    0.150661 0.850761 0.194788 0.015780
H2    H     H_    0.681607 0.330940 0.168849 0.089550
H3    H     H_    0.880956 0.352476 0.140030 0.099571
H4    H     H_    0.816723 0.233560 0.155185 0.126850
H5    H     H_    0.941877 0.601520 0.707220 0.082700
H6    H     H_    0.230694 0.709422 0.819658 0.135872
H7    H     H_    0.109265 0.611522 0.846886 0.061909
H8    H     H_    0.021076 0.726151 0.835619 0.136469
H9    H     H_    0.467316 0.219807 0.357830 0.077705
H10   H     H_    0.554985 0.310635 0.301763 0.057838
H11   H     H_    0.456799 0.227083 0.157639 0.106933
H12   H     H_    0.362336 0.136575 0.211437 0.118612
H13   H     H_    0.582589 0.153428 0.228092 0.123167
H14   H     H_    0.307123 0.685334 0.104206 0.084665
H15   H     H_    0.647909 0.716059 0.651144 0.021730
H16   H     H_    0.431204 0.726123 0.606231 0.052977
H17   H     H_    0.636013 0.863463 0.743436 0.126357
H18   H     H_    0.568974 0.881942 0.627662 0.062270
H19   H     H_    0.418823 0.872622 0.701436 0.118547
H20   H     H_    0.713521 0.930018 0.257244 0.082956
H21   H     H_    0.902560 0.194952 0.681472 0.080501
H22   H     H_    0.101127 0.214491 0.750849 -0.068525
H23   H     H_    0.831799 0.074169 0.780434 0.149450
H24   H     H_    0.022201 0.046843 0.740419 0.074212
H25   H     H_    0.026699 0.095968 0.852167 0.106679
H26   H     H_    0.366477 0.260190 0.792670 -0.076973
H27   H     H_    0.564183 0.316436 0.791873 0.100501
H28   H     H_    0.540067 0.280229 0.942981 0.063744
H29   H     H_    0.872173 0.787189 0.307637 0.085938
H30   H     H_    0.691874 0.204978 0.904556 0.156518
H31   H     H_    0.619870 0.704366 0.466895 0.073768
H32   H     H_    0.297861 0.024312 0.628430 0.071574
H33   H     H_    0.186122 0.299194 0.540577 0.078462
H34   H     H_    0.097389 0.896048 0.590157 0.088338
H35   H     H_    0.710495 0.111142 0.427592 0.107265
H36   H     H_    0.679100 0.550530 0.035813 0.066637
H37   H     H_    0.222338 0.464764 0.117159 0.113568
H38   H     H_    0.664136 0.761406 0.251962 0.045903
H39   H     H_    0.540160 0.572660 0.911620 0.065892
H40   H     H_    0.637133 0.520153 0.306996 0.065395
H41   H     H_    0.196653 0.449392 0.701155 0.058331
H42   H     H_    0.905326 0.916090 0.216967 0.102355
H43   H     H_    0.863803 0.394616 0.299256 0.073726
H44   H     H_    0.015241 0.304117 0.283201 0.108227
O1    O     O_2   0.113690 0.728200 0.532750 -0.482999
O2    O     O_3   0.299581 0.301548 0.288359 -0.660043
O3    O     O_3   0.848777 0.726637 0.178979 -0.638893
O4    O     O_2   0.696600 0.271740 0.467230 -0.471129
O5    O     O_3   0.938380 0.387880 0.459490 -0.491553
O6    O     O_3   0.484630 0.331100 0.627330 -0.477122
O7    O     O_3   0.812273 0.256866 0.325477 -0.670366
O8    O     O_3   0.389110 0.548970 0.605210 -0.479518
O9    O     O_3   0.904740 0.378630 0.670330 -0.479048
O10   O     O_2   0.808209 0.432491 0.820866 -0.494922
O11   O     O_3   0.895498 0.257462 0.805948 -0.608050
O12   O     O_3   0.871900 0.612110 0.540440 -0.490748
O13   O     O_3   0.421180 0.451020 0.394720 -0.470471
O14   O     O_2   0.662730 0.548230 0.717350 -0.460115
O15   O     O_3   0.483493 0.697369 0.739097 -0.645757
O16   O     O_2   0.593333 0.165733 0.577587 -0.490772
O17   O     O_3   0.540318 0.178324 0.740756 -0.592879
O18   O     O_3   0.325660 0.668890 0.372600 -0.457400
O19   O     O_2   0.187118 0.835047 0.375097 -0.528254
O20   O     O_3   0.994582 0.735437 0.674658 -0.638695
O21   O     O_3   0.369568 0.794083 0.247695 -0.660952
O22   O     O_2   0.147570 0.451710 0.282630 -0.474071
O23   O     O_3   0.905540 0.621350 0.329600 -0.482300
O24   O     O_2   0.007879 0.567587 0.178228 -0.521011
P1    P     P_3+3 0.947560 0.714050 0.560480 0.967531
P2    P     P_3+3 0.325150 0.423860 0.297970 0.969020
P3    P     P_3+3 0.858616 0.611752 0.214084 0.902959
P4    P     P_3+3 0.862730 0.285940 0.439440 0.949225
P5    P     P_3+3 0.941008 0.372964 0.783600 0.928253
P6    P     P_3+3 0.350153 0.787267 0.360084 0.915315
P7    P     P_3+3 0.477312 0.575425 0.717431 0.941699
P8    P     P_3+3 0.467870 0.209359 0.632696 0.952495
H45   H     H_    0.146241 0.620542 0.681567 0.020570
C43   C     C_3   0.079063 0.728612 0.035871 -0.223051
C44   C     C_3   0.970004 0.811970 0.007593 -0.180236
C45   C     C_3   0.796433 0.779346 0.964912 -0.408854
H46   H     H_    0.800070 0.727758 0.908257 0.135500
H47   H     H_    0.731677 0.746018 0.013887 0.154276
H48   H     H_    0.724574 0.840619 0.940506 0.119482
H49   H     H_    0.959023 0.860134 0.065657 0.126149
H50   H     H_    0.026207 0.851502 0.958965 0.114556
H51   H     H_    0.111104 0.690170 0.977013 0.095577
H52   H     H_    0.007739 0.676863 0.065410 0.173841
H53   H     H_    0.143973 0.727828 0.217499 0.118493
C46   C     C_3   0.357547 0.818501 0.056296 -0.150044
C47   C     C_3   0.338206 0.924659 0.075328 -0.189410
C48   C     C_3   0.428291 0.981810 0.015553 -0.450362
H54   H     H_    0.421516 0.057716 0.034576 0.126468
H55   H     H_    0.559918 0.962652 0.022337 0.132017
H56   H     H_    0.370481 0.969222 0.945208 0.139171
H57   H     H_    0.207208 0.944592 0.065326 0.102319
H58   H     H_    0.390949 0.944237 0.145098 0.126426
H59   H     H_    0.486533 0.800392 0.081469 0.110679
H60   H     H_    0.340258 0.802062 0.983421 0.102181
H61   H     H_    0.488799 0.158498 0.908564 0.099058
C49   C     C_3   0.475477 0.994272 0.356272 -0.203126
C50   C     C_3   0.335046 0.035004 0.400750 -0.167159
C51   C     C_3   0.183371 0.057618 0.333753 -0.400904
H62   H     H_    0.069436 0.040406 0.360116 0.131475
H63   H     H_    0.182114 0.133401 0.321535 0.127326
H64   H     H_    0.177721 0.016454 0.269534 0.119158
H65   H     H_    0.298207 0.984607 0.446816 0.143698
H66   H     H_    0.380193 0.099577 0.440994 0.110202
H67   H     H_    0.541080 0.049979 0.328768 0.065527
H68   H     H_    0.426131 0.952468 0.295433 0.130880
C52   C     C_3   0.118923 0.361855 0.979403 -0.194316
C53   C     C_3   0.219230 0.277170 0.009776 -0.213400
C54   C     C_3   0.126342 0.215409 0.064555 -0.441560
H69   H     H_    0.121425 0.251218 0.130284 0.163039
H70   H     H_    0.999242 0.199329 0.030081 0.132395
H71   H     H_    0.189887 0.147804 0.073996 0.125094
H72   H     H_    0.242649 0.234367 0.950188 0.120967
H73   H     H_    0.338994 0.300965 0.047762 0.119553
H74   H     H_    0.058375 0.400404 0.028968 0.083510
H75   H     H_    0.005283 0.330579 0.942876 0.143774
H76   H     H_    0.715296 0.887171 0.144539 0.125526

loop_
_geom_bond_atom_site_label_1
_geom_bond_atom_site_label_2
_ccdc_geom_bond_type
O20   P1    S    
C38   H3    S    
C2    O21   S    
C3    O15   S    
C9    C16   A    
C39   O20   S    
C48   H56   S    
C39   C40   S    
O8    P7    S    
C17   C18   A    
C42   H11   S    
C50   C51   S    
C44   C45   S    
C2    H53   S    
C53   H73   S    
C38   H2    S    
O7    P4    S    
C46   H60   S    
C35   C36   A    
C5    O11   S    
C15   C24   A    
C4    H17   S    
C43   H51   S    
C54   H69   S    
C17   C19   A    
C37   H40   S    
C10   P1    S    
C26   P5    S    
C47   H58   S    
C28   C29   A    
C5    H21   S    
Ba2   O14   S    
C23   H76   S    
C7    O17   S    
C13   C14   A    
C29   H39   S    
C28   C36   S    
C33   P2    S    
C38   H4    S    
Ba1   Ba2   S    
C39   H45   S    
C49   H68   S    
C25   H41   S    
C17   C24   A    
O6    P8    S    
C41   H9    S    
C11   H31   S    
Ba2   O9    S    
C14   C15   A    
C21   C22   A    
O17   P8    S    
C7    C8    S    
O22   P2    D    
O19   P6    D    
C50   H65   S    
C1    C43   S    
C40   H7    S    
C48   H54   S    
C25   C30   A    
Ba2   O12   S    
C19   C20   A    
C44   H50   S    
O13   P2    S    
C35   H37   S    
Ba2   P4    S    
C19   P4    S    
Ba1   O12   S    
C39   H5    S    
O21   P6    S    
C31   C32   A    
C51   H63   S    
C2    H1    S    
Ba2   O5    S    
C34   H43   S    
O1    P1    D    
C9    C18   A    
C53   C54   S    
C41   O2    S    
C3    H15   S    
C32   C37   A    
C12   H29   S    
C18   C22   A    
C52   H75   S    
C34   C38   S    
C7    H26   S    
C14   C49   S    
C21   P8    S    
C22   H32   S    
Ba2   O13   S    
C32   P3    S    
C34   H44   S    
C24   H35   S    
C1    C46   S    
C23   H20   S    
C4    H19   S    
C33   C37   A    
C41   C42   S    
C27   C28   A    
C9    H34   S    
Ba1   O22   S    
O11   P5    S    
C51   H64   S    
C42   H12   S    
C41   H10   S    
C29   C30   A    
Ba2   O6    S    
C42   H13   S    
C15   C16   A    
C6    H25   S    
Ba2   O4    S    
O4    P4    D    
C52   C53   S    
C50   H66   S    
C40   H6    S    
C45   H48   S    
C6    H24   S    
C11   C13   A    
C46   C47   S    
Ba1   P2    S    
C12   H38   S    
C30   P7    S    
C1    C2    S    
Ba1   O13   S    
C43   H52   S    
C47   H57   S    
O10   P5    D    
C45   H47   S    
C51   H62   S    
C48   H55   S    
C26   C27   A    
Ba1   O1    S    
C3    H16   S    
C33   C35   A    
C53   H72   S    
C52   H74   S    
C54   H71   S    
O15   P7    S    
O12   P1    S    
C7    H27   S    
C20   H33   S    
C49   C50   S    
C31   H36   S    
C47   C48   S    
Ba1   O18   S    
C46   H59   S    
C31   C36   A    
C13   P6    S    
C4    H18   S    
C54   H70   S    
C49   H67   S    
Ba1   O23   S    
C5    H22   S    
C8    H30   S    
C34   O7    S    
C44   H49   S    
C3    C4    S    
Ba1   O8    S    
Ba2   O8    S    
C23   H42   S    
O3    P3    S    
C8    H61   S    
O2    P2    S    
C12   C23   S    
O9    P5    S    
C12   O3    S    
C5    C6    S    
Ba1   P1    S    
C1    H14   S    
C10   C11   A    
C6    H23   S    
Ba1   O5    S    
C10   C16   A    
C25   C26   A    
C20   C21   A    
C45   H46   S    
O23   P3    S    
C43   C44   S    
O5    P4    S    
O24   P3    D    
O18   P6    S    
O14   P7    D    
C40   H8    S    
C27   C52   S    
O16   P8    D    
C8    H28   S    
