data_mof_unit_53256.cif
_audit_creation_date              2012-12-10T17:58:20-0500
_audit_creation_method            fapswitch 2.2
_symmetry_space_group_name_H-M    P1
_symmetry_Int_Tables_number       1
_space_group_crystal_system       triclinic
_cell_length_a                    9.521012
_cell_length_b                    10.817917
_cell_length_c                    15.496871
_cell_angle_alpha                 89.97191
_cell_angle_beta                  74.49066
_cell_angle_gamma                 90.456658
_cell_volume                      1537.96428647

loop_
_atom_site_label
_atom_site_type_symbol
_atom_type_description
_atom_site_fract_x
_atom_site_fract_y
_atom_site_fract_z
_atom_type_partial_charge
C1    C     C_R   0.999587 0.262244 0.499111 0.832632
C2    C     C_R   0.000412 0.737760 0.500891 0.832553
C3    C     C_R   0.575122 0.423982 0.089354 -0.226229
C4    C     C_R   0.414414 0.518791 0.905130 -0.224965
C5    C     C_R   0.720257 0.407219 0.043841 -0.243067
C6    C     C_R   0.268809 0.533296 0.950305 -0.244077
C7    C     C_R   0.909804 0.061531 0.455350 0.259422
C8    C     C_R   0.090215 0.938489 0.544635 0.259027
C9    C     C_R   0.913357 0.933166 0.456265 -0.303326
C10   C     C_R   0.086629 0.066851 0.543741 -0.302922
C11   C     C_R   0.002122 0.871583 0.500815 -0.097786
C12   C     C_R   0.997875 0.128429 0.499187 -0.097324
C13   C     C_R   0.547377 0.430158 0.560356 -0.028516
C14   C     C_R   0.452618 0.569859 0.439658 -0.028088
C15   C     C_R   0.398601 0.430179 0.560332 -0.028476
C16   C     C_R   0.601394 0.569831 0.439679 -0.028562
C17   C     C_R   0.918263 0.498273 0.672084 0.795352
C18   C     C_R   0.081725 0.500367 0.327850 0.795135
C19   C     C_R   0.872674 0.485392 0.769801 -0.044540
C20   C     C_R   0.126610 0.502541 0.229611 -0.046656
C21   C     C_R   0.917151 0.416939 0.908415 -0.221480
C22   C     C_R   0.075212 0.538860 0.087342 -0.217144
C23   C     C_R   0.968417 0.441983 0.817213 -0.203411
C24   C     C_R   0.027233 0.529071 0.180150 -0.199062
C25   C     C_R   0.726701 0.506232 0.814599 -0.253936
C26   C     C_R   0.273018 0.482005 0.185298 -0.255824
C27   C     C_R   0.670696 0.476940 0.905761 0.091472
C28   C     C_R   0.323719 0.488000 0.091474 0.091370
C29   C     C_R   0.769570 0.434036 0.952950 0.167565
C30   C     C_R   0.222388 0.519757 0.042813 0.167685
C31   C     C_R   0.519904 0.488875 0.951051 0.067920
C32   C     C_R   0.472585 0.467314 0.045118 0.066527
Cu1   Cu    Cu3+1 0.140660 0.500020 0.500000 0.947232
Cu2   Cu    Cu3+1 0.859340 0.499980 0.500000 0.947560
H1    H     H_    0.794652 0.373054 0.080323 0.149971
H2    H     H_    0.192171 0.556890 0.912389 0.151418
H3    H     H_    0.346199 0.465110 0.226059 0.150053
H4    H     H_    0.659254 0.545786 0.776263 0.148515
H5    H     H_    0.913535 0.545657 0.213245 0.150621
H6    H     H_    0.081649 0.424448 0.783494 0.147303
H7    H     H_    0.992378 0.381798 0.943869 0.142559
H8    H     H_    0.997519 0.563330 0.050439 0.145113
H9    H     H_    0.546505 0.398300 0.159023 0.143381
H10   H     H_    0.439479 0.528954 0.833527 0.141229
H11   H     H_    0.847405 0.881513 0.421337 0.157246
H12   H     H_    0.152577 0.118507 0.578673 0.157202
H13   H     H_    0.581745 0.373953 0.608623 0.117101
H14   H     H_    0.418240 0.626088 0.391409 0.116463
H15   H     H_    0.320968 0.374069 0.608559 0.110444
H16   H     H_    0.679023 0.625954 0.391461 0.111323
N1    N     N_R   0.352080 0.500030 0.499980 -0.150828
N2    N     N_R   0.647920 0.499970 0.500020 -0.150953
O1    O     O_R   0.118740 0.319660 0.500000 -0.593805
O2    O     O_R   0.881260 0.680340 0.500000 -0.593469
O3    O     O_R   0.881170 0.319630 0.500010 -0.550953
O4    O     O_R   0.118830 0.680370 0.499990 -0.550799
O5    O     O_R   0.055570 0.500030 0.629830 -0.583061
O6    O     O_R   0.944430 0.499970 0.370170 -0.583472
O7    O     O_R   0.818000 0.500000 0.629840 -0.591979
O8    O     O_R   0.182000 0.500000 0.370160 -0.593118
N3    N     N_2   0.823443 0.122687 0.406634 -0.411926
H17   H     H_    0.843032 0.091887 0.341534 0.241203
C33   C     C_3   0.669273 0.123692 0.451500 -0.654340
H18   H     H_    0.623235 0.028584 0.454857 0.202031
H19   H     H_    0.612079 0.183401 0.413692 0.226672
H20   H     H_    0.650195 0.161111 0.520389 0.233884
N4    N     N_2   0.176679 0.877343 0.593288 -0.411764
H21   H     H_    0.157173 0.908141 0.658383 0.241645
C34   C     C_3   0.330823 0.876390 0.548346 -0.653646
H22   H     H_    0.376829 0.971511 0.544985 0.201927
H23   H     H_    0.349821 0.838995 0.479454 0.233419
H24   H     H_    0.388111 0.816684 0.586100 0.227329

loop_
_geom_bond_atom_site_label_1
_geom_bond_atom_site_label_2
_ccdc_geom_bond_type
C17   O5    A    
C10   H12   S    
C34   H24   S    
C19   C23   A    
C33   H19   S    
C26   H3    S    
C9    H11   S    
C15   N1    A    
C25   H4    S    
Cu1   N1    S    
C13   N2    A    
C4    H10   S    
Cu1   O5    S    
Cu2   N2    S    
C31   C32   A    
C13   C15   A    
C3    C5    A    
N3    H17   S    
Cu1   O4    S    
C28   C30   A    
Cu1   Cu2   S    
C1    O3    A    
C33   H20   S    
Cu2   O3    S    
C2    O4    A    
C26   C28   A    
C20   C24   A    
Cu2   O6    S    
C9    C11   A    
C3    H9    S    
C22   H8    S    
C1    C12   S    
C20   C26   A    
C17   O7    A    
C8    C11   A    
C21   H7    S    
C2    C11   S    
C5    H1    S    
C22   C24   A    
C4    C6    A    
C13   H13   S    
C17   C19   S    
C6    H2    S    
Cu2   O2    S    
Cu1   O8    S    
C18   C20   S    
C34   H22   S    
C15   H15   S    
C14   N1    A    
Cu1   O1    S    
C3    C32   A    
C19   C25   A    
C14   C16   A    
C7    C12   A    
C4    C31   A    
C27   C29   A    
C27   C31   A    
C23   H6    S    
C5    C29   A    
C7    C9    A    
C28   C32   A    
C24   H5    S    
C8    N4    S    
C8    C10   A    
C2    O2    A    
C18   O8    A    
C16   N2    A    
C34   H23   S    
C1    O1    A    
C7    N3    S    
C14   H14   S    
C22   C30   A    
C6    C30   A    
C10   C12   A    
Cu2   O7    S    
C21   C29   A    
C21   C23   A    
C18   O6    A    
N3    C33   S    
N4    H21   S    
C16   H16   S    
C33   H18   S    
N4    C34   S    
C25   C27   A    
