data_mof_unit_61476.cif
_audit_creation_date              2013-03-05T17:02:04-0500
_audit_creation_method            fapswitch 2.2
_symmetry_space_group_name_H-M    P1
_symmetry_Int_Tables_number       1
_space_group_crystal_system       triclinic
_cell_length_a                    10.50086
_cell_length_b                    16.126415
_cell_length_c                    16.873228
_cell_angle_alpha                 86.75134
_cell_angle_beta                  90.158262
_cell_angle_gamma                 92.032007
_cell_volume                      2850.94668869

loop_
_atom_site_label
_atom_site_type_symbol
_atom_site_description
_atom_site_fract_x
_atom_site_fract_y
_atom_site_fract_z
_atom_type_partial_charge
O1    O     O_R   0.494440 0.422540 0.612660 -0.649304
O2    O     O_R   0.505560 0.577460 0.387340 -0.649316
O3    O     O_R   0.504420 0.561850 0.618900 -0.537241
O4    O     O_R   0.495580 0.438150 0.381100 -0.537175
C1    C     C_R   0.495253 0.488183 0.652535 0.923674
C2    C     C_R   0.504768 0.511815 0.347465 0.923478
O5    O     O_R   0.681060 0.430360 0.496900 -0.617598
O6    O     O_R   0.318940 0.569640 0.503100 -0.617623
O7    O     O_R   0.691040 0.569670 0.503140 -0.589892
O8    O     O_R   0.308960 0.430330 0.496860 -0.589898
C3    C     C_R   0.742824 0.499547 0.500253 0.909039
C4    C     C_R   0.257176 0.500453 0.499744 0.909190
Zn1   Zn    Zn3+2 0.493340 0.406980 0.495830 1.032482
Zn2   Zn    Zn3+2 0.506660 0.593020 0.504170 1.032414
C5    C     C_3   0.955900 0.420904 0.496812 -0.114948
C6    C     C_3   0.044100 0.579096 0.503185 -0.114893
C7    C     C_3   0.040599 0.454320 0.563621 -0.174319
C8    C     C_3   0.959400 0.545680 0.436376 -0.174431
H1    H     H_    0.078656 0.417399 0.615377 0.164058
H2    H     H_    0.921343 0.582600 0.384619 0.163987
H3    H     H_    0.915789 0.356477 0.494207 0.171880
H4    H     H_    0.084210 0.643523 0.505790 0.171846
C9    C     C_3   0.122280 0.501205 0.499872 -0.008073
C10   C     C_3   0.877720 0.498795 0.500125 -0.008095
C11   C     C_3   0.040299 0.467873 0.433067 -0.121847
C12   C     C_3   0.959700 0.532127 0.566930 -0.121750
H5    H     H_    0.078012 0.441914 0.378637 0.183147
H6    H     H_    0.921987 0.558085 0.621360 0.183162
C13   C     C_R   0.484990 0.478683 0.737908 -0.141960
C14   C     C_R   0.515146 0.521311 0.262093 -0.142061
C15   C     C_R   0.412252 0.533247 0.780225 0.285890
C16   C     C_R   0.587768 0.466655 0.219809 0.285963
C17   C     C_R   0.418554 0.528260 0.862608 -0.217122
C18   C     C_R   0.581605 0.471662 0.137425 -0.217134
C19   C     C_R   0.494487 0.468956 0.902538 0.271755
C20   C     C_R   0.505918 0.531077 0.097452 0.271737
C21   C     C_R   0.557549 0.411255 0.860146 -0.163254
C22   C     C_R   0.442977 0.588860 0.139814 -0.163324
C23   C     C_R   0.553521 0.416222 0.777980 -0.262992
C24   C     C_R   0.446874 0.583876 0.221984 -0.262964
N1    N     N_2   0.510922 0.466409 0.985329 -0.173484
N2    N     N_2   0.489540 0.533631 0.014654 -0.173446
H7    H     H_    0.636514 0.429574 0.104538 0.190317
H8    H     H_    0.363551 0.570267 0.895531 0.190339
H9    H     H_    0.614175 0.364616 0.890850 0.161412
H10   H     H_    0.386539 0.635578 0.109081 0.161431
H11   H     H_    0.608062 0.373434 0.745618 0.169482
H12   H     H_    0.392427 0.626737 0.254317 0.169555
N3    N     N_R   0.515540 0.716920 0.509720 -0.138716
N4    N     N_R   0.484460 0.283080 0.490280 -0.138708
C25   C     C_R   0.436751 0.763797 0.462667 -0.125433
C26   C     C_R   0.563247 0.236203 0.537334 -0.125372
C27   C     C_R   0.440282 0.850898 0.464744 -0.254403
C28   C     C_R   0.559717 0.149102 0.535257 -0.254400
C29   C     C_R   0.526309 0.890738 0.516069 0.255203
C30   C     C_R   0.473693 0.109262 0.483930 0.255198
C31   C     C_R   0.605897 0.840628 0.563684 -0.358854
C32   C     C_R   0.394108 0.159372 0.436312 -0.358805
C33   C     C_R   0.599313 0.753837 0.559775 0.779402
C34   C     C_R   0.400691 0.246163 0.440222 0.779493
N5    N     N_2   0.536629 0.979312 0.522063 -0.150858
N6    N     N_2   0.463374 0.020688 0.477935 -0.150854
H13   H     H_    0.629172 0.266493 0.576755 0.157106
H14   H     H_    0.370823 0.733507 0.423247 0.157113
H15   H     H_    0.623559 0.113791 0.573415 0.176630
H16   H     H_    0.376438 0.886208 0.426587 0.176632
H17   H     H_    0.673098 0.868861 0.603795 0.184147
H18   H     H_    0.326910 0.131139 0.396200 0.184146
F1    F     F_    0.677141 0.706550 0.606210 -0.649177
F2    F     F_    0.322865 0.293451 0.393785 -0.649159
N7    N     N_R   0.669878 0.407740 0.259147 0.218331
O9    O     O_R   0.741165 0.429573 0.318168 -0.417569
O10   O     O_R   0.687659 0.336559 0.228975 -0.366859
N8    N     N_R   0.329887 0.592037 0.740929 0.218293
O11   O     O_R   0.258750 0.570140 0.681863 -0.417722
O12   O     O_R   0.311741 0.663134 0.771171 -0.366898

loop_
_geom_bond_atom_site_label_1
_geom_bond_atom_site_label_2
_geom_bond_distance
_ccdc_geom_bond_type
C22   C24   1.384822 A    
N1    N2    1.244620 D    
C20   N2    1.405594 S    
C28   H15   1.082297 S    
O5    C3    1.274505 A    
C4    C9    1.417016 S    
C7    C9    1.526864 S    
N8    O12   1.301379 A    
O1    C1    1.285854 A    
C7    C12   1.543689 S    
C19   C21   1.392029 A    
C10   C12   1.526805 S    
C5    C11   1.543176 S    
Zn2   N3    2.004412 S    
C32   C34   1.404154 A    
C3    C10   1.417015 S    
C24   H12   1.083866 S    
O4    Zn1   1.972289 S    
C17   C19   1.407997 A    
N3    C25   1.363458 A    
N4    C26   1.363454 A    
C15   C17   1.389365 A    
C8    H2    1.110345 S    
C30   N6    1.437921 S    
C13   C15   1.410458 A    
O2    C2    1.285884 A    
C8    C11   1.543689 S    
C31   H17   1.082969 S    
C19   N1    1.405566 S    
C26   C28   1.406219 A    
C16   N7    1.438796 S    
C1    C13   1.443902 S    
C27   C29   1.412939 A    
C6    C12   1.543176 S    
C28   C30   1.412940 A    
N8    O11   1.301174 A    
C18   H7    1.083176 S    
O4    C2    1.287794 A    
N7    O10   1.301409 A    
C15   N8    1.438852 S    
O6    Zn2   1.994006 S    
C26   H13   1.081932 S    
C25   C27   1.406218 A    
C16   C18   1.389321 A    
O7    Zn2   1.985798 S    
C34   F2    1.355097 S    
O6    C4    1.274510 A    
C13   C23   1.400424 A    
C14   C24   1.400420 A    
C27   H16   1.082298 S    
O7    C3    1.275471 A    
O3    Zn2   1.972289 S    
O8    C4    1.275471 A    
C33   F1    1.355097 S    
C32   H18   1.082970 S    
C5    C10   1.528473 S    
C2    C14   1.443970 S    
C6    C9    1.528473 S    
C29   C31   1.402702 A    
C8    C10   1.526862 S    
O1    Zn1   2.001213 S    
C21   H9    1.083277 S    
C23   H11   1.083860 S    
C5    C7    1.543224 S    
C6    H4    1.110345 S    
C17   H8    1.083164 S    
C25   H14   1.081931 S    
O3    C1    1.287795 A    
O8    Zn1   1.985798 S    
C11   H5    1.110351 S    
C12   H6    1.110351 S    
N3    C33   1.362849 A    
N4    C34   1.362849 A    
C20   C22   1.392062 A    
N7    O9    1.301164 A    
C21   C23   1.384804 A    
C14   C16   1.410456 A    
C5    H3    1.110344 S    
C29   N5    1.437921 S    
C7    H1    1.110346 S    
C30   C32   1.402702 A    
C18   C20   1.407992 A    
C9    C11   1.526805 S    
N5    N6    1.252309 D    
O2    Zn2   2.001212 S    
C22   H10   1.083250 S    
C31   C33   1.404155 A    
Zn1   N4    2.004412 S    
O5    Zn1   1.994008 S    
C6    C8    1.543225 S    
