data_mof_unit_27307.cif
_audit_creation_date              2013-03-05T16:05:39-0500
_audit_creation_method            fapswitch 2.2
_symmetry_space_group_name_H-M    P1
_symmetry_Int_Tables_number       1
_space_group_crystal_system       triclinic
_cell_length_a                    15.857728
_cell_length_b                    10.807201
_cell_length_c                    9.506971
_cell_angle_alpha                 89.901275
_cell_angle_beta                  90.080262
_cell_angle_gamma                 90.269503
_cell_volume                      1629.26036301

loop_
_atom_site_label
_atom_site_type_symbol
_atom_site_description
_atom_site_fract_x
_atom_site_fract_y
_atom_site_fract_z
_atom_type_partial_charge
O1    O     O_R   0.500000 0.319660 0.618740 -0.594054
O2    O     O_R   0.500000 0.680340 0.381260 -0.594048
O3    O     O_R   0.499990 0.319630 0.381170 -0.568157
O4    O     O_R   0.500010 0.680370 0.618830 -0.568170
C1    C     C_R   0.502225 0.262258 0.499872 0.789535
C2    C     C_R   0.497772 0.737742 0.500130 0.789475
O5    O     O_R   0.379080 0.500000 0.618760 -0.575793
O6    O     O_R   0.620920 0.500000 0.381240 -0.575746
O7    O     O_R   0.379080 0.499970 0.381190 -0.582112
O8    O     O_R   0.620920 0.500030 0.618810 -0.582126
C3    C     C_R   0.339766 0.500600 0.499927 0.822818
C4    C     C_R   0.660233 0.499404 0.500072 0.822852
Cu1   Cu    Cu3+1 0.500000 0.500020 0.640660 0.943491
Cu2   Cu    Cu3+1 0.500000 0.499980 0.359340 0.943521
C5    C     C_3   0.973315 0.383573 0.512133 0.070295
C6    C     C_3   0.026675 0.616490 0.487824 0.070339
C7    C     C_3   0.028846 0.432975 0.390905 -0.212014
C8    C     C_3   0.971149 0.567082 0.609056 -0.211970
H1    H     H_    0.053691 0.377379 0.302161 0.129579
H2    H     H_    0.946305 0.622678 0.697800 0.129659
H3    H     H_    0.945957 0.586291 0.277981 0.124367
H4    H     H_    0.054037 0.413726 0.721959 0.124401
C9    C     C_1   0.250123 0.501799 0.499951 -0.195902
C10   C     C_1   0.749875 0.498225 0.500039 -0.195852
C11   C     C_3   0.028627 0.451447 0.621957 -0.224487
C12   C     C_3   0.971365 0.548608 0.378002 -0.224420
C13   C     C_3   0.082946 0.502107 0.500495 0.149775
C14   C     C_3   0.917050 0.497955 0.499462 0.149731
C15   C     C_1   0.174602 0.502406 0.500195 -0.075241
C16   C     C_1   0.825396 0.497636 0.499778 -0.075114
C17   C     C_R   0.538017 0.061795 0.385189 0.003386
C18   C     C_R   0.461984 0.938206 0.614837 0.003403
C19   C     C_R   0.532500 0.933740 0.386426 -0.253735
C20   C     C_R   0.467491 0.066263 0.613584 -0.253744
H5    H     H_    0.559610 0.882190 0.299859 0.146671
H6    H     H_    0.440389 0.117817 0.700157 0.146688
C21   C     C_R   0.495822 0.871654 0.500405 -0.075859
C22   C     C_R   0.504167 0.128347 0.499604 -0.075868
C23   C     C_R   0.445250 0.426395 0.074430 -0.003271
C24   C     C_R   0.554750 0.573605 0.925570 -0.003168
H7    H     H_    0.401655 0.367067 0.130593 0.117780
H8    H     H_    0.598344 0.632934 0.869407 0.117761
C25   C     C_R   0.445270 0.426425 0.925533 -0.025589
C26   C     C_R   0.554730 0.573575 0.074467 -0.025477
H9    H     H_    0.401651 0.367171 0.869344 0.112907
H10   H     H_    0.598349 0.632830 0.130656 0.112880
N1    N     N_R   0.500020 0.500030 0.852070 -0.152988
N2    N     N_R   0.499980 0.499970 0.147930 -0.152989
C27   C     C_R   0.941197 0.252399 0.519401 0.109943
C28   C     C_R   0.957494 0.177324 0.637057 -0.156359
C29   C     C_R   0.927162 0.055604 0.641600 -0.110379
C30   C     C_R   0.880499 0.008052 0.529011 -0.087492
C31   C     C_R   0.864206 0.082103 0.411525 -0.154765
C32   C     C_R   0.894465 0.203782 0.406593 -0.165443
H11   H     H_    0.993572 0.212233 0.725220 0.110816
H12   H     H_    0.940181 0.997915 0.732194 0.119822
H13   H     H_    0.857431 0.913662 0.532469 0.120710
H14   H     H_    0.828294 0.045144 0.324117 0.129898
H15   H     H_    0.881776 0.260121 0.314775 0.118478
C33   C     C_R   0.058711 0.747711 0.480557 0.109877
C34   C     C_R   0.041827 0.823063 0.363349 -0.156463
C35   C     C_R   0.072002 0.944865 0.358866 -0.110139
C36   C     C_R   0.119088 0.992235 0.471071 -0.087541
C37   C     C_R   0.135976 0.917908 0.588106 -0.154594
C38   C     C_R   0.105866 0.796147 0.592985 -0.165109
H16   H     H_    0.005359 0.788336 0.275524 0.110797
H17   H     H_    0.058496 0.002778 0.268640 0.119959
H18   H     H_    0.142025 0.086695 0.467668 0.120756
H19   H     H_    0.172235 0.954718 0.675213 0.129943
H20   H     H_    0.119008 0.739598 0.684469 0.118549
C39   C     C_R   0.580960 0.122572 0.264851 0.131052
C40   C     C_R   0.546040 0.114708 0.129338 -0.170928
C41   C     C_R   0.584182 0.176536 0.016629 -0.143714
C42   C     C_R   0.657233 0.246749 0.038558 -0.097748
C43   C     C_R   0.692603 0.254554 0.173032 -0.124372
C44   C     C_R   0.654966 0.192236 0.285887 -0.115392
H21   H     H_    0.488341 0.063068 0.111928 0.122316
H22   H     H_    0.556537 0.171319 0.912624 0.134812
H23   H     H_    0.686175 0.295581 0.951486 0.127749
H24   H     H_    0.748784 0.309732 0.189962 0.117766
H25   H     H_    0.682537 0.199818 0.389846 0.111185
C45   C     C_R   0.419110 0.877435 0.735253 0.131086
C46   C     C_R   0.345165 0.807602 0.714325 -0.115321
C47   C     C_R   0.307616 0.745279 0.827258 -0.124320
C48   C     C_R   0.343002 0.753261 0.961708 -0.097616
C49   C     C_R   0.415981 0.823658 0.983534 -0.143811
C50   C     C_R   0.454041 0.885482 0.870745 -0.171075
H26   H     H_    0.317583 0.799880 0.610387 0.110983
H27   H     H_    0.251493 0.689954 0.810412 0.117676
H28   H     H_    0.314129 0.704425 0.048839 0.127819
H29   H     H_    0.443636 0.829017 0.087521 0.134811
H30   H     H_    0.511690 0.937263 0.888081 0.122362

loop_
_geom_bond_atom_site_label_1
_geom_bond_atom_site_label_2
_geom_bond_distance
_ccdc_geom_bond_type
C24   N1    1.366556 A    
H3    C12   1.109746 S    
C13   C15   1.453448 S    
C41   C42   1.397415 A    
C43   C44   1.398724 A    
C23   H7    1.081563 S    
C31   C32   1.398429 A    
O5    C3    1.289595 A    
C35   C36   1.397706 A    
C35   H17   1.082707 S    
O1    C1    1.290687 A    
C7    C12   1.554817 S    
C9    C15   1.197657 T    
C49   H29   1.082484 S    
C39   C44   1.405570 A    
C5    C11   1.546463 S    
C45   C50   1.404137 A    
C29   H12   1.082579 S    
C6    C33   1.505634 S    
O4    Cu1   1.959739 S    
C7    H1    1.110374 S    
C34   H16   1.081710 S    
H4    C11   1.109750 S    
C41   H22   1.082491 S    
C17   C19   1.386296 A    
C43   H24   1.081734 S    
C20   H6    1.085060 S    
C6    C13   1.532449 S    
C24   H8    1.081562 S    
C46   H26   1.083243 S    
C1    C22   1.447682 S    
O2    C2    1.290708 A    
C8    C11   1.554805 S    
C26   H10   1.081602 S    
C32   H15   1.082594 S    
C6    C12   1.546482 S    
C48   H28   1.082428 S    
C18   C21   1.413063 A    
C42   C43   1.397875 A    
C29   C30   1.397654 A    
C7    C13   1.540721 S    
C8    C14   1.540719 S    
C47   C48   1.397870 A    
O4    C2    1.287187 A    
Cu1   N1    2.009869 S    
C49   C50   1.398577 A    
C23   C25   1.415564 A    
C48   C49   1.397405 A    
C19   C21   1.399381 A    
C33   C34   1.405195 A    
C18   C20   1.386310 A    
O7    Cu2   1.929024 S    
C40   H21   1.082187 S    
O7    C3    1.290347 A    
C46   C47   1.398734 A    
C24   C26   1.415564 A    
O6    C4    1.289581 A    
C28   C29   1.399123 A    
C2    C21   1.447693 S    
C37   H19   1.082726 S    
C25   H9    1.081601 S    
O3    Cu2   1.959742 S    
O8    C4    1.290350 A    
C33   C38   1.404151 A    
C45   C46   1.405585 A    
C42   H23   1.082429 S    
O1    Cu1   1.960652 S    
C47   H27   1.081728 S    
C50   H30   1.082189 S    
C30   C31   1.397432 A    
C5    C7    1.544370 S    
C36   H18   1.082545 S    
O6    Cu2   1.928496 S    
C20   C22   1.399368 A    
C40   C41   1.398581 A    
O3    C1    1.287200 A    
O8    Cu1   1.929024 S    
C44   H25   1.083241 S    
Cu2   N2    2.009869 S    
C31   H14   1.082623 S    
C11   C13   1.539892 S    
C18   C45   1.483080 S    
C4    C10   1.421636 S    
C12   C14   1.539818 S    
C28   H11   1.081608 S    
C17   C22   1.413013 A    
C37   C38   1.398441 A    
C14   C16   1.453429 S    
C39   C40   1.404119 A    
C5    C14   1.532388 S    
C3    C9    1.421658 S    
C19   H5    1.085058 S    
C8    H2    1.110374 S    
C5    C27   1.505595 S    
C34   C35   1.399102 A    
O2    Cu2   1.960651 S    
C10   C16   1.197643 T    
C30   H13   1.082542 S    
C36   C37   1.397522 A    
C26   N2    1.366606 A    
O5    Cu1   1.928497 S    
C6    C8    1.544370 S    
C27   C28   1.405085 A    
C23   N2    1.366556 A    
C38   H20   1.082687 S    
Cu1   Cu2   2.674502 S    
C25   N1    1.366607 A    
C27   C32   1.404090 A    
C17   C39   1.483032 S    
