data_mof_unit_7060.cif
_audit_creation_date              2012-12-10T16:39:35-0500
_audit_creation_method            fapswitch 2.2
_symmetry_space_group_name_H-M    P1
_symmetry_Int_Tables_number       1
_space_group_crystal_system       triclinic
_cell_length_a                    16.878892
_cell_length_b                    16.930398
_cell_length_c                    16.798441
_cell_angle_alpha                 66.944347
_cell_angle_beta                  66.25319
_cell_angle_gamma                 66.932265
_cell_volume                      3883.68679814

loop_
_atom_site_label
_atom_site_type_symbol
_atom_type_description
_atom_site_fract_x
_atom_site_fract_y
_atom_site_fract_z
_atom_type_partial_charge
C1    C     C_R   0.325257 0.952103 0.457170 0.003773
C2    C     C_R   0.325300 0.454471 0.954712 -0.000499
C3    C     C_R   0.538234 0.409969 0.003193 0.001513
C4    C     C_R   0.019697 0.453179 0.582485 -0.004367
C5    C     C_R   0.980220 0.546849 0.417549 -0.004344
C6    C     C_R   0.054352 0.672268 0.540618 0.004458
C7    C     C_R   0.945611 0.327746 0.459392 0.004466
C8    C     C_R   0.457720 0.977502 0.458152 0.018002
C9    C     C_R   0.542303 0.022479 0.541839 0.017997
C10   C     C_R   0.972388 0.459408 0.459965 0.014594
C11   C     C_R   0.027558 0.540607 0.540052 0.014590
C12   C     C_R   0.453333 0.454712 0.988057 0.013504
C13   C     C_R   0.546567 0.545238 0.012183 0.013487
C14   C     C_R   0.965682 0.179335 0.436583 0.907973
C15   C     C_R   0.674749 0.047901 0.542819 0.003772
C16   C     C_R   0.034322 0.820666 0.563415 0.907989
C17   C     C_R   0.178967 0.436389 0.965833 0.914212
C18   C     C_R   0.821025 0.563594 0.034211 0.914164
C19   C     C_R   0.436168 0.966347 0.178825 0.920460
C20   C     C_R   0.563820 0.033679 0.821177 0.920523
C21   C     C_R   0.567705 0.823163 0.023430 0.924678
C22   C     C_R   0.432290 0.176829 0.976595 0.924631
C23   C     C_R   0.036153 0.562595 0.820481 0.905757
C24   C     C_R   0.963847 0.437407 0.179518 0.905681
C25   C     C_R   0.821108 0.033857 0.563716 0.916492
C26   C     C_R   0.938784 0.461244 0.330273 0.002076
C27   C     C_R   0.178894 0.966149 0.436280 0.916432
C28   C     C_R   0.412346 0.962547 0.413089 0.017893
C29   C     C_R   0.587672 0.037439 0.586902 0.017902
C30   C     C_R   0.952370 0.416116 0.416372 0.014959
C31   C     C_R   0.047595 0.583896 0.583637 0.014958
C32   C     C_R   0.406792 0.408420 0.976977 0.020405
C33   C     C_R   0.593142 0.591530 0.023212 0.020407
C34   C     C_R   0.276307 0.949687 0.405751 -0.091342
C35   C     C_R   0.723698 0.050317 0.594242 -0.091309
C36   C     C_R   0.941766 0.408703 0.278836 -0.097957
C37   C     C_R   0.061189 0.538767 0.669732 0.002040
C38   C     C_R   0.058237 0.591300 0.721160 -0.097989
C39   C     C_R   0.396127 0.270378 0.974178 -0.105010
C40   C     C_R   0.603858 0.729595 0.025900 -0.105050
C41   C     C_R   0.594831 0.050025 0.723557 -0.093323
C42   C     C_R   0.405171 0.949980 0.276437 -0.093313
C43   C     C_R   0.723939 0.595909 0.047973 -0.094901
C44   C     C_R   0.276039 0.404059 0.952131 -0.094855
C45   C     C_R   0.054336 0.722218 0.592630 -0.099705
C46   C     C_R   0.945667 0.277785 0.407367 -0.099676
C47   C     C_R   0.450241 0.060392 0.707320 0.197660
C48   C     C_R   0.440782 0.315435 0.991082 0.001437
C49   C     C_R   0.549772 0.939592 0.292671 0.197751
C50   C     C_R   0.063585 0.705652 0.446577 0.174118
C51   C     C_R   0.936279 0.294397 0.553454 0.174092
C52   C     C_R   0.704516 0.451364 0.062499 0.173163
C53   C     C_R   0.295495 0.548604 0.937549 0.173188
C54   C     C_R   0.294883 0.934420 0.552252 0.176707
C55   C     C_R   0.705098 0.065631 0.447728 0.176720
C56   C     C_R   0.517816 0.271162 0.022307 0.174308
C57   C     C_R   0.482218 0.728794 0.977717 0.174262
C58   C     C_R   0.921750 0.556377 0.301583 0.172208
C59   C     C_R   0.559196 0.684520 0.009027 0.001438
C60   C     C_R   0.078176 0.443644 0.698447 0.172264
C61   C     C_R   0.317846 0.945856 0.317970 -0.256518
C62   C     C_R   0.682158 0.054146 0.682023 -0.256466
C63   C     C_R   0.941614 0.319866 0.319494 -0.235818
C64   C     C_R   0.058419 0.680130 0.680495 -0.235762
C65   C     C_R   0.315325 0.315182 0.954477 -0.243433
C66   C     C_R   0.684653 0.684793 0.045614 -0.243331
C67   C     C_R   0.668919 0.036664 0.403933 -0.055953
C68   C     C_R   0.331064 0.963392 0.596032 -0.055994
C69   C     C_R   0.050377 0.402263 0.658684 -0.055177
C70   C     C_R   0.544223 0.046775 0.674691 0.010710
C71   C     C_R   0.949489 0.597777 0.341384 -0.055152
C72   C     C_R   0.425142 0.680728 0.990681 -0.049177
C73   C     C_R   0.574856 0.319253 0.009369 -0.049243
C74   C     C_R   0.591418 0.972521 0.326788 -0.042840
C75   C     C_R   0.408601 0.027463 0.673202 -0.042901
C76   C     C_R   0.331567 0.591423 0.966341 -0.057275
C77   C     C_R   0.668413 0.408575 0.033714 -0.057245
C78   C     C_R   0.971739 0.329554 0.591834 -0.053997
C79   C     C_R   0.028067 0.670518 0.408244 -0.053971
C80   C     C_R   0.712444 0.027278 0.314605 0.153174
C81   C     C_R   0.455790 0.953209 0.325302 0.010650
C82   C     C_R   0.287497 0.972844 0.685331 0.153141
C83   C     C_R   0.056682 0.310403 0.688262 0.171391
C84   C     C_R   0.942990 0.689676 0.311941 0.171404
C85   C     C_R   0.333982 0.721354 0.994142 0.152765
C86   C     C_R   0.666074 0.278688 0.005745 0.152863
C87   C     C_R   0.675717 0.991498 0.277942 0.174683
C88   C     C_R   0.324272 0.008540 0.722027 0.174716
C89   C     C_R   0.286641 0.677444 0.980224 0.146111
C90   C     C_R   0.713419 0.322635 0.019611 0.146132
C91   C     C_R   0.998460 0.281817 0.671664 0.142338
C92   C     C_R   0.674656 0.545486 0.045443 -0.000485
C93   C     C_R   0.001148 0.718347 0.328541 0.142207
C94   C     C_R   0.544825 0.989575 0.411966 0.001148
C95   C     C_R   0.455197 0.010407 0.588023 0.001142
C96   C     C_R   0.989226 0.413481 0.543965 -0.001949
C97   C     C_R   0.010681 0.586547 0.456071 -0.001934
C98   C     C_R   0.414923 0.545114 0.984827 -0.005017
C99   C     C_R   0.584981 0.454848 0.015385 -0.004990
C100  C     C_R   0.586138 0.014891 0.452808 0.001088
C101  C     C_R   0.413878 0.985107 0.547176 0.001090
C102  C     C_R   0.461683 0.589991 0.997007 0.001494
H1    H     H_    0.279805 0.944927 0.279600 0.209030
H2    H     H_    0.720194 0.055080 0.720394 0.209034
H3    H     H_    0.944722 0.280749 0.279823 0.211488
H4    H     H_    0.055342 0.719239 0.720159 0.211480
H5    H     H_    0.279637 0.278876 0.946587 0.215342
H6    H     H_    0.720351 0.721113 0.053474 0.215345
I1    I     I_    0.254364 0.026935 0.854784 -0.139166
I2    I     I_    0.265868 0.831377 0.051018 -0.172746
I3    I     I_    0.810219 0.773315 0.349646 -0.260737
I4    I     I_    0.189323 0.226491 0.650794 -0.260628
I5    I     I_    0.382048 0.182517 0.744590 -0.216499
I6    I     I_    0.617966 0.817522 0.255289 -0.216451
I7    I     I_    0.180336 0.752834 0.365602 -0.251169
I8    I     I_    0.819485 0.247233 0.634276 -0.251166
I9    I     I_    0.752747 0.376430 0.177727 -0.228352
I10   I     I_    0.247589 0.623321 0.822094 -0.228443
I11   I     I_    0.259485 0.811306 0.614819 -0.230706
I12   I     I_    0.745630 0.973095 0.145193 -0.139212
I13   I     I_    0.740466 0.188762 0.385237 -0.230741
I14   I     I_    0.502891 0.172834 0.150168 -0.327302
I15   I     I_    0.497235 0.827105 0.849828 -0.327219
I16   I     I_    0.830932 0.637292 0.221851 -0.215067
I17   I     I_    0.169047 0.362721 0.778120 -0.214913
I18   I     I_    0.019903 0.845217 0.244717 -0.160185
I19   I     I_    0.979217 0.155181 0.755917 -0.159908
I20   I     I_    0.856347 0.270198 0.995813 -0.179514
I21   I     I_    0.143808 0.730199 0.003477 -0.179404
I22   I     I_    0.161213 0.942906 0.763857 -0.152202
I23   I     I_    0.838528 0.057550 0.235906 -0.152240
I24   I     I_    0.734208 0.168661 0.948858 -0.172595
O1    O     O_R   0.982940 0.138950 0.510160 -0.610754
O2    O     O_R   0.982940 0.510160 0.138950 -0.612313
O3    O     O_R   0.861050 0.017060 0.489840 -0.613995
O4    O     O_R   0.138950 0.982940 0.510160 -0.614004
O5    O     O_R   0.867700 0.025880 0.612340 -0.613525
O6    O     O_R   0.132300 0.974120 0.387660 -0.613518
O7    O     O_R   0.025880 0.612340 0.867700 -0.608478
O8    O     O_R   0.974120 0.387660 0.132300 -0.608478
O9    O     O_R   0.612340 0.867700 0.025880 -0.614586
O10   O     O_R   0.387660 0.132300 0.974120 -0.614616
O11   O     O_R   0.387660 0.974120 0.132300 -0.621577
O12   O     O_R   0.017060 0.861050 0.489840 -0.610724
O13   O     O_R   0.612340 0.025880 0.867700 -0.621565
O14   O     O_R   0.132300 0.387660 0.974120 -0.610368
O15   O     O_R   0.867700 0.612340 0.025880 -0.610353
O16   O     O_R   0.974120 0.132300 0.387660 -0.610742
O17   O     O_R   0.025880 0.867700 0.612340 -0.610749
O18   O     O_R   0.138950 0.510160 0.982940 -0.610711
O19   O     O_R   0.861050 0.489840 0.017060 -0.610640
O20   O     O_R   0.510160 0.982940 0.138950 -0.599471
O21   O     O_R   0.489840 0.017060 0.861050 -0.599464
O22   O     O_R   0.489840 0.861050 0.017060 -0.605750
O23   O     O_R   0.510160 0.138950 0.982940 -0.605792
O24   O     O_R   0.017060 0.489840 0.861050 -0.612252
Zn1   Zn    Zn3+2 0.004880 0.004880 0.583590 1.082942
Zn2   Zn    Zn3+2 0.995120 0.995120 0.416410 1.082965
Zn3   Zn    Zn3+2 0.004880 0.583590 0.004880 1.079349
Zn4   Zn    Zn3+2 0.995120 0.416410 0.995120 1.079435
Zn5   Zn    Zn3+2 0.583590 0.004880 0.004880 1.087751
Zn6   Zn    Zn3+2 0.416410 0.995120 0.995120 1.087740

loop_
_geom_bond_atom_site_label_1
_geom_bond_atom_site_label_2
_ccdc_geom_bond_type
C55   I13   S    
O9    Zn5   S    
C6    C45   A    
C39   C65   A    
C74   C94   A    
C17   O18   A    
C48   C56   A    
O15   Zn3   S    
C50   C79   A    
C72   C85   A    
C52   C77   A    
C75   C95   A    
C14   C46   S    
O23   Zn5   S    
C24   C36   S    
C91   I19   S    
C27   O4    A    
C23   O7    A    
C60   I17   S    
C61   H1    S    
C35   C62   A    
C79   C93   A    
C80   C87   A    
C58   C71   A    
C57   C59   A    
O14   Zn4   S    
C76   C98   A    
C14   O16   A    
C89   I21   S    
C2    C32   A    
C50   I7    S    
C49   C81   A    
O6    Zn2   S    
C93   I18   S    
C3    C12   A    
C4    C96   A    
C78   C96   A    
C1    C28   A    
C21   O22   A    
C15   C29   A    
C16   O17   A    
C10   C96   A    
C74   C87   A    
C63   H3    S    
C36   C63   A    
C8    C101  A    
C9    C95   A    
O11   Zn6   S    
C62   H2    S    
O20   Zn5   S    
C19   C42   S    
C9    C29   A    
C76   C89   A    
C52   I9    S    
O2    Zn3   S    
C11   C31   A    
C33   C59   A    
C80   I23   S    
C40   C66   A    
C54   I11   S    
C12   C32   A    
C32   C48   A    
O3    Zn2   S    
C44   C65   A    
C42   C81   A    
C41   C62   A    
C3    C73   A    
C15   C35   A    
C4    C69   A    
C79   C97   A    
C1    C34   A    
C20   C41   S    
C38   C64   A    
C22   O23   A    
C27   C34   S    
C77   C90   A    
C27   O6    A    
O18   Zn3   S    
C84   I3    S    
C7    C46   A    
O24   Zn4   S    
C8    C94   A    
C68   C101  A    
C72   C102  A    
C18   O15   A    
C86   C90   A    
C33   C92   A    
C2    C44   A    
C85   C89   A    
C53   I10   S    
C98   C102  A    
C34   C61   A    
C24   O8    A    
C31   C37   A    
C15   C55   A    
C13   C99   A    
C77   C99   A    
C25   O5    A    
C1    C54   A    
C83   I4    S    
C47   C70   A    
C13   C33   A    
C37   C38   A    
C69   C83   A    
C57   I15   S    
C10   C30   A    
C94   C100  A    
C22   O10   A    
C19   O20   A    
O16   Zn2   S    
C6    C50   A    
C4    C11   A    
C64   H4    S    
C26   C58   A    
C42   C61   A    
C67   C100  A    
C25   C35   S    
O4    Zn1   S    
C26   C36   A    
C5    C97   A    
C85   I2    S    
C9    C100  A    
C8    C28   A    
C52   C92   A    
C53   C76   A    
C82   I22   S    
C88   I1    S    
O12   Zn2   S    
C18   O19   A    
C71   C84   A    
C7    C51   A    
C24   O2    A    
C47   I5    S    
C19   O11   A    
C56   C73   A    
C16   O12   A    
C28   C81   A    
C49   C74   A    
C12   C98   A    
O22   Zn6   S    
C67   C80   A    
C51   I8    S    
C66   H6    S    
C20   O21   A    
C47   C75   A    
C2    C53   A    
C16   C45   S    
O10   Zn6   S    
C55   C67   A    
C26   C30   A    
C14   O1    A    
C78   C91   A    
C23   C38   S    
C83   C91   A    
C46   C63   A    
C45   C64   A    
C58   I16   S    
C43   C92   A    
O5    Zn1   S    
O21   Zn6   S    
C11   C97   A    
C68   C82   A    
O19   Zn4   S    
C17   O14   A    
C17   C44   S    
C21   O9    A    
C5    C10   A    
C5    C71   A    
C18   C43   S    
O8    Zn4   S    
C49   I6    S    
C86   I24   S    
C21   C40   S    
O13   Zn5   S    
C60   C69   A    
C43   C66   A    
C82   C88   A    
C22   C39   S    
C6    C31   A    
C29   C70   A    
O1    Zn1   S    
C84   C93   A    
C57   C72   A    
C25   O3    A    
C73   C86   A    
C51   C78   A    
C37   C60   A    
O7    Zn3   S    
C3    C99   A    
C75   C88   A    
C87   I12   S    
C54   C68   A    
C7    C30   A    
C40   C59   A    
C90   I20   S    
C20   O13   A    
C41   C70   A    
C13   C102  A    
C23   O24   A    
O17   Zn1   S    
C65   H5    S    
C95   C101  A    
C56   I14   S    
C39   C48   A    
