data_mof_unit_7595.cif
_audit_creation_date              2012-12-10T19:46:25-0500
_audit_creation_method            fapswitch 2.2
_symmetry_space_group_name_H-M    P1
_symmetry_Int_Tables_number       1
_space_group_crystal_system       triclinic
_cell_length_a                    10.849562
_cell_length_b                    10.850759
_cell_length_c                    10.422771
_cell_angle_alpha                 90.680568
_cell_angle_beta                  90.350482
_cell_angle_gamma                 89.943556
_cell_volume                      1226.92093035

loop_
_atom_site_label
_atom_site_type_symbol
_atom_type_description
_atom_site_fract_x
_atom_site_fract_y
_atom_site_fract_z
_atom_type_partial_charge
C1    C     C_R   0.496939 0.261511 0.498959 0.818759
C2    C     C_R   0.699193 0.839473 0.749901 0.169580
C3    C     C_R   0.422006 0.115020 0.264101 0.081366
C4    C     C_R   0.578020 0.884978 0.735890 0.081362
C5    C     C_R   0.502327 0.117388 0.158903 -0.173261
C6    C     C_R   0.497730 0.882610 0.841117 -0.173265
C7    C     C_R   0.463248 0.165921 0.041896 -0.146980
C8    C     C_R   0.536844 0.834077 0.958113 -0.146963
C9    C     C_R   0.343720 0.211926 0.028725 -0.149469
C10   C     C_R   0.656377 0.788072 0.971245 -0.149452
C11   C     C_R   0.470929 0.931911 0.389707 -0.225195
C12   C     C_R   0.503058 0.738489 0.501041 0.818768
C13   C     C_R   0.529058 0.068088 0.610297 -0.225198
C14   C     C_R   0.504513 0.872018 0.502780 -0.058050
C15   C     C_R   0.495477 0.127981 0.497223 -0.058052
C16   C     C_R   0.261543 0.504179 0.499405 0.816632
C17   C     C_R   0.738457 0.495820 0.500595 0.816634
C18   C     C_R   0.535456 0.940828 0.614367 0.032332
C19   C     C_R   0.464537 0.059171 0.385636 0.032335
C20   C     C_1   0.500019 0.500010 0.071931 0.089574
C21   C     C_1   0.499981 0.499990 0.928068 0.089548
C22   C     C_R   0.225969 0.758096 0.164591 -0.128242
C23   C     C_R   0.872027 0.493737 0.501669 -0.066288
C24   C     C_R   0.774021 0.241891 0.835403 -0.128241
C25   C     C_R   0.175159 0.709652 0.276264 -0.091775
C26   C     C_R   0.824822 0.290344 0.723727 -0.091739
C27   C     C_R   0.117024 0.593994 0.272605 0.123378
C28   C     C_R   0.882979 0.405993 0.727393 0.123376
C29   C     C_R   0.110096 0.527938 0.156104 -0.141915
C30   C     C_R   0.889935 0.472033 0.843905 -0.141941
C31   C     C_R   0.162620 0.575862 0.045174 -0.145138
C32   C     C_R   0.837422 0.424099 0.954838 -0.145113
C33   C     C_R   0.220270 0.690987 0.049340 -0.117404
C34   C     C_R   0.127973 0.506260 0.498329 -0.066285
C35   C     C_R   0.779751 0.308981 0.950665 -0.117403
C36   C     C_R   0.932482 0.535466 0.392257 -0.197661
C37   C     C_R   0.067518 0.464528 0.607740 -0.197669
C38   C     C_R   0.940125 0.456599 0.610569 0.008565
C39   C     C_R   0.059876 0.543393 0.389428 0.008568
C40   C     C_R   0.262751 0.208931 0.132323 -0.135040
C41   C     C_R   0.737314 0.791066 0.867619 -0.135026
C42   C     C_R   0.300838 0.160523 0.250052 0.169587
Cu1   Cu    Cu3+1 0.500000 0.500000 0.625300 0.989488
Cu2   Cu    Cu3+1 0.500000 0.500000 0.374700 0.989498
H1    H     H_    0.595100 0.081311 0.167560 0.143325
H2    H     H_    0.819784 0.237625 0.634924 0.132616
H3    H     H_    0.064339 0.439375 0.151567 0.128283
H4    H     H_    0.935709 0.560589 0.848447 0.128273
H5    H     H_    0.169726 0.243011 0.120567 0.144008
H6    H     H_    0.830345 0.756988 0.879345 0.144011
H7    H     H_    0.260076 0.728349 0.963153 0.132818
H8    H     H_    0.739952 0.271611 0.036855 0.132815
H9    H     H_    0.158151 0.524023 0.955884 0.128864
H10   H     H_    0.841913 0.475923 0.044138 0.128864
H11   H     H_    0.880174 0.565846 0.309385 0.153926
H12   H     H_    0.404954 0.918689 0.832491 0.143320
H13   H     H_    0.119826 0.434146 0.690611 0.153924
H14   H     H_    0.313567 0.249323 0.937953 0.143107
H15   H     H_    0.686558 0.750677 0.062010 0.143104
H16   H     H_    0.525373 0.167335 0.961141 0.135526
H17   H     H_    0.474741 0.832671 0.038894 0.135527
H18   H     H_    0.446953 0.879370 0.304090 0.148533
H19   H     H_    0.553041 0.120629 0.695913 0.148532
H20   H     H_    0.269122 0.847948 0.167108 0.128758
H21   H     H_    0.730850 0.152045 0.832880 0.128740
H22   H     H_    0.180175 0.762383 0.365058 0.132637
I1    I     I_    0.170432 0.154407 0.400678 -0.425779
I2    I     I_    0.829557 0.845596 0.599236 -0.425779
N1    N     N_1   0.500010 0.499990 0.186410 -0.140769
N2    N     N_1   0.499990 0.500010 0.813590 -0.140776
O1    O     O_R   0.499990 0.319650 0.605810 -0.586856
O2    O     O_R   0.500010 0.680350 0.394190 -0.586850
O3    O     O_R   0.499990 0.319640 0.394190 -0.569272
O4    O     O_R   0.500010 0.680360 0.605810 -0.569276
O5    O     O_R   0.319640 0.500010 0.605810 -0.589368
O6    O     O_R   0.680360 0.499990 0.394190 -0.589362
O7    O     O_R   0.319650 0.500010 0.394190 -0.561005
O8    O     O_R   0.680350 0.499990 0.605810 -0.561009

loop_
_geom_bond_atom_site_label_1
_geom_bond_atom_site_label_2
_ccdc_geom_bond_type
C3    C42   A    
C12   O4    A    
C27   C29   A    
C34   C37   A    
C14   C18   A    
C11   H18   S    
Cu1   O8    S    
C15   C19   A    
C11   C19   A    
C1    O1    A    
C13   C18   A    
C29   H3    S    
C30   H4    S    
Cu2   O7    S    
C24   C26   A    
C16   O7    A    
C2    I2    S    
C11   C14   A    
C2    C41   A    
C40   H5    S    
C16   O5    A    
C9    H14   S    
Cu2   O6    S    
C16   C34   S    
C27   C39   S    
C22   C25   A    
C17   O6    A    
C31   C33   A    
C3    C19   S    
C1    C15   S    
C8    H17   S    
C4    C18   S    
Cu1   O4    S    
C40   C42   A    
C12   O2    A    
C10   C41   A    
C32   H10   S    
Cu1   O5    S    
C24   C35   A    
C34   C39   A    
C32   C35   A    
C4    C6    A    
C5    C7    A    
C6    C8    A    
C5    H1    S    
C9    C40   A    
C2    C4    A    
Cu1   Cu2   S    
C37   C38   A    
C13   H19   S    
C28   C38   S    
Cu2   N1    S    
C17   C23   S    
C31   H9    S    
C24   H21   S    
C12   C14   S    
C7    H16   S    
Cu1   N2    S    
C13   C15   A    
C42   I1    S    
C20   N1    T    
C25   C27   A    
C41   H6    S    
C7    C9    A    
C22   C33   A    
Cu1   O1    S    
C36   C39   A    
C25   H22   S    
C6    H12   S    
C3    C5    A    
C33   H7    S    
C23   C38   A    
C26   C28   A    
C21   N2    T    
C1    O3    A    
C28   C30   A    
C10   H15   S    
C29   C31   A    
C36   H11   S    
C30   C32   A    
C17   O8    A    
Cu2   O2    S    
Cu2   O3    S    
C26   H2    S    
C22   H20   S    
C20   C21   S    
C8    C10   A    
C23   C36   A    
C35   H8    S    
C37   H13   S    
