data_mof_unit_27618.cif
_audit_creation_date              2012-12-10T20:40:03-0500
_audit_creation_method            fapswitch 2.2
_symmetry_space_group_name_H-M    P1
_symmetry_Int_Tables_number       1
_space_group_crystal_system       triclinic
_cell_length_a                    23.423248
_cell_length_b                    10.692011
_cell_length_c                    9.855417
_cell_angle_alpha                 89.288126
_cell_angle_beta                  89.922119
_cell_angle_gamma                 90.332065
_cell_volume                      2467.97216822

loop_
_atom_site_label
_atom_site_type_symbol
_atom_type_description
_atom_site_fract_x
_atom_site_fract_y
_atom_site_fract_z
_atom_type_partial_charge
C1    C     C_R   0.502010 0.259713 0.500431 0.885815
C2    C     C_R   0.119715 0.616992 0.473176 0.504258
C3    C     C_R   0.238281 0.536020 0.617896 -0.141183
C4    C     C_R   0.389329 0.500806 0.500028 0.882066
C5    C     C_R   0.297437 0.534292 0.618064 -0.232500
C6    C     C_R   0.327138 0.503667 0.499669 -0.086310
C7    C     C_R   0.297117 0.476915 0.380304 -0.202139
C8    C     C_R   0.237589 0.478639 0.379262 0.236920
C9    C     C_R   0.208431 0.507969 0.499479 0.322352
C10   C     C_R   0.761996 0.497781 0.623751 -0.099334
C11   C     C_R   0.702765 0.496422 0.623544 -0.215012
C12   C     C_R   0.970256 0.285697 0.565822 -0.157196
C13   C     C_R   0.672972 0.501306 0.500045 -0.039378
C14   C     C_R   0.703160 0.507716 0.376934 -0.214492
C15   C     C_R   0.762427 0.509263 0.377562 -0.098533
C16   C     C_R   0.502289 0.740015 0.499165 0.887389
C17   C     C_R   0.791716 0.504215 0.500890 0.320251
C18   C     C_R   0.519107 0.061620 0.620476 0.145067
C19   C     C_R   0.512089 0.128316 0.499464 -0.106234
C20   C     C_R   0.517383 0.066233 0.375182 -0.212974
C21   C     C_R   0.517645 0.936891 0.374228 -0.215687
C22   C     C_R   0.512698 0.871079 0.497562 -0.108116
C23   C     C_R   0.029677 0.286422 0.566417 -0.159253
C24   C     C_R   0.519341 0.933851 0.619353 0.138668
C25   C     C_3   0.486165 0.922597 0.748357 -0.460566
C26   C     C_3   0.485783 0.064038 0.749663 -0.509167
C27   C     C_R   0.452584 0.462863 0.072560 0.176291
C28   C     C_R   0.610711 0.500271 0.499916 0.872748
C29   C     C_R   0.544778 0.547807 0.071112 -0.133583
C30   C     C_R   0.544808 0.547713 0.927151 -0.144394
C31   C     C_R   0.452279 0.463131 0.929578 0.216405
C32   C     C_3   0.425170 0.335758 0.929994 -0.087883
C33   C     C_3   0.425033 0.337800 0.084020 -0.495890
C34   C     C_R   0.059935 0.396844 0.535518 -0.015991
C35   C     C_R   0.880683 0.614209 0.471540 0.503688
C36   C     C_R   0.880556 0.396871 0.532551 0.504173
C37   C     C_R   0.940148 0.395404 0.534392 -0.015849
C38   C     C_R   0.970137 0.506822 0.503561 -0.021606
C39   C     C_R   0.940295 0.617425 0.471869 -0.015491
C40   C     C_3   0.365221 0.332097 0.868943 -0.838098
C41   C     C_3   0.205526 0.449161 0.251228 -0.884477
C42   C     C_R   0.030108 0.507562 0.504151 -0.020470
C43   C     C_R   0.060114 0.618939 0.473090 -0.016383
C44   C     C_R   0.030004 0.728755 0.442209 -0.159296
C45   C     C_R   0.970570 0.728001 0.441586 -0.157120
C46   C     C_R   0.119518 0.399692 0.534367 0.503027
H1    H     H_    0.948054 0.199050 0.589828 0.194699
H2    H     H_    0.511450 0.102675 0.834299 0.201103
H3    H     H_    0.581356 0.584506 0.124690 0.148714
H4    H     H_    0.051761 0.200307 0.590773 0.194386
H5    H     H_    0.581395 0.584354 0.872338 0.152851
H6    H     H_    0.454067 0.264619 0.888902 0.178895
H7    H     H_    0.381987 0.342937 0.131085 0.204988
H8    H     H_    0.453554 0.266434 0.130387 0.193137
H9    H     H_    0.052216 0.815380 0.418165 0.194214
H10   H     H_    0.948488 0.814100 0.417162 0.194643
H11   H     H_    0.215428 0.559080 0.709770 0.146647
H12   H     H_    0.680432 0.491452 0.719786 0.157986
H13   H     H_    0.319880 0.557862 0.710296 0.169182
H14   H     H_    0.319944 0.453947 0.288415 0.152532
H15   H     H_    0.784910 0.494027 0.719082 0.139697
H16   H     H_    0.367990 0.331631 0.756769 0.260367
H17   H     H_    0.343196 0.244648 0.901943 0.249629
H18   H     H_    0.339517 0.413288 0.901999 0.236951
H19   H     H_    0.177537 0.366332 0.268480 0.257632
H20   H     H_    0.178874 0.530318 0.220889 0.253803
H21   H     H_    0.234956 0.428304 0.166057 0.232385
H22   H     H_    0.681107 0.511736 0.280463 0.156483
H23   H     H_    0.785685 0.514023 0.282572 0.139772
H24   H     H_    0.516884 0.116163 0.278900 0.167799
H25   H     H_    0.517127 0.889678 0.277604 0.173371
H26   H     H_    0.443048 0.880686 0.734022 0.211246
H27   H     H_    0.511770 0.880485 0.831938 0.206052
H28   H     H_    0.442342 0.103602 0.735745 0.211814
N1    N     N_R   0.852415 0.505106 0.501473 -0.360565
N2    N     N_R   0.147747 0.508342 0.502623 -0.354621
N3    N     N_R   0.499610 0.499140 0.142800 -0.107024
N4    N     N_R   0.499610 0.499180 0.857150 -0.122255
O1    O     O_R   0.500010 0.316790 0.614690 -0.616856
O2    O     O_R   0.583850 0.500060 0.614640 -0.627183
O3    O     O_R   0.583840 0.500020 0.385300 -0.626901
O4    O     O_2   0.851050 0.719040 0.442411 -0.549028
O5    O     O_2   0.850806 0.291171 0.560722 -0.548052
O6    O     O_2   0.149202 0.295030 0.563970 -0.552092
O7    O     O_2   0.149587 0.722182 0.443554 -0.550956
O8    O     O_R   0.500000 0.316760 0.385350 -0.623904
O9    O     O_R   0.416160 0.499980 0.614700 -0.620686
O10   O     O_R   0.416150 0.499940 0.385360 -0.615303
O11   O     O_R   0.500000 0.683240 0.614650 -0.617027
O12   O     O_R   0.499990 0.683210 0.385310 -0.619730
Zn1   Zn    Zn3+2 0.500000 0.500020 0.653130 0.946933
Zn2   Zn    Zn3+2 0.500000 0.499980 0.346870 0.949758

loop_
_geom_bond_atom_site_label_1
_geom_bond_atom_site_label_2
_ccdc_geom_bond_type
C30   H5    S    
N3    Zn2   S    
C16   O12   A    
O9    Zn1   S    
C19   C20   A    
C18   C26   S    
C46   N2    A    
C7    C8    A    
C41   H21   S    
C4    O9    A    
C29   H3    S    
C27   C33   S    
C12   C23   A    
C35   N1    A    
C29   C30   A    
C40   H17   S    
C21   H25   S    
C18   C24   A    
C36   C37   A    
C38   C42   A    
C5    C6    A    
C10   C17   A    
C1    O8    A    
C40   H16   S    
C2    O7    S    
C18   C19   A    
C12   C37   A    
C32   H6    S    
O3    Zn2   S    
O10   Zn2   S    
C45   H10   S    
C8    C9    A    
C34   C42   A    
C13   C28   S    
C34   C46   A    
C9    N2    S    
O11   Zn1   S    
C11   H12   S    
O1    Zn1   S    
C26   H2    S    
C39   C45   A    
C16   O11   A    
C13   C14   A    
C20   H24   S    
C12   H1    S    
C35   O4    S    
C33   H7    S    
C15   H23   S    
C1    C19   S    
C5    H13   S    
C27   C31   A    
C8    C41   S    
C4    C6    S    
C23   H4    S    
C41   H19   S    
C3    C5    A    
C25   C26   S    
C35   C39   A    
C43   C44   A    
C37   C38   A    
C3    C9    A    
C36   N1    A    
O12   Zn2   S    
C31   C32   S    
C2    C43   A    
C23   C34   A    
C25   H26   S    
C24   C25   S    
C41   H20   S    
C46   O6    S    
C3    H11   S    
C1    O1    A    
C22   C24   A    
C10   H15   S    
C42   C43   A    
C7    H14   S    
C2    N2    A    
C44   C45   A    
C31   N4    A    
C33   H8    S    
C15   C17   A    
C16   C22   S    
C28   O3    A    
C27   N3    A    
C6    C7    A    
C4    O10   A    
N4    Zn1   S    
C40   H18   S    
C32   C33   S    
O2    Zn1   S    
O8    Zn2   S    
C11   C13   A    
C44   H9    S    
C38   C39   A    
C26   H28   S    
C25   H27   S    
C32   C40   S    
C28   O2    A    
C10   C11   A    
C30   N4    A    
C29   N3    A    
C20   C21   A    
C17   N1    S    
C14   H22   S    
C14   C15   A    
C36   O5    S    
C21   C22   A    
