data_mof_unit_54035.cif
_audit_creation_date              2012-12-11T16:22:23-0500
_audit_creation_method            fapswitch 2.2
_symmetry_space_group_name_H-M    P1
_symmetry_Int_Tables_number       1
_space_group_crystal_system       triclinic
_cell_length_a                    19.593146
_cell_length_b                    6.910595
_cell_length_c                    17.831049
_cell_angle_alpha                 90.030392
_cell_angle_beta                  108.282924
_cell_angle_gamma                 90.020258
_cell_volume                      2292.45093875

loop_
_atom_site_label
_atom_site_type_symbol
_atom_type_description
_atom_site_fract_x
_atom_site_fract_y
_atom_site_fract_z
_atom_type_partial_charge
O1    O     O_R   0.561700 0.369960 0.440190 -0.509924
O2    O     O_R   0.061700 0.630040 0.940190 -0.511713
O3    O     O_R   0.413790 0.033680 0.407460 -0.546060
O4    O     O_R   0.913790 0.966320 0.907460 -0.546983
O5    O     O_R   0.438300 0.869760 0.559810 -0.518889
O6    O     O_R   0.938300 0.130240 0.059810 -0.510512
C1    C     C_R   0.386732 0.204071 0.384445 0.767516
C2    C     C_R   0.886361 0.795986 0.885183 0.771687
O7    O     O_R   0.559630 0.039830 0.430710 -0.544938
O8    O     O_R   0.059630 0.960170 0.930710 -0.548864
O9    O     O_R   0.585190 0.875950 0.583220 -0.508265
O10   O     O_R   0.085190 0.124050 0.083220 -0.514430
C3    C     C_R   0.582514 0.209317 0.417034 0.724300
C4    C     C_R   0.080160 0.790306 0.914449 0.728588
O11   O     O_R   0.414810 0.363770 0.416780 -0.546330
O12   O     O_R   0.914810 0.636230 0.916780 -0.544936
O13   O     O_3   0.508210 0.205480 0.550010 -0.362391
O14   O     O_3   0.008210 0.794520 0.050010 -0.370473
V1    V     V_3+5 0.498480 0.928140 0.490720 1.471742
V2    V     V_3+5 0.998480 0.071860 0.990720 1.462375
O15   O     O_R   0.586210 0.546600 0.592540 -0.549376
O16   O     O_R   0.086210 0.453400 0.092540 -0.564415
C5    C     C_R   0.613161 0.717032 0.616160 0.768353
C6    C     C_R   0.114289 0.283791 0.114591 0.785330
O17   O     O_R   0.440370 0.540460 0.569290 -0.546678
O18   O     O_R   0.940370 0.459540 0.069290 -0.554597
C7    C     C_R   0.418047 0.709740 0.583720 0.692736
C8    C     C_R   0.920367 0.290045 0.086222 0.714365
V3    V     V_3+5 0.501520 0.428910 0.509280 1.464421
V4    V     V_3+5 0.001520 0.571090 0.009280 1.427104
O19   O     O_3   0.491790 0.701440 0.449990 -0.369389
O20   O     O_3   0.991790 0.298560 0.949990 -0.369129
C9    C     C_R   0.285246 0.905646 0.683270 -0.238955
C10   C     C_R   0.822079 0.096382 0.225134 -0.250638
H1    H     H_    0.258340 0.040233 0.687068 0.104438
H2    H     H_    0.818187 0.964660 0.256226 0.099556
C11   C     C_R   0.329203 0.895564 0.634164 0.430991
C12   C     C_R   0.871011 0.106650 0.181323 0.413641
C13   C     C_R   0.367901 0.723035 0.631786 -0.140972
C14   C     C_R   0.873745 0.277187 0.138053 -0.122945
C15   C     C_R   0.357566 0.561812 0.675141 -0.244136
C16   C     C_R   0.831139 0.436346 0.144059 -0.244276
H3    H     H_    0.385759 0.427533 0.674132 0.178263
H4    H     H_    0.832790 0.568960 0.112311 0.167384
C17   C     C_R   0.311534 0.571799 0.721274 -0.150003
C18   C     C_R   0.784396 0.425542 0.189194 -0.156592
H5    H     H_    0.305830 0.445002 0.754449 0.121338
H6    H     H_    0.751342 0.550117 0.190633 0.119625
C19   C     C_R   0.274877 0.744052 0.726138 0.061778
C20   C     C_R   0.778729 0.254980 0.229808 0.072049
C21   C     C_R   0.180772 0.596883 0.777768 -0.248873
C22   C     C_R   0.718625 0.403657 0.321662 -0.237237
H7    H     H_    0.184784 0.465707 0.746375 0.098373
H8    H     H_    0.746396 0.537668 0.319159 0.104949
C23   C     C_R   0.131037 0.606962 0.820598 0.414656
C24   C     C_R   0.673812 0.393365 0.369829 0.432273
C25   C     C_R   0.127910 0.777296 0.863904 -0.125767
C26   C     C_R   0.633854 0.222079 0.370355 -0.146433
C27   C     C_R   0.171495 0.935686 0.859565 -0.234786
C28   C     C_R   0.644334 0.061330 0.326788 -0.236483
H9    H     H_    0.169826 0.067692 0.891737 0.175007
H10   H     H_    0.615522 0.927554 0.326772 0.175026
C29   C     C_R   0.219112 0.924925 0.815468 -0.161721
C30   C     C_R   0.691189 0.071327 0.281600 -0.149413
H11   H     H_    0.252725 0.049055 0.815099 0.121057
H12   H     H_    0.696772 0.945177 0.247972 0.120528
C31   C     C_R   0.224702 0.755153 0.774276 0.072203
C32   C     C_R   0.728625 0.243059 0.278004 0.060619
C33   C     C_2   0.707959 0.904156 0.718306 0.462082
C34   C     C_2   0.228348 0.119784 0.189516 0.458330
C35   C     C_2   0.680859 0.732287 0.683497 -0.415978
C36   C     C_2   0.180613 0.267045 0.183479 -0.387722
H13   H     H_    0.709303 0.597946 0.702678 0.106941
H14   H     H_    0.187288 0.372398 0.230174 0.081207
C37   C     C_2   0.780399 0.922375 0.779505 -0.243245
C38   C     C_2   0.293643 0.091813 0.261552 -0.229485
C39   C     C_2   0.817636 0.773872 0.820946 -0.373367
C40   C     C_2   0.319672 0.226807 0.317449 -0.371182
H15   H     H_    0.802359 0.067456 0.792473 0.150265
H16   H     H_    0.324312 0.959241 0.266722 0.141080
H17   H     H_    0.796364 0.628161 0.810466 0.134239
H18   H     H_    0.294266 0.367474 0.312159 0.128299
O21   O     O_3   0.338686 0.057832 0.592592 -0.571277
C41   C     C_3   0.273384 0.114379 0.535423 0.072528
H19   H     H_    0.283076 0.257507 0.512223 0.140142
H20   H     H_    0.229138 0.137035 0.561117 0.103378
C42   C     C_3   0.250126 0.971231 0.465997 -0.332328
H21   H     H_    0.295604 0.944908 0.442787 0.207056
H22   H     H_    0.234741 0.830716 0.486391 0.173984
C43   C     C_3   0.186187 0.048738 0.399515 -0.835929
H23   H     H_    0.138592 0.064320 0.420219 0.228277
H24   H     H_    0.172882 0.946538 0.348920 0.237078
H25   H     H_    0.199122 0.191637 0.378922 0.231054
O22   O     O_3   0.913484 0.949143 0.175773 -0.566771
C44   C     C_3   0.947574 0.863903 0.250288 0.047834
H26   H     H_    0.910657 0.756829 0.263743 0.131693
H27   H     H_    0.964046 0.974034 0.298473 0.107039
C45   C     C_3   0.015092 0.757874 0.247131 -0.244853
H28   H     H_    0.000688 0.654308 0.197072 0.218458
H29   H     H_    0.053964 0.864373 0.237288 0.184096
C46   C     C_3   0.050536 0.646125 0.323208 -0.897205
H30   H     H_    0.064766 0.745363 0.374812 0.241218
H31   H     H_    0.100376 0.575672 0.319651 0.229041
H32   H     H_    0.013601 0.532231 0.331686 0.235627
O23   O     O_3   0.088128 0.449583 0.825314 -0.565488
C47   C     C_3   0.056098 0.361034 0.750973 0.047605
H33   H     H_    0.094009 0.253662 0.739682 0.131338
H34   H     H_    0.040583 0.469099 0.702018 0.106926
C48   C     C_3   0.988132 0.254642 0.752509 -0.246615
H35   H     H_    0.001463 0.153580 0.803321 0.218333
H36   H     H_    0.948364 0.361305 0.760119 0.185478
C49   C     C_3   0.954843 0.139083 0.676860 -0.886779
H37   H     H_    0.941677 0.235778 0.624552 0.238608
H38   H     H_    0.904626 0.068407 0.679210 0.238404
H39   H     H_    0.992685 0.025118 0.670621 0.233466
O24   O     O_3   0.664984 0.554364 0.412486 -0.570230
C50   C     C_3   0.730194 0.604913 0.471217 0.062614
H40   H     H_    0.721621 0.747992 0.495297 0.146062
H41   H     H_    0.775446 0.625083 0.446864 0.105018
C51   C     C_3   0.750646 0.458308 0.539446 -0.321819
H42   H     H_    0.704422 0.436202 0.561857 0.215159
H43   H     H_    0.764155 0.316694 0.518145 0.179104
C52   C     C_3   0.815309 0.528116 0.606989 -0.839985
H44   H     H_    0.863380 0.539567 0.586898 0.230042
H45   H     H_    0.826698 0.423500 0.656608 0.239891
H46   H     H_    0.804344 0.671785 0.628642 0.236748
O25   O     O_3   0.670994 0.074646 0.690840 -0.561263
C53   C     C_3   0.646178 0.159123 0.749917 0.082720
H47   H     H_    0.634624 0.313768 0.734105 0.139806
H48   H     H_    0.687246 0.157992 0.809547 0.094686
C54   C     C_3   0.576506 0.062047 0.752766 -0.304001
H49   H     H_    0.536739 0.059088 0.692726 0.229072
H50   H     H_    0.587802 0.910478 0.773761 0.165810
C55   C     C_3   0.543705 0.170238 0.807730 -0.834248
H51   H     H_    0.581988 0.173384 0.868716 0.232019
H52   H     H_    0.493731 0.095794 0.808666 0.236947
H53   H     H_    0.529965 0.320853 0.786599 0.226144
O26   O     O_3   0.220190 0.009990 0.121543 -0.569942
C56   C     C_3   0.231146 0.809581 0.136278 0.092085
H54   H     H_    0.183818 0.733464 0.096077 0.152081
H55   H     H_    0.234025 0.763787 0.197141 0.084361
C57   C     C_3   0.297814 0.745900 0.115405 -0.335016
H56   H     H_    0.290944 0.785022 0.052973 0.209776
H57   H     H_    0.346033 0.822632 0.153607 0.193220
C58   C     C_3   0.309957 0.528366 0.125415 -0.803110
H58   H     H_    0.318945 0.486925 0.187855 0.234536
H59   H     H_    0.358204 0.487407 0.109028 0.233053
H60   H     H_    0.262859 0.448543 0.086566 0.241029

loop_
_geom_bond_atom_site_label_1
_geom_bond_atom_site_label_2
_ccdc_geom_bond_type
C12   C14   A    
C42   H21   S    
C29   H11   S    
C46   H30   S    
O13   V3    S    
C44   H26   S    
C41   C42   S    
O4    C2    A    
C54   C55   S    
V1    O19   S    
C53   H47   S    
C55   H53   S    
C49   H38   S    
C58   H58   S    
C44   C45   S    
C52   H44   S    
C13   C15   A    
O9    V1    S    
C47   H34   S    
C23   O23   S    
C30   C32   A    
C38   C40   D    
O3    C1    A    
C48   H36   S    
C9    H1    S    
C56   C57   S    
C52   H45   S    
C47   H33   S    
C8    C14   S    
C26   C28   A    
O24   C50   S    
C28   H10   S    
C16   C18   A    
C33   C35   D    
O7    C3    A    
C1    O11   A    
O5    C7    A    
O15   C5    A    
O7    V1    S    
O6    C8    A    
O8    V2    S    
O3    V1    S    
O14   V4    S    
C39   H17   S    
O16   V4    S    
C21   C23   A    
C22   C32   A    
C51   C52   S    
C14   C16   A    
C2    O12   A    
C15   H3    S    
C57   C58   S    
O10   V2    S    
C16   H4    S    
C20   C32   S    
C49   H37   S    
C58   H59   S    
C22   H8    S    
O11   V3    S    
C18   H6    S    
C17   H5    S    
C6    C36   S    
O17   V3    S    
C29   C31   A    
C10   C20   A    
C27   H9    S    
C5    C35   S    
C41   H19   S    
C36   H14   S    
O8    C4    A    
C48   C49   S    
C7    C13   S    
C35   H13   S    
C52   H46   S    
C55   H52   S    
C3    C26   S    
O15   V3    S    
C9    C11   A    
C21   H7    S    
C30   H12   S    
C40   H18   S    
C43   H24   S    
O21   C41   S    
C17   C19   A    
V3    O19   S    
C12   O22   S    
O1    V3    S    
C24   O24   S    
C21   C31   A    
C37   C39   D    
C1    C40   S    
O18   V4    S    
C46   H32   S    
C45   H29   S    
C23   C25   A    
C34   C38   S    
C2    C39   S    
O16   C6    A    
C50   C51   S    
O1    C3    A    
O12   V4    S    
O25   C53   S    
C53   C54   S    
C58   H60   S    
C51   H42   S    
C51   H43   S    
C43   H25   S    
V2    O20   S    
C4    C25   S    
C18   C20   A    
C19   C31   S    
C10   C12   A    
O18   C8    A    
C38   H16   S    
C41   H20   S    
C54   H50   S    
C53   H48   S    
C56   H54   S    
C44   H27   S    
C34   O26   S    
C55   H51   S    
O5    V1    S    
O17   C7    A    
C45   C46   S    
O6    V2    S    
O23   C47   S    
O10   C6    A    
C27   C29   A    
C28   C30   A    
O2    V4    S    
C50   H41   S    
C11   C13   A    
C50   H40   S    
V4    O20   S    
C56   H55   S    
C43   H23   S    
C37   H15   S    
O9    C5    A    
O13   V1    S    
C10   H2    S    
C24   C26   A    
C33   C37   S    
O14   V2    S    
O22   C44   S    
O2    C4    A    
C25   C27   A    
O26   C56   S    
O4    V2    S    
C22   C24   A    
C33   O25   S    
C46   H31   S    
C45   H28   S    
C42   C43   S    
C42   H22   S    
C15   C17   A    
C57   H56   S    
C11   O21   S    
C34   C36   D    
C48   H35   S    
C9    C19   A    
C49   H39   S    
C57   H57   S    
C54   H49   S    
C47   C48   S    
