data_mof_unit_42606.cif
_audit_creation_date              2013-03-05T15:59:10-0500
_audit_creation_method            fapswitch 2.2
_symmetry_space_group_name_H-M    P1
_symmetry_Int_Tables_number       1
_space_group_crystal_system       triclinic
_cell_length_a                    12.71367
_cell_length_b                    13.067222
_cell_length_c                    15.69112
_cell_angle_alpha                 92.301175
_cell_angle_beta                  101.312787
_cell_angle_gamma                 83.436962
_cell_volume                      2538.98285867

loop_
_atom_site_label
_atom_site_type_symbol
_atom_site_description
_atom_site_fract_x
_atom_site_fract_y
_atom_site_fract_z
_atom_type_partial_charge
O1    O     O_R   0.366740 0.627160 0.478850 -0.563222
O2    O     O_R   0.544830 0.662520 0.507140 -0.640072
C1    C     C_R   0.440094 0.690953 0.490413 0.974944
O3    O     O_R   0.410920 0.482310 0.608710 -0.612619
O4    O     O_R   0.589010 0.517670 0.637000 -0.580540
C2    C     C_R   0.500674 0.499029 0.661063 0.922831
Zn1   Zn    Zn3+2 0.381090 0.476390 0.481110 1.057263
Zn2   Zn    Zn3+2 0.618910 0.523610 0.518890 1.036320
O5    O     O_R   0.455170 0.337480 0.492860 -0.602647
O6    O     O_R   0.633260 0.372840 0.521150 -0.609146
O7    O     O_R   0.410990 0.482330 0.363000 -0.588898
O8    O     O_R   0.589080 0.517690 0.391290 -0.571385
C3    C     C_R   0.559586 0.308966 0.511933 0.906106
C4    C     C_R   0.499336 0.500475 0.338886 0.921394
C5    C     C_3   0.384522 0.520950 0.929176 -0.043187
C6    C     C_3   0.580683 0.565872 0.967387 0.099620
C7    C     C_3   0.565161 0.574726 0.063079 -0.528631
H1    H     H_    0.557935 0.643453 0.939049 0.223026
H2    H     H_    0.526884 0.653381 0.075266 0.259806
H3    H     H_    0.643493 0.568168 0.109770 0.260466
C8    C     C_1   0.498040 0.498918 0.249827 0.025559
C9    C     C_3   0.504509 0.488009 0.917060 -0.252109
C10   C     C_3   0.375434 0.516581 0.028296 0.490631
C11   C     C_3   0.493762 0.492165 0.081798 -0.164333
C12   C     C_3   0.547130 0.384397 0.055613 0.129421
C13   C     C_3   0.542344 0.375465 0.954286 0.452053
C14   C     C_1   0.495975 0.496206 0.174098 0.176454
C15   C     C_1   0.504657 0.491269 0.825403 0.166874
C16   C     C_1   0.502910 0.495137 0.749983 0.038074
H4    H     H_    0.336082 0.463683 0.891199 0.209954
H5    H     H_    0.632824 0.381355 0.089539 0.205059
C17   C     C_R   0.682837 0.077809 0.643723 -0.072328
H6    H     H_    0.729462 0.229734 0.636414 0.187314
H7    H     H_    0.665942 0.897219 0.710311 0.223365
H8    H     H_    0.746645 0.057383 0.698973 0.196574
C18   C     C_R   0.592315 0.201958 0.535578 -0.065889
C19   C     C_R   0.314607 0.833105 0.415719 0.239717
C20   C     C_R   0.279606 0.938044 0.406830 0.239574
C21   C     C_R   0.339784 0.009504 0.457245 0.262068
C22   C     C_R   0.438674 0.975734 0.512320 -0.063000
C23   C     C_R   0.456584 0.872969 0.538839 -0.105351
C24   C     C_R   0.520197 0.040229 0.541809 0.134560
C25   C     C_R   0.604698 0.010564 0.612206 0.071990
C26   C     C_R   0.606866 0.916353 0.651802 -0.223867
C27   C     C_R   0.531338 0.847770 0.617426 0.332821
C28   C     C_R   0.522656 0.131088 0.499195 -0.130881
C29   C     C_R   0.674986 0.174711 0.606817 -0.149413
C30   C     C_R   0.401078 0.799999 0.484001 -0.214616
H9    H     H_    0.466859 0.150468 0.439177 0.197465
C31   C     C_R   0.097139 0.329434 0.393949 0.388004
H10   H     H_    0.253546 0.331122 0.362252 0.192528
H11   H     H_    0.910824 0.268021 0.406028 0.241994
N1    N     N_R   0.222200 0.444690 0.455710 -0.144291
C32   C     C_R   0.796784 0.638237 0.596279 -0.017244
C33   C     C_R   0.900889 0.665940 0.621022 0.381166
C34   C     C_R   0.985686 0.608113 0.590981 -0.166409
C35   C     C_R   0.966892 0.521768 0.535407 -0.040686
C36   C     C_R   0.859017 0.494968 0.512247 0.090741
C37   C     C_R   0.049407 0.465130 0.496961 -0.021258
C38   C     C_R   0.026140 0.375237 0.446528 -0.020807
C39   C     C_R   0.928090 0.338036 0.442869 -0.181166
C40   C     C_R   0.841361 0.405089 0.458290 0.297627
C41   C     C_R   0.153015 0.495808 0.502590 0.016172
C42   C     C_R   0.195735 0.366591 0.399760 0.062721
N2    N     N_R   0.776960 0.554780 0.543830 -0.156660
H12   H     H_    0.181025 0.559411 0.543241 0.156809
H13   H     H_    0.730985 0.683055 0.619378 0.188499
H14   H     H_    0.065167 0.632090 0.612315 0.194761
Cl1   Cl    Cl    0.313522 0.637197 0.066336 -0.371408
N3    N     N_R   0.306506 0.437625 0.043876 0.257799
O9    O     O_R   0.248921 0.389223 0.980509 -0.255349
O10   O     O_R   0.289416 0.426648 0.121992 -0.266170
Cl2   Cl    Cl    0.252738 0.746028 0.337154 -0.422153
Cl3   Cl    Cl    0.276382 0.134911 0.468940 -0.554838
N4    N     N_R   0.186563 0.972540 0.343182 0.288661
O11   O     O_R   0.094046 0.939143 0.343371 -0.241200
O12   O     O_R   0.196616 0.030342 0.280319 -0.220084
N5    N     N_R   0.337987 0.620085 0.888032 0.266543
O13   O     O_R   0.255798 0.621653 0.823684 -0.282292
O14   O     O_R   0.376315 0.706586 0.914089 -0.275776
N6    N     N_R   0.520996 0.762031 0.668958 0.197159
O15   O     O_R   0.601690 0.725723 0.728309 -0.361016
O16   O     O_R   0.425602 0.735737 0.670189 -0.371397
Cl4   Cl    Cl    0.062325 0.233131 0.314706 -0.374802
Cl5   Cl    Cl    0.924861 0.773723 0.689530 -0.464332
N7    N     N_R   0.752033 0.401969 0.388409 0.233378
O17   O     O_R   0.751755 0.458212 0.321602 -0.359152
O18   O     O_R   0.704514 0.318034 0.374391 -0.383385
N8    N     N_R   0.694157 0.538185 0.959429 0.250346
O19   O     O_R   0.724088 0.557037 0.887445 -0.267407
O20   O     O_R   0.767019 0.500042 0.023844 -0.281307
Cl6   Cl    Cl    0.449726 0.286051 0.902471 -0.404054
N9    N     N_R   0.648722 0.333048 0.935388 0.257901
O21   O     O_R   0.717043 0.276456 0.992126 -0.245429
O22   O     O_R   0.664031 0.328197 0.855633 -0.327656
Cl7   Cl    Cl    0.500860 0.276688 0.100507 -0.344251

loop_
_geom_bond_atom_site_label_1
_geom_bond_atom_site_label_2
_geom_bond_distance
_ccdc_geom_bond_type
C12   H5    1.111848 S    
C33   C34   1.392844 A    
C36   C40   1.432637 A    
N9    O21   1.302537 A    
C31   C42   1.380618 A    
C10   Cl1   1.812504 S    
C11   C14   1.441983 S    
N4    O11   1.301068 A    
N6    O15   1.301635 A    
C31   Cl4   1.763890 S    
C32   N2    1.356283 A    
Zn1   O7    1.969736 S    
C40   N7    1.418520 S    
C28   H9    1.081774 S    
C4    C8    1.393652 S    
C15   C16   1.182273 T    
H11   C39   1.083084 S    
C20   C21   1.396296 A    
O7    C4    1.302226 A    
N5    O14   1.301117 A    
C35   C37   1.430795 A    
C5    N5    1.478860 S    
C13   Cl6   1.809782 S    
C1    C30   1.454970 S    
C7    H3    1.111373 S    
C34   C35   1.411175 A    
C18   C29   1.402306 A    
C24   C28   1.392173 A    
C21   Cl3   1.760899 S    
O5    C3    1.315566 A    
O1    Zn1   1.958806 S    
C17   C25   1.405527 A    
C5    C9    1.582911 S    
C6    C7    1.550478 S    
C10   C11   1.576725 S    
C18   C28   1.383655 A    
N3    O9    1.301705 A    
N8    O20   1.302189 A    
C13   N9    1.482244 S    
C22   C24   1.406699 A    
C8    C14   1.182603 T    
C41   H12   1.077208 S    
C37   C38   1.416509 A    
N9    O22   1.301684 A    
C9    C15   1.440926 S    
C10   N3    1.484310 S    
O3    Zn1   1.963397 S    
N6    O16   1.301650 A    
C6    N8    1.474971 S    
C20   N4    1.432023 S    
O2    Zn2   1.945203 S    
C7    C11   1.558231 S    
C17   H8    1.083539 S    
H7    C26   1.083728 S    
C11   C12   1.567408 S    
C3    C18   1.454009 S    
O3    C2    1.303642 A    
C21   C22   1.414128 A    
N5    O13   1.301768 A    
C32   H13   1.078927 S    
C12   C13   1.579233 S    
C34   H14   1.078220 S    
N1    C42   1.347626 A    
C38   C39   1.379049 A    
O1    C1    1.302584 A    
C33   Cl5   1.755016 S    
C25   C26   1.396161 A    
C19   C20   1.396182 A    
C36   N2    1.389298 A    
Zn2   O8    1.963397 S    
C19   C30   1.417780 A    
N4    O12   1.300441 A    
Zn2   O6    1.958808 S    
C22   C23   1.402162 A    
O8    C4    1.305488 A    
H6    C29   1.083127 S    
C17   C29   1.398568 A    
C24   C25   1.413582 A    
Zn1   N1    2.067195 S    
C26   C27   1.403858 A    
C5    H4    1.104501 S    
Zn1   O5    1.945204 S    
C19   Cl2   1.773318 S    
C32   C33   1.389319 A    
C6    C9    1.567605 S    
N7    O17   1.303401 A    
C27   N6    1.440316 S    
H10   C42   1.082289 S    
O6    C3    1.307959 A    
O4    Zn2   1.969738 S    
C37   C41   1.405636 A    
C31   C38   1.408079 A    
O2    C1    1.318200 A    
N1    C41   1.356864 A    
C35   C36   1.428181 A    
O4    C2    1.303646 A    
C5    C10   1.585790 S    
C7    H2    1.111820 S    
C23   C30   1.413252 A    
N7    O18   1.302418 A    
C39   C40   1.381617 A    
Zn2   N2    2.054871 S    
C2    C16   1.392807 S    
C12   Cl7   1.804079 S    
C6    H1    1.108061 S    
C9    C13   1.591346 S    
C23   C27   1.426032 A    
N3    O10   1.302269 A    
N8    O19   1.301402 A    
