data_mof_unit_51030.cif
_audit_creation_date              2012-12-10T16:56:33-0500
_audit_creation_method            fapswitch 2.2
_symmetry_space_group_name_H-M    P1
_symmetry_Int_Tables_number       1
_space_group_crystal_system       triclinic
_cell_length_a                    10.773349
_cell_length_b                    10.91501
_cell_length_c                    9.680702
_cell_angle_alpha                 90.310509
_cell_angle_beta                  89.715354
_cell_angle_gamma                 89.898363
_cell_volume                      1138.33287131

loop_
_atom_site_label
_atom_site_type_symbol
_atom_type_description
_atom_site_fract_x
_atom_site_fract_y
_atom_site_fract_z
_atom_type_partial_charge
C1    C     C_R   0.510927 0.265847 0.499273 0.855037
C2    C     C_3   0.877538 0.501552 0.499300 0.050840
C3    C     C_3   0.926839 0.609383 0.592352 -0.174033
C4    C     C_3   0.930325 0.516486 0.350181 -0.308389
C5    C     C_2   0.554176 0.928701 0.404781 -0.277680
C6    C     C_2   0.487750 0.868438 0.500872 0.344487
C7    C     C_2   0.552043 0.062516 0.388491 0.031883
C8    C     C_2   0.534039 0.134632 0.500814 -0.269928
C9    C     C_2   0.433387 0.424950 0.922068 -0.066206
C10   C     C_2   0.429205 0.428679 0.077830 -0.037023
C11   C     C_R   0.259944 0.498629 0.500226 0.783531
C12   C     C_R   0.495752 0.734956 0.500630 0.800635
C13   C     C_R   0.739789 0.500593 0.499547 0.817991
C14   C     C_3   0.070848 0.377296 0.564598 -0.174931
C15   C     C_3   0.925974 0.378361 0.562273 -0.267599
C16   C     C_3   0.071927 0.613030 0.585392 -0.212668
C17   C     C_3   0.071922 0.505286 0.350409 -0.361414
C18   C     C_3   0.121775 0.499598 0.501356 -0.002024
Cu1   Cu    Cu3+1 0.500030 0.500020 0.638630 0.948369
Cu2   Cu    Cu3+1 0.499970 0.499980 0.361370 0.995545
H1    H     H_    0.903849 0.606867 0.307096 0.225943
H2    H     H_    0.613281 0.877448 0.333544 0.162977
H3    H     H_    0.536349 0.094851 0.603010 0.173662
H4    H     H_    0.376951 0.356635 0.870666 0.196094
H5    H     H_    0.548466 0.566873 0.894129 0.189128
H6    H     H_    0.364810 0.367510 0.129253 0.152798
H7    H     H_    0.106548 0.300974 0.498334 0.202535
H8    H     H_    0.563602 0.552958 0.105907 0.192748
H9    H     H_    0.890113 0.373904 0.670393 0.104577
H10   H     H_    0.105717 0.604838 0.693347 0.077500
H11   H     H_    0.901558 0.586339 0.700899 0.084122
H12   H     H_    0.112882 0.582669 0.291864 0.222659
H13   H     H_    0.099304 0.420684 0.292975 0.183829
H14   H     H_    0.891400 0.446422 0.278874 0.212066
N1    N     N_2   0.498630 0.498660 0.846910 -0.291535
N2    N     N_2   0.498590 0.498630 0.153040 -0.271919
O1    O     O_R   0.500020 0.321960 0.617040 -0.573846
O2    O     O_R   0.499980 0.321920 0.382900 -0.536338
O3    O     O_R   0.317710 0.500000 0.617070 -0.580352
O4    O     O_R   0.317670 0.499960 0.382930 -0.585379
O5    O     O_R   0.500020 0.678080 0.617100 -0.599605
O6    O     O_R   0.499980 0.678040 0.382960 -0.581279
O7    O     O_R   0.682330 0.500040 0.617070 -0.605076
O8    O     O_R   0.682290 0.500000 0.382930 -0.556143
C19   C     C_2   0.116545 0.352160 0.709421 0.354661
H15   H     H_    0.092454 0.413345 0.794090 0.069896
O9    O     O_2   0.179441 0.261514 0.732768 -0.545013
C20   C     C_2   0.125745 0.733605 0.534833 0.364929
H16   H     H_    0.188568 0.784114 0.600768 0.098734
O10   O     O_2   0.099667 0.775336 0.421855 -0.504763
C21   C     C_2   0.865904 0.733657 0.570053 0.421136
H17   H     H_    0.879447 0.805387 0.646550 0.061078
O11   O     O_2   0.803153 0.755578 0.468517 -0.570202
O12   O     O_3   0.396210 0.928701 0.577462 -0.574805
C22   C     C_3   0.409754 0.905693 0.720055 -0.318119
H18   H     H_    0.508768 0.903927 0.752972 0.148653
H19   H     H_    0.362338 0.819361 0.749166 0.173615
H20   H     H_    0.363631 0.980940 0.778338 0.209016
C23   C     C_2   0.580413 0.108315 0.247762 0.420745
H21   H     H_    0.545807 0.058568 0.158588 0.043161
O13   O     O_2   0.650021 0.194966 0.229640 -0.500175
C24   C     C_2   0.874042 0.265353 0.491377 0.416032
H22   H     H_    0.800797 0.213677 0.541543 0.060853
O14   O     O_2   0.911034 0.232495 0.377611 -0.505023

loop_
_geom_bond_atom_site_label_1
_geom_bond_atom_site_label_2
_ccdc_geom_bond_type
C2    C4    S    
C22   H18   S    
C5    C7    S    
C9    H4    S    
C12   O5    A    
C2    C15   S    
C14   H7    S    
C1    C8    S    
Cu2   O2    S    
C9    C10   S    
C14   C18   S    
Cu2   O6    S    
Cu1   Cu2   S    
C1    O1    A    
C10   H6    S    
C13   O7    A    
C20   O10   D    
C17   C18   S    
C23   H21   S    
C11   C18   S    
C5    H2    S    
Cu1   N1    S    
C19   H15   S    
C13   O8    A    
C3    H11   S    
C4    H1    S    
C16   C20   S    
C24   H22   S    
C17   H13   S    
C1    O2    A    
H5    N1    S    
C5    C6    D    
C4    C17   S    
Cu1   O3    S    
C7    C23   S    
C20   H16   S    
Cu2   O8    S    
C15   C24   S    
Cu1   O7    S    
C15   H9    S    
C14   C19   S    
C2    C3    S    
C22   H19   S    
C6    C12   S    
C11   O4    A    
Cu2   O4    S    
C4    H14   S    
C23   O13   D    
C17   H12   S    
C3    C21   S    
C12   O6    A    
C21   H17   S    
Cu2   N2    S    
C11   O3    A    
C7    C8    D    
C8    H3    S    
H8    N2    S    
C16   C18   S    
C19   O9    D    
C24   O14   D    
C9    N1    D    
C2    C13   S    
C22   H20   S    
C14   C15   S    
C10   N2    D    
Cu1   O1    S    
O12   C22   S    
C16   H10   S    
C6    O12   S    
C3    C16   S    
Cu1   O5    S    
C21   O11   D    
