data_mof_unit_14593.cif
_audit_creation_date              2013-03-05T15:54:35-0500
_audit_creation_method            fapswitch 2.2
_symmetry_space_group_name_H-M    P1
_symmetry_Int_Tables_number       1
_space_group_crystal_system       triclinic
_cell_length_a                    17.473743
_cell_length_b                    24.372375
_cell_length_c                    15.123527
_cell_angle_alpha                 90.150707
_cell_angle_beta                  126.071497
_cell_angle_gamma                 89.878157
_cell_volume                      5205.93396531

loop_
_atom_site_label
_atom_site_type_symbol
_atom_site_description
_atom_site_fract_x
_atom_site_fract_y
_atom_site_fract_z
_atom_type_partial_charge
C1    C     C_R   0.854864 0.653654 0.906959 0.268977
C2    C     C_R   0.190981 0.625491 0.094723 0.332902
C3    C     C_R   0.354763 0.153609 0.906942 0.269503
C4    C     C_R   0.691068 0.125826 0.094277 0.322620
N1    N     N_R   0.892620 0.603790 0.941770 -0.102527
N2    N     N_R   0.107380 0.603790 0.058230 -0.093943
N3    N     N_R   0.392620 0.103790 0.941770 -0.102710
N4    N     N_R   0.607380 0.103790 0.058230 -0.092847
C5    C     C_R   0.938051 0.351246 0.092919 -0.073595
C6    C     C_R   0.095931 0.377775 0.906942 -0.127430
C7    C     C_R   0.439796 0.850898 0.093100 -0.060808
C8    C     C_R   0.595993 0.877818 0.906939 -0.131634
H1    H     H_    0.980035 0.336820 0.176500 0.144564
H2    H     H_    0.070387 0.376247 0.823120 0.121919
H3    H     H_    0.480995 0.837087 0.177067 0.146170
H4    H     H_    0.570398 0.876446 0.823082 0.123468
N5    N     N_R   0.952270 0.397640 0.058010 -0.047933
N6    N     N_R   0.047730 0.397640 0.941990 -0.048838
N7    N     N_R   0.452270 0.897640 0.058010 -0.050127
N8    N     N_R   0.547730 0.897640 0.941990 -0.049627
C9    C     C_R   0.991950 0.546182 0.260393 0.329652
C10   C     C_R   0.954178 0.544705 0.696924 0.286099
C11   C     C_R   0.492430 0.046142 0.260940 0.331033
C12   C     C_R   0.452320 0.044710 0.696054 0.285574
N9    N     N_R   0.026310 0.529110 0.206760 -0.091366
N10   N     N_R   0.973690 0.529110 0.793240 -0.097138
N11   N     N_R   0.526310 0.029110 0.206760 -0.091292
N12   N     N_R   0.473690 0.029110 0.793240 -0.097777
C13   C     C_R   0.731176 0.453534 0.743362 0.341853
C14   C     C_R   0.253274 0.454823 0.305590 0.262761
C15   C     C_R   0.231341 0.953715 0.746603 0.346984
C16   C     C_R   0.753540 0.954837 0.305562 0.262280
N13   N     N_R   0.818570 0.472310 0.793020 -0.096199
N14   N     N_R   0.181430 0.472310 0.206980 -0.101290
N15   N     N_R   0.318570 0.972310 0.793020 -0.096037
N16   N     N_R   0.681430 0.972310 0.206980 -0.101236
C17   C     C_R   0.988907 0.454188 0.255997 -0.111487
C18   C     C_R   0.953348 0.453734 0.698952 -0.159797
C19   C     C_R   0.489327 0.954148 0.256452 -0.110792
C20   C     C_R   0.452085 0.953801 0.698288 -0.163418
H5    H     H_    0.986805 0.411871 0.275509 0.141847
H6    H     H_    0.939329 0.411470 0.672079 0.190006
H7    H     H_    0.487144 0.911812 0.275801 0.140267
H8    H     H_    0.438261 0.911499 0.671644 0.189202
N17   N     N_R   0.026930 0.472300 0.207330 -0.057627
N18   N     N_R   0.973070 0.472300 0.792670 -0.074555
N19   N     N_R   0.526930 0.972300 0.207330 -0.057956
N20   N     N_R   0.473070 0.972300 0.792670 -0.075216
C21   C     C_R   0.730481 0.544953 0.755479 -0.056382
C22   C     C_R   0.256772 0.545852 0.304857 -0.117278
C23   C     C_R   0.230890 0.045026 0.757344 -0.054160
C24   C     C_R   0.757364 0.045905 0.304529 -0.117076
H9    H     H_    0.706465 0.586364 0.749316 0.155010
H10   H     H_    0.270388 0.587132 0.336030 0.211613
H11   H     H_    0.207054 0.086443 0.751582 0.153542
H12   H     H_    0.771384 0.087343 0.335122 0.210602
N21   N     N_R   0.817960 0.529130 0.792460 -0.055887
N22   N     N_R   0.182040 0.529130 0.207540 -0.090254
N23   N     N_R   0.317960 0.029130 0.792460 -0.054696
N24   N     N_R   0.682040 0.029130 0.207540 -0.089827
C25   C     C_R   0.845653 0.351206 0.910323 -0.086827
C26   C     C_R   0.188819 0.375623 0.089681 -0.052642
C27   C     C_R   0.349466 0.849785 0.910770 -0.086884
C28   C     C_R   0.688857 0.875676 0.089671 -0.051378
H13   H     H_    0.805644 0.334988 0.828377 0.181046
H14   H     H_    0.248843 0.370219 0.173768 0.131225
H15   H     H_    0.310334 0.833390 0.829015 0.184975
H16   H     H_    0.748909 0.870378 0.173766 0.130949
N25   N     N_R   0.894850 0.397640 0.943830 -0.067615
N26   N     N_R   0.105150 0.397640 0.056170 -0.036123
N27   N     N_R   0.394850 0.897640 0.943830 -0.067902
N28   N     N_R   0.605150 0.897640 0.056170 -0.036151
C29   C     C_R   0.940482 0.653127 0.088227 -0.101171
C30   C     C_R   0.103664 0.620303 0.912872 -0.122557
C31   C     C_R   0.440448 0.153105 0.088246 -0.100129
C32   C     C_R   0.604298 0.118193 0.912820 -0.117748
H17   H     H_    0.985714 0.668709 0.170364 0.196149
H18   H     H_    0.081896 0.624902 0.830383 0.167842
H19   H     H_    0.485525 0.168697 0.170391 0.196860
H20   H     H_    0.583018 0.120920 0.830249 0.161835
N29   N     N_R   0.950040 0.603780 0.055950 -0.083951
N30   N     N_R   0.049960 0.603780 0.944050 -0.052794
N31   N     N_R   0.450040 0.103780 0.055950 -0.083931
N32   N     N_R   0.549960 0.103780 0.944050 -0.052584
C33   C     C_R   0.880224 0.684769 0.996661 -0.098678
C34   C     C_R   0.191369 0.634780 0.004926 -0.140739
C35   C     C_R   0.380149 0.184687 0.996667 -0.098712
C36   C     C_R   0.691568 0.134046 0.003896 -0.136413
C37   C     C_R   0.870662 0.322557 0.001514 0.010999
C38   C     C_R   0.184099 0.362570 0.996842 0.016273
C39   C     C_R   0.376395 0.820911 0.002092 0.004976
C40   C     C_R   0.684262 0.862642 0.996878 0.017212
C41   C     C_R   0.966086 0.499823 0.289722 -0.108254
C42   C     C_R   0.942951 0.498120 0.639193 -0.043559
C43   C     C_R   0.466823 0.999762 0.290547 -0.105777
C44   C     C_R   0.440221 0.998202 0.637734 -0.035952
C45   C     C_R   0.674607 0.498589 0.723101 -0.058745
C46   C     C_R   0.302399 0.500419 0.366454 0.030559
C47   C     C_R   0.174958 0.998815 0.726540 -0.059281
C48   C     C_R   0.803306 0.000405 0.366243 0.027210
Ni1   Ni    Ni4+2 0.934160 0.565860 0.869070 0.329520
Ni2   Ni    Ni4+2 0.065840 0.565860 0.130930 0.285430
Ni3   Ni    Ni4+2 0.434160 0.065860 0.869070 0.329209
Ni4   Ni    Ni4+2 0.565840 0.065860 0.130930 0.286864
Ni5   Ni    Ni4+2 0.067260 0.435560 0.132230 0.290772
Ni6   Ni    Ni4+2 0.932740 0.435560 0.867770 0.268803
Ni7   Ni    Ni4+2 0.567260 0.935560 0.132230 0.291507
Ni8   Ni    Ni4+2 0.432740 0.935560 0.867770 0.266098
C49   C     C_3   0.498660 0.458975 0.619618 -0.121845
C50   C     C_3   0.465493 0.453395 0.499366 -0.195679
C51   C     C_3   0.998357 0.959473 0.622435 -0.122680
C52   C     C_3   0.966159 0.952949 0.502607 -0.192614
C53   C     C_3   0.429734 0.507220 0.585688 0.430376
C54   C     C_3   0.538881 0.495779 0.521130 0.400906
C55   C     C_3   0.929300 0.007940 0.586353 0.427475
C56   C     C_3   0.040013 0.994987 0.524351 0.395854
H21   H     H_    0.507076 0.425544 0.674088 0.213816
H22   H     H_    0.450828 0.414568 0.453365 0.204974
H23   H     H_    0.007096 0.926836 0.678709 0.212835
H24   H     H_    0.951902 0.913790 0.457690 0.205503
C57   C     C_3   0.396506 0.501359 0.467900 -0.044603
C58   C     C_3   0.573329 0.500820 0.639862 -0.017689
C59   C     C_3   0.897080 0.001176 0.468987 -0.039732
C60   C     C_3   0.073510 0.000972 0.642684 -0.021152
C61   C     C_3   0.470925 0.543735 0.488322 -0.265613
C62   C     C_3   0.505129 0.549454 0.608955 -0.266969
C63   C     C_3   0.972085 0.043131 0.489613 -0.267063
C64   C     C_3   0.005208 0.049802 0.609680 -0.262857
H25   H     H_    0.459284 0.577697 0.432821 0.210965
H26   H     H_    0.522095 0.588102 0.656101 0.177909
H27   H     H_    0.961224 0.076628 0.433634 0.208547
H28   H     H_    0.021795 0.088802 0.655717 0.178411
C65   C     C_R   0.732157 0.270381 0.938116 0.049193
C66   C     C_R   0.223345 0.306700 0.892082 -0.008740
C67   C     C_R   0.252854 0.775872 0.996250 0.044106
C68   C     C_R   0.725010 0.807657 0.892275 -0.007077
C69   C     C_R   0.829810 0.271580 0.997561 0.038658
C70   C     C_R   0.252833 0.332462 0.990512 0.054465
C71   C     C_R   0.333639 0.771833 0.001001 0.038525
C72   C     C_R   0.753502 0.832797 0.990870 0.054756
C73   C     C_R   0.883843 0.223923 0.047181 -0.152564
C74   C     C_R   0.343460 0.320043 0.085529 -0.150720
C75   C     C_R   0.368624 0.719528 0.002062 -0.139717
C76   C     C_R   0.843662 0.819938 0.086256 -0.150136
H29   H     H_    0.959960 0.224453 0.090351 0.157050
H30   H     H_    0.371207 0.341272 0.161742 0.149098
H31   H     H_    0.431480 0.715227 0.004381 0.152365
H32   H     H_    0.870929 0.840736 0.162743 0.148683
C77   C     C_R   0.321614 0.672573 0.001850 -0.127378
C78   C     C_R   0.893180 0.774352 0.086982 -0.148776
C79   C     C_R   0.838656 0.176099 0.044924 -0.079206
C80   C     C_R   0.392992 0.274453 0.086342 -0.145362
H33   H     H_    0.348455 0.632042 0.004654 0.150782
H34   H     H_    0.957446 0.761681 0.163774 0.165772
H35   H     H_    0.879816 0.139761 0.087733 0.157002
H36   H     H_    0.457860 0.262148 0.162885 0.166698
C81   C     C_R   0.240723 0.679265 0.000092 0.118869
C82   C     C_R   0.852194 0.741795 0.992359 0.082139
C83   C     C_R   0.740821 0.177391 0.993713 0.094410
C84   C     C_R   0.351461 0.241486 0.992200 0.083998
C85   C     C_R   0.208178 0.731588 0.995569 0.177249
C86   C     C_R   0.772832 0.762240 0.894188 0.237156
C87   C     C_R   0.687997 0.223665 0.935775 0.144802
C88   C     C_R   0.271098 0.261247 0.894255 0.243951
C89   C     C_3   0.137828 0.763792 0.000156 -0.527636
C90   C     C_3   0.684092 0.733594 0.805499 -0.534059
C91   C     C_3   0.619137 0.254468 0.945586 -0.500208
C92   C     C_3   0.182373 0.231878 0.807601 -0.542236
C93   C     C_3   0.670571 0.306172 0.952695 -0.291959
C94   C     C_3   0.129201 0.281935 0.802670 -0.277639
C95   C     C_3   0.190343 0.815114 0.001887 -0.290185
C96   C     C_3   0.631020 0.783581 0.801032 -0.281047
H37   H     H_    0.146005 0.757395 0.078029 0.243707
H38   H     H_    0.668862 0.696389 0.835136 0.190785
H39   H     H_    0.626951 0.245222 0.022506 0.229647
H40   H     H_    0.168420 0.195012 0.839310 0.192197
H41   H     H_    0.064634 0.758553 0.924740 0.235152
H42   H     H_    0.679740 0.727346 0.729922 0.246917
H43   H     H_    0.545782 0.250719 0.869894 0.246486
H44   H     H_    0.176987 0.224799 0.731552 0.245146
H45   H     H_    0.710333 0.326222 0.034619 0.192126
H46   H     H_    0.081841 0.273123 0.827513 0.194522
H47   H     H_    0.228673 0.838250 0.080426 0.187204
H48   H     H_    0.582581 0.774404 0.824188 0.192944
C97   C     C_R   0.883173 0.466172 0.456919 0.134927
C98   C     C_R   0.888717 0.467145 0.370112 0.112393
C99   C     C_R   0.382662 0.965602 0.456411 0.140201
C100  C     C_R   0.389246 0.966408 0.370353 0.110759
C101  C     C_R   0.950031 0.494867 0.551543 0.080154
C102  C     C_R   0.961117 0.496656 0.379232 0.078124
C103  C     C_R   0.447987 0.995154 0.550493 0.079084
C104  C     C_R   0.461183 0.996567 0.379622 0.076475
C105  C     C_R   0.031629 0.515840 0.567503 -0.158417
C106  C     C_R   0.037558 0.516349 0.480773 -0.039909
C107  C     C_R   0.529414 0.016838 0.566928 -0.162227
C108  C     C_R   0.536429 0.017144 0.480989 -0.038287
H49   H     H_    0.088081 0.533843 0.644931 0.144253
H50   H     H_    0.099074 0.534330 0.491339 0.198653
H51   H     H_    0.584975 0.035433 0.644149 0.143787
H52   H     H_    0.597819 0.035614 0.491996 0.198937
C109  C     C_3   0.784101 0.473315 0.288792 -0.481921
C110  C     C_3   0.777994 0.472230 0.384836 -0.315113
C111  C     C_3   0.284570 0.971313 0.287823 -0.481055
C112  C     C_3   0.277300 0.970454 0.383029 -0.322020
H53   H     H_    0.751450 0.436825 0.234599 0.213012
H54   H     H_    0.753938 0.511748 0.397805 0.246977
H55   H     H_    0.253598 0.934346 0.234710 0.210455
H56   H     H_    0.251553 0.009775 0.394294 0.246006
H57   H     H_    0.763621 0.513471 0.245739 0.228471
H58   H     H_    0.741856 0.435115 0.386223 0.230515
H59   H     H_    0.263053 0.011136 0.243527 0.228629
H60   H     H_    0.242101 0.933011 0.384965 0.228882
N33   N     N_R   0.838518 0.677126 0.810260 0.243280
O1    O     O_R   0.884526 0.720829 0.817349 -0.379738
O2    O     O_R   0.776561 0.655984 0.714477 -0.360008
N34   N     N_R   0.249433 0.653675 0.197108 0.212008
O3    O     O_R   0.211362 0.675644 0.241217 -0.395506
O4    O     O_R   0.338049 0.663193 0.239731 -0.392305
N35   N     N_R   0.337193 0.177017 0.809497 0.242866
O5    O     O_R   0.379681 0.222048 0.815000 -0.387030
O6    O     O_R   0.277334 0.154564 0.714459 -0.359116
N36   N     N_R   0.748156 0.155272 0.195307 0.216174
O7    O     O_R   0.709166 0.176873 0.238637 -0.384487
O8    O     O_R   0.837458 0.163916 0.240561 -0.403098
C113  C     C_2   0.611051 0.344915 0.859175 0.650154
H61   H     H_    0.566142 0.329680 0.775751 0.074948
O9    O     O_2   0.612779 0.393946 0.876772 -0.582530
C114  C     C_2   0.082130 0.311661 0.695275 0.585004
H62   H     H_    0.124195 0.328506 0.670342 0.048870
O10   O     O_2   0.996146 0.316396 0.634880 -0.563777
C115  C     C_2   0.132831 0.849939 0.901078 0.641675
H63   H     H_    0.090510 0.831039 0.820616 0.073624
O11   O     O_2   0.133615 0.899798 0.909081 -0.578322
C116  C     C_2   0.585670 0.814253 0.694868 0.584878
H64   H     H_    0.628923 0.831629 0.672027 0.049750
O12   O     O_2   0.499765 0.819142 0.633079 -0.567733
N37   N     N_R   0.009659 0.599224 0.309387 0.211974
O13   O     O_R   0.952452 0.619645 0.329414 -0.361709
O14   O     O_R   0.089896 0.623536 0.348319 -0.371031
N38   N     N_R   0.923010 0.598337 0.649246 0.242573
O15   O     O_R   0.895043 0.607191 0.549530 -0.329961
O16   O     O_R   0.917264 0.638042 0.702229 -0.317763
N39   N     N_R   0.509921 0.099255 0.309590 0.211438
O17   O     O_R   0.452544 0.119729 0.329308 -0.364246
O18   O     O_R   0.590074 0.123644 0.348402 -0.369576
N40   N     N_R   0.420670 0.098397 0.648672 0.244610
O19   O     O_R   0.388387 0.106857 0.547309 -0.330381
O20   O     O_R   0.419786 0.138725 0.704125 -0.327726
N41   N     N_R   0.700758 0.403059 0.683171 0.227344
O21   O     O_R   0.632154 0.374673 0.670581 -0.439376
O22   O     O_R   0.747496 0.382935 0.648182 -0.364391
N42   N     N_R   0.250715 0.403439 0.350492 0.233487
O23   O     O_R   0.301048 0.396316 0.455801 -0.363646
O24   O     O_R   0.185007 0.367788 0.287733 -0.416245
N43   N     N_R   0.199487 0.902454 0.689462 0.224945
O25   O     O_R   0.135136 0.873858 0.686047 -0.433254
O26   O     O_R   0.241048 0.881909 0.648351 -0.363519
N44   N     N_R   0.750911 0.903567 0.350742 0.233601
O27   O     O_R   0.800285 0.896854 0.456086 -0.360430
O28   O     O_R   0.685578 0.867742 0.287956 -0.413815
N45   N     N_R   0.368223 0.513553 0.620435 0.254793
O29   O     O_R   0.404902 0.517709 0.723964 -0.366378
O30   O     O_R   0.276765 0.514936 0.548700 -0.381567
N46   N     N_R   0.599867 0.490323 0.485260 0.242884
O31   O     O_R   0.592196 0.447837 0.428320 -0.374204
O32   O     O_R   0.659209 0.529166 0.505802 -0.371511
N47   N     N_R   0.866869 0.015136 0.619626 0.254677
O33   O     O_R   0.902583 0.020104 0.722767 -0.366795
O34   O     O_R   0.775537 0.016496 0.546946 -0.380084
N48   N     N_R   0.101587 0.988761 0.489419 0.242451
O35   O     O_R   0.093633 0.946032 0.432843 -0.373933
O36   O     O_R   0.161130 0.027386 0.509515 -0.373056

loop_
_geom_bond_atom_site_label_1
_geom_bond_atom_site_label_2
_geom_bond_distance
_ccdc_geom_bond_type
C89   C95   1.543964 S    
C46   C57   1.444810 S    
N3    N31   1.395812 A    
C111  C112  1.518341 S    
N43   O26   1.301238 A    
C65   C69   1.383595 A    
N2    N30   1.395810 A    
C94   C114  1.506623 S    
C89   H41   1.111331 S    
C109  C110  1.518110 S    
C74   H30   1.082193 S    
C77   H33   1.082783 S    
C12   N40   1.437594 S    
C51   C52   1.556978 S    
C114  O10   1.220141 D    
C4    N4    1.336830 A    
C54   N46   1.458548 S    
C50   H22   1.110311 S    
C80   C84   1.406792 A    
N29   Ni2   1.878817 S    
C49   H21   1.106570 S    
C91   C93   1.515795 S    
N24   Ni4   1.869205 S    
C68   C86   1.375557 A    
N33   O1    1.301486 A    
N5    N25   1.395811 A    
C7    N7    1.329423 A    
N41   O21   1.298458 A    
C22   H10   1.075886 S    
C18   C42   1.353154 A    
C116  O12   1.220113 D    
C67   C95   1.489946 S    
C105  H49   1.084285 S    
C1    N1    1.334280 A    
C28   H16   1.078899 S    
C44   C103  1.405349 S    
C95   H47   1.112945 S    
N34   O4    1.300910 A    
N45   O30   1.300137 A    
C18   H6    1.080681 S    
C3    N3    1.333778 A    
C12   C44   1.372467 A    
C50   C57   1.538673 S    
N45   O29   1.300107 A    
C15   C47   1.384237 A    
C4    N36   1.430787 S    
N9    Ni2   1.880272 S    
N7    N27   1.395811 A    
C62   H26   1.110079 S    
C89   H37   1.111048 S    
N39   O17   1.300877 A    
C84   C88   1.396222 A    
C13   N13   1.325177 A    
N11   Ni4   1.880272 S    
N37   O13   1.300879 A    
C21   N21   1.337903 A    
C35   C84   1.459409 S    
C26   N26   1.344553 A    
N15   N23   1.384864 A    
C36   C83   1.428724 S    
C74   C80   1.402618 A    
C109  H53   1.111687 S    
C101  C105  1.396308 A    
C5    H1    1.081133 S    
N38   O15   1.301172 A    
C76   C78   1.402858 A    
N15   Ni8   1.844478 S    
C24   N24   1.332949 A    
C38   C70   1.456504 S    
C86   C90   1.497143 S    
C24   H12   1.076643 S    
C71   C75   1.408671 A    
C68   C72   1.403197 A    
C80   H36   1.081676 S    
C68   C96   1.508925 S    
C11   C43   1.385361 A    
N46   O31   1.300667 A    
N39   O18   1.301178 A    
C56   C63   1.524699 S    
N35   O5    1.301102 A    
C26   C38   1.393116 A    
C10   N38   1.436882 S    
C2    C34   1.381331 A    
C90   H42   1.110053 S    
C11   N11   1.327633 A    
C12   N12   1.341758 A    
C13   C45   1.384654 A    
C50   C54   1.525347 S    
C99   C103  1.389886 A    
C66   C94   1.509782 S    
C76   H32   1.082103 S    
C60   C64   1.544505 S    
C72   C76   1.408977 A    
N3    Ni3   1.876678 S    
N27   Ni8   1.876354 S    
C94   H46   1.113307 S    
N16   Ni7   1.845710 S    
C1    C33   1.378389 A    
C10   C42   1.372563 A    
C111  H59   1.112394 S    
C2    N2    1.330661 A    
C7    H3    1.081131 S    
C112  H60   1.111621 S    
C110  H58   1.111557 S    
C56   N48   1.458753 S    
C64   H28   1.110086 S    
C65   C93   1.497353 S    
C114  H62   1.086043 S    
N17   Ni5   1.876949 S    
C55   N47   1.455742 S    
C107  H51   1.084324 S    
C65   C87   1.365425 A    
N33   O2    1.299103 A    
C23   C47   1.380747 A    
C109  H57   1.112368 S    
N40   O20   1.296310 A    
C32   N32   1.333566 A    
N41   O22   1.301289 A    
C90   H38   1.112469 S    
N31   Ni4   1.878817 S    
C14   N14   1.333460 A    
C3    C35   1.378054 A    
C22   N22   1.331666 A    
C8    H4    1.068383 S    
C88   C92   1.496875 S    
C55   C59   1.522113 S    
N34   O3    1.301336 A    
C52   C59   1.539974 S    
C70   C74   1.408842 A    
C22   C46   1.362599 A    
C5    C37   1.366750 A    
C108  H52   1.082796 S    
C52   H24   1.110259 S    
C54   C61   1.525006 S    
C26   H14   1.079001 S    
C9    N37   1.429217 S    
C19   H7    1.080117 S    
C53   C62   1.541746 S    
C23   H11   1.075142 S    
N4    N32   1.395810 A    
C41   C102  1.408895 S    
C111  H55   1.111862 S    
C99   C112  1.492949 S    
C24   C48   1.365527 A    
C90   C96   1.506877 S    
C55   C64   1.541940 S    
C16   C48   1.375055 A    
C98   C109  1.493039 S    
C30   H18   1.074865 S    
C6    H2    1.068246 S    
C79   C83   1.401457 A    
C97   C110  1.492755 S    
C58   C62   1.544218 S    
C5    N5    1.333347 A    
N44   O28   1.300254 A    
N6    Ni6   1.868968 S    
C27   H15   1.076545 S    
C57   C61   1.544073 S    
C45   C58   1.447775 S    
C20   C44   1.354032 A    
C61   H25   1.110389 S    
C96   C116  1.506726 S    
N35   O6    1.298967 A    
N1    N29   1.395812 A    
C116  H64   1.086023 S    
C96   H48   1.113262 S    
N42   O24   1.300274 A    
C59   C63   1.543758 S    
C104  C108  1.398431 A    
N28   Ni7   1.871982 S    
C20   H8    1.080694 S    
C87   C91   1.496413 S    
N25   Ni6   1.876354 S    
C29   C33   1.380656 A    
C8    N8    1.322487 A    
N38   O16   1.295698 A    
C113  H61   1.085512 S    
C69   C73   1.403302 A    
C17   C41   1.375062 A    
C115  O11   1.220189 D    
C53   N45   1.455752 S    
C30   C34   1.377894 A    
N36   O8    1.300301 A    
N4    Ni4   1.881043 S    
C19   C43   1.374918 A    
N20   Ni8   1.881224 S    
C10   N10   1.341663 A    
C43   C104  1.409764 S    
C29   N29   1.343408 A    
C39   C71   1.406546 S    
C51   H23   1.109199 S    
C31   C35   1.380070 A    
C27   N27   1.331596 A    
C91   H43   1.110756 S    
C75   H31   1.082907 S    
C37   C69   1.417716 S    
N37   O14   1.301186 A    
C82   C86   1.397172 A    
C78   H34   1.081587 S    
C61   C62   1.555644 S    
N48   O36   1.300520 A    
C23   N23   1.339402 A    
C33   C82   1.461463 S    
C28   C40   1.393484 A    
C17   N17   1.325456 A    
C63   C64   1.555620 S    
C40   C72   1.458272 S    
N46   O32   1.300492 A    
N9    N17   1.384626 A    
C52   C56   1.525583 S    
C112  H56   1.112383 S    
C73   C79   1.398280 A    
C19   N19   1.325568 A    
C49   C58   1.539411 S    
C30   N30   1.337444 A    
N11   N19   1.384624 A    
C20   N20   1.325198 A    
C95   C115  1.501211 S    
C9    N9    1.327458 A    
N40   O19   1.301377 A    
N12   N20   1.384624 A    
C79   H35   1.082955 S    
N13   N21   1.384864 A    
C78   C82   1.407120 A    
C31   H19   1.074558 S    
C103  C107  1.396992 A    
C51   C60   1.540056 S    
C93   H45   1.114068 S    
N14   Ni5   1.845710 S    
C8    C40   1.376800 A    
N13   Ni6   1.844478 S    
C32   H20   1.074997 S    
C81   C85   1.380539 A    
N16   N24   1.384865 A    
N26   Ni5   1.871982 S    
C66   C70   1.403179 A    
N47   O33   1.300106 A    
C16   N16   1.334425 A    
C97   C101  1.389724 A    
N5    Ni5   1.870273 S    
C4    C36   1.387106 A    
C49   C53   1.538132 S    
N21   Ni1   1.870423 S    
C14   C46   1.373791 A    
C100  C111  1.493033 S    
N19   Ni7   1.876950 S    
N6    N26   1.395809 A    
N1    Ni1   1.876678 S    
C15   N43   1.431189 S    
C54   C58   1.525815 S    
C100  C104  1.391373 A    
C48   C59   1.449647 S    
C25   N25   1.328427 A    
C16   N44   1.439486 S    
N44   O27   1.300559 A    
C67   C85   1.329840 A    
C42   C101  1.404016 S    
N23   Ni3   1.870423 S    
C99   C100  1.372587 A    
N10   Ni1   1.875992 S    
C93   C113  1.498106 S    
C92   H44   1.110400 S    
C49   C50   1.555520 S    
C1    N33   1.435052 S    
N47   O34   1.300178 A    
N12   Ni3   1.875992 S    
C31   N31   1.343251 A    
C97   C98   1.372364 A    
C106  H50   1.082759 S    
C9    C41   1.385101 A    
C6    N6    1.321877 A    
C21   H9    1.075222 S    
N22   Ni2   1.869205 S    
N18   Ni6   1.881224 S    
C15   N15   1.327665 A    
C92   C94   1.507084 S    
C73   H29   1.083016 S    
C113  O9    1.220167 D    
N30   Ni1   1.880116 S    
C14   N42   1.439443 S    
N2    Ni2   1.881043 S    
C67   C71   1.373857 A    
C91   H39   1.112157 S    
C83   C87   1.392868 A    
C28   N28   1.344661 A    
C25   H13   1.076663 S    
C17   H5    1.080141 S    
C32   C36   1.377743 A    
C25   C37   1.369137 A    
C34   C81   1.415352 S    
C63   H27   1.110423 S    
C18   N18   1.324570 A    
C102  C106  1.398613 A    
C21   C45   1.381553 A    
C107  C108  1.375475 A    
C66   C88   1.374241 A    
C7    C39   1.363250 A    
C2    N34   1.430968 S    
C75   C77   1.409015 A    
C53   C57   1.520472 S    
C6    C38   1.375851 A    
C3    N35   1.436120 S    
C105  C106  1.375311 A    
C110  H54   1.112286 S    
C27   C39   1.364754 A    
C115  H63   1.085655 S    
N14   N22   1.384865 A    
N32   Ni3   1.880116 S    
C29   H17   1.074529 S    
N48   O35   1.300716 A    
N8    N28   1.395809 A    
C51   C55   1.539864 S    
C98   C102  1.390951 A    
C47   C60   1.451235 S    
C92   H40   1.112487 S    
C77   C81   1.407128 A    
C56   C60   1.527110 S    
N10   N18   1.384624 A    
C11   N39   1.429099 S    
N36   O7    1.301213 A    
C85   C89   1.492649 S    
N43   O25   1.299071 A    
C13   N41   1.432370 S    
N42   O23   1.300572 A    
N8    Ni8   1.868968 S    
N7    Ni7   1.870273 S    
