data_mof_unit_63728.cif
_audit_creation_date              2012-10-26T18:17:50-0400
_audit_creation_method            fapswitch 2.2
_symmetry_space_group_name_H-M    P1
_symmetry_Int_Tables_number       1
_space_group_crystal_system       triclinic
_cell_length_a                    50.404785
_cell_length_b                    39.029294
_cell_length_c                    32.007138
_cell_angle_alpha                 89.997745
_cell_angle_beta                  129.310416
_cell_angle_gamma                 90.007769
_cell_volume                      48718.7300094

loop_
_atom_site_label
_atom_site_type_symbol
_atom_type_description
_atom_site_fract_x
_atom_site_fract_y
_atom_site_fract_z
_atom_type_partial_charge
C1    C     C_R   0.066099 0.000006 0.566163 0.583916
C2    C     C_3   0.035246 0.987401 0.760742 0.110793
C3    C     C_R   0.343980 0.517936 0.307667 0.272491
C4    C     C_R   0.175523 0.999544 0.682723 0.015662
C5    C     C_R   0.824461 0.998946 0.317626 -0.008123
C6    C     C_R   0.675523 0.499544 0.682723 0.015663
C7    C     C_R   0.324461 0.498947 0.317626 -0.008123
C8    C     C_R   0.000001 0.066144 0.000001 0.552693
C9    C     C_R   0.500001 0.566144 0.000001 0.552693
C10   C     C_R   0.999975 0.999896 0.079992 0.554057
C11   C     C_R   0.000024 0.999891 0.920005 0.553907
C12   C     C_R   0.499975 0.499896 0.079992 0.554057
C13   C     C_3   0.464910 0.487019 0.239421 0.110695
C14   C     C_R   0.500024 0.499891 0.920005 0.553908
C15   C     C_R   0.999998 0.933597 0.999998 0.552102
C16   C     C_R   0.499998 0.433597 0.999998 0.552101
C17   C     C_R   0.499983 0.933599 0.999984 0.532481
C18   C     C_R   0.999983 0.433598 0.999984 0.532481
C19   C     C_R   0.433649 0.000063 0.933669 0.592247
C20   C     C_R   0.566332 0.000128 0.066314 0.593570
C21   C     C_R   0.933649 0.500063 0.933669 0.592247
C22   C     C_R   0.066332 0.500128 0.066314 0.593569
C23   C     C_R   0.499998 0.066087 0.999998 0.524319
C24   C     C_3   0.535246 0.487401 0.760742 0.110793
C25   C     C_R   0.999998 0.566087 0.999998 0.524319
C26   C     C_R   0.496615 0.877706 0.959032 -0.146557
C27   C     C_R   0.503225 0.877710 0.040829 -0.146524
C28   C     C_R   0.996616 0.377706 0.959033 -0.146556
C29   C     C_R   0.003223 0.377710 0.040828 -0.146523
C30   C     C_3   0.028247 0.976519 0.302567 0.094005
C31   C     C_3   0.972033 0.976174 0.697682 0.094082
C32   C     C_3   0.528247 0.476519 0.302567 0.094004
C33   C     C_3   0.472033 0.476174 0.697682 0.094082
C34   C     C_R   0.497447 0.841742 0.959422 0.223725
C35   C     C_1   0.999847 0.000514 0.162429 -0.014125
C36   C     C_R   0.502359 0.841747 0.040414 0.223809
C37   C     C_R   0.997449 0.341742 0.959423 0.223725
C38   C     C_R   0.002358 0.341747 0.040413 0.223809
C39   C     C_R   0.499910 0.823779 0.999926 0.045922
C40   C     C_R   0.999910 0.323779 0.999926 0.045919
C41   C     C_R   0.499946 0.895833 0.999952 -0.075945
C42   C     C_R   0.999946 0.395833 0.999952 -0.075946
C43   C     C_R   0.474205 0.767933 0.995488 -0.075238
C44   C     C_R   0.525663 0.767964 0.004423 -0.075440
C45   C     C_R   0.974204 0.267933 0.995484 -0.075238
C46   C     C_1   0.000129 0.000483 0.837542 -0.014394
C47   C     C_R   0.025665 0.267964 0.004427 -0.075440
C48   C     C_R   0.974257 0.232206 0.995655 -0.117305
C49   C     C_R   0.025649 0.232238 0.004303 -0.117412
C50   C     C_R   0.474259 0.732206 0.995659 -0.117306
C51   C     C_R   0.525648 0.732238 0.004300 -0.117412
C52   C     C_R   0.999962 0.213993 0.999989 0.028702
C53   C     C_R   0.499962 0.713993 0.999989 0.028702
C54   C     C_R   0.499924 0.786003 0.999942 0.107113
C55   C     C_R   0.999924 0.286003 0.999942 0.107114
C56   C     C_R   0.969109 0.157856 0.965106 -0.116097
C57   C     C_1   0.499847 0.500514 0.162429 -0.014125
C58   C     C_R   0.030856 0.157880 0.034888 -0.115991
C59   C     C_R   0.469109 0.657856 0.965109 -0.116097
C60   C     C_R   0.530856 0.657880 0.034886 -0.115991
C61   C     C_R   0.969108 0.122121 0.965176 -0.123601
C62   C     C_R   0.030878 0.122143 0.034822 -0.123609
C63   C     C_R   0.469108 0.622121 0.965179 -0.123602
C64   C     C_R   0.530878 0.622143 0.034820 -0.123609
C65   C     C_R   0.999998 0.103919 0.000001 0.016829
C66   C     C_R   0.499998 0.603919 0.000001 0.016828
C67   C     C_3   0.030338 0.979743 0.256225 -0.216064
C68   C     C_1   0.500129 0.500483 0.837542 -0.014394
C69   C     C_3   0.969879 0.979367 0.743959 -0.215850
C70   C     C_3   0.530338 0.479743 0.256225 -0.216064
C71   C     C_3   0.469879 0.479368 0.743959 -0.215851
C72   C     C_R   0.999977 0.176093 0.999997 0.033520
C73   C     C_R   0.499977 0.676093 0.999997 0.033519
C74   C     C_R   0.471004 0.121996 0.986117 0.211614
C75   C     C_R   0.528976 0.122014 0.013867 0.211966
C76   C     C_R   0.971004 0.621996 0.986117 0.211612
C77   C     C_R   0.028976 0.622014 0.013867 0.211967
C78   C     C_R   0.471044 0.157920 0.985464 0.263931
C79   C     C_1   0.999978 0.000463 0.337558 0.022900
C80   C     C_R   0.528925 0.157938 0.014508 0.264030
C81   C     C_R   0.971044 0.657920 0.985463 0.263932
C82   C     C_R   0.028925 0.657938 0.014508 0.264029
C83   C     C_R   0.499981 0.176066 0.999982 -0.077587
C84   C     C_R   0.999981 0.676066 0.999982 -0.077587
C85   C     C_R   0.499993 0.103740 0.999993 -0.072826
C86   C     C_R   0.999993 0.603740 0.999993 -0.072826
C87   C     C_R   0.492368 0.232201 0.029118 -0.098186
C88   C     C_R   0.507583 0.232207 0.970837 -0.097980
C89   C     C_R   0.992368 0.732201 0.029118 -0.098186
C90   C     C_1   0.000049 0.000455 0.662464 0.022283
C91   C     C_R   0.007583 0.732207 0.970837 -0.097979
C92   C     C_R   0.992141 0.767953 0.028804 -0.097330
C93   C     C_R   0.007813 0.767959 0.971156 -0.097198
C94   C     C_R   0.492141 0.267953 0.028804 -0.097331
C95   C     C_R   0.507812 0.267959 0.971156 -0.097198
C96   C     C_R   0.999978 0.785929 0.999982 0.085168
C97   C     C_R   0.499978 0.285929 0.999982 0.085168
C98   C     C_R   0.499976 0.214032 0.999977 0.046181
C99   C     C_R   0.999976 0.714032 0.999977 0.046181
C100  C     C_R   0.968791 0.841606 0.970196 0.221492
C101  C     C_1   0.499978 0.500463 0.337558 0.022899
C102  C     C_R   0.031178 0.841606 0.029787 0.221589
C103  C     C_R   0.468791 0.341606 0.970196 0.221492
C104  C     C_R   0.531178 0.341606 0.029787 0.221589
C105  C     C_1   0.999890 0.000144 0.124773 -0.007244
C106  C     C_1   0.000100 0.000123 0.875213 -0.007590
C107  C     C_1   0.499890 0.500144 0.124773 -0.007244
C108  C     C_1   0.500100 0.500123 0.875213 -0.007590
C109  C     C_R   0.968960 0.877504 0.970981 -0.137036
C110  C     C_R   0.031019 0.877505 0.029006 -0.136987
C111  C     C_R   0.468960 0.377504 0.970982 -0.137036
C112  C     C_R   0.933899 0.999997 0.433890 0.583133
C113  C     C_1   0.500049 0.500455 0.662464 0.022284
C114  C     C_R   0.531019 0.377505 0.029006 -0.136987
C115  C     C_R   0.999992 0.895732 0.999995 -0.076673
C116  C     C_R   0.499992 0.395732 0.999995 -0.076673
C117  C     C_R   0.999982 0.823606 0.999988 0.031558
C118  C     C_R   0.499982 0.323606 0.999988 0.031558
C119  C     C_3   0.999851 0.001174 0.291273 0.117002
C120  C     C_3   0.000157 0.001159 0.708727 0.117629
C121  C     C_3   0.499851 0.501174 0.291273 0.117002
C122  C     C_3   0.500157 0.501159 0.708727 0.117629
C123  C     C_3   0.003041 0.038594 0.228144 0.181674
C124  C     C_1   0.000058 0.000116 0.375288 -0.012348
C125  C     C_3   0.996520 0.038527 0.771414 0.182017
C126  C     C_3   0.503041 0.538594 0.228144 0.181674
C127  C     C_3   0.496520 0.538527 0.771415 0.182017
C128  C     C_3   0.999936 0.001204 0.208669 -0.014134
C129  C     C_3   0.000036 0.001173 0.791296 -0.013938
C130  C     C_3   0.499936 0.501204 0.208669 -0.014134
C131  C     C_3   0.500036 0.501173 0.791296 -0.013937
C132  C     C_3   0.400585 0.931880 0.952053 0.023287
C133  C     C_3   0.421256 0.913250 0.005920 -0.361507
C134  C     C_3   0.599378 0.930787 0.050500 0.022888
C135  C     C_1   0.999966 0.000111 0.624732 -0.013736
C136  C     C_3   0.579092 0.911253 0.997442 -0.362179
C137  C     C_3   0.900584 0.431880 0.952054 0.023287
C138  C     C_3   0.921256 0.413251 0.005921 -0.361507
C139  C     C_3   0.099379 0.430788 0.050499 0.022889
C140  C     C_3   0.079092 0.411254 0.997441 -0.362179
C141  C     C_3   0.320749 0.992230 0.920318 0.011738
C142  C     C_3   0.299487 0.975992 0.933641 -0.371128
C143  C     C_3   0.679486 0.989529 0.080647 0.012758
C144  C     C_3   0.700609 0.972192 0.067864 -0.369340
C145  C     C_3   0.820749 0.492231 0.920318 0.011738
C146  C     C_1   0.500058 0.500116 0.375288 -0.012348
C147  C     C_3   0.799487 0.475994 0.933642 -0.371127
C148  C     C_3   0.179486 0.489530 0.080647 0.012759
C149  C     C_3   0.200610 0.472193 0.067864 -0.369339
C150  C     C_3   0.225545 0.088666 0.749600 -0.001837
C151  C     C_3   0.197575 0.115284 0.728242 -0.339348
C152  C     C_3   0.791071 0.070710 0.332127 -0.001475
C153  C     C_3   0.813210 0.102727 0.356355 -0.351218
C154  C     C_3   0.725545 0.588666 0.749600 -0.001836
C155  C     C_3   0.697575 0.615285 0.728241 -0.339349
C156  C     C_3   0.291071 0.570710 0.332128 -0.001475
C157  C     C_1   0.499966 0.500111 0.624732 -0.013735
C158  C     C_3   0.313211 0.602727 0.356356 -0.351217
C159  C     C_3   0.109681 0.927560 0.556990 -0.001387
C160  C     C_3   0.086960 0.909088 0.502964 -0.364141
C161  C     C_3   0.890564 0.926624 0.442488 0.000577
C162  C     C_3   0.913727 0.907976 0.496314 -0.364997
C163  C     C_3   0.609681 0.427560 0.556991 -0.001387
C164  C     C_3   0.586960 0.409088 0.502964 -0.364141
C165  C     C_3   0.390564 0.426624 0.442488 0.000579
C166  C     C_3   0.413727 0.407976 0.496314 -0.364997
C167  C     C_3   0.518992 0.830985 0.915486 -0.016095
C168  C     C_R   0.377896 0.983126 0.910634 0.202639
C169  C     C_3   0.519002 0.803870 0.881386 -0.361681
C170  C     C_3   0.480705 0.831060 0.084205 -0.016353
C171  C     C_3   0.480485 0.803873 0.118013 -0.361300
C172  C     C_3   0.018997 0.330984 0.915493 -0.016092
C173  C     C_3   0.019007 0.303870 0.881391 -0.361678
C174  C     C_3   0.980700 0.331059 0.084199 -0.016352
C175  C     C_3   0.980480 0.303873 0.118008 -0.361298
C176  C     C_3   0.420328 0.181995 0.915970 0.016253
C177  C     C_3   0.389041 0.201093 0.900898 -0.365172
C178  C     C_3   0.579629 0.182045 0.083997 0.015793
C179  C     C_R   0.622093 0.982451 0.090119 0.202454
C180  C     C_3   0.610901 0.201183 0.099061 -0.362779
C181  C     C_3   0.920328 0.681995 0.915969 0.016254
C182  C     C_3   0.889041 0.701093 0.900897 -0.365172
C183  C     C_3   0.079629 0.682045 0.083998 0.015795
C184  C     C_3   0.110901 0.701183 0.099062 -0.362780
C185  C     C_3   0.923435 0.822787 0.886962 -0.006259
C186  C     C_3   0.893569 0.797749 0.857404 -0.368789
C187  C     C_3   0.076539 0.822816 0.113031 -0.006298
C188  C     C_3   0.106385 0.797763 0.142594 -0.368438
C189  C     C_3   0.423434 0.322788 0.886962 -0.006261
C190  C     C_R   0.877896 0.483126 0.910634 0.202639
C191  C     C_3   0.393569 0.297749 0.857405 -0.368788
C192  C     C_3   0.576540 0.322816 0.113031 -0.006299
C193  C     C_3   0.606386 0.297763 0.142594 -0.368439
C194  C     C_3   0.081292 0.954383 0.375726 -0.015332
C195  C     C_3   0.116028 0.963937 0.428550 -0.346085
C196  C     C_3   0.919354 0.953377 0.624521 -0.013854
C197  C     C_3   0.884539 0.962514 0.571527 -0.351221
C198  C     C_3   0.581291 0.454383 0.375726 -0.015331
C199  C     C_3   0.616028 0.463937 0.428550 -0.346084
C200  C     C_3   0.419354 0.453377 0.624521 -0.013853
C201  C     C_R   0.122093 0.482452 0.090119 0.202454
C202  C     C_3   0.384539 0.462514 0.571527 -0.351221
C203  C     C_3   0.915552 0.990640 0.231647 -0.017631
C204  C     C_3   0.889409 0.015635 0.223269 -0.337087
C205  C     C_3   0.084610 0.991563 0.768613 -0.017104
C206  C     C_3   0.110555 0.016820 0.776895 -0.340815
C207  C     C_3   0.415552 0.490640 0.231647 -0.017629
C208  C     C_3   0.389409 0.515635 0.223269 -0.337088
C209  C     C_3   0.584610 0.491563 0.768613 -0.017103
C210  C     C_3   0.610555 0.516820 0.776895 -0.340815
C211  C     C_R   0.341997 0.984139 0.876280 0.209684
C212  C     C_R   0.566098 0.500006 0.566163 0.583916
C213  C     C_R   0.658001 0.983327 0.124638 0.210946
C214  C     C_R   0.841997 0.484139 0.876280 0.209684
C215  C     C_R   0.158001 0.483328 0.124638 0.210945
C216  C     C_R   0.323375 0.999947 0.825334 -0.009123
C217  C     C_R   0.676551 0.999941 0.174983 -0.008276
C218  C     C_R   0.823375 0.499947 0.825334 -0.009123
C219  C     C_R   0.176551 0.499941 0.174984 -0.008277
C220  C     C_R   0.340817 0.016248 0.809710 0.189927
C221  C     C_R   0.659034 0.017222 0.189723 0.190030
C222  C     C_R   0.840816 0.516248 0.809710 0.189927
C223  C     C_R   0.433899 0.499997 0.433890 0.583133
C224  C     C_R   0.159034 0.517222 0.189724 0.190030
C225  C     C_R   0.377215 0.015480 0.844639 0.176445
C226  C     C_R   0.622636 0.016518 0.154662 0.178927
C227  C     C_R   0.877215 0.515480 0.844639 0.176444
C228  C     C_R   0.122635 0.516519 0.154663 0.178927
C229  C     C_R   0.000055 0.000020 0.420061 0.557958
C230  C     C_R   0.999955 0.000018 0.579947 0.556658
C231  C     C_R   0.500055 0.500020 0.420061 0.557958
C232  C     C_R   0.499955 0.500019 0.579947 0.556658
C233  C     C_R   0.395698 0.999846 0.895881 -0.021278
C234  C     C_3   0.965894 0.985947 0.191738 -0.248444
C235  C     C_R   0.604249 0.999998 0.104107 -0.020373
C236  C     C_R   0.895698 0.499847 0.895881 -0.021278
C237  C     C_R   0.104249 0.499999 0.104107 -0.020373
C238  C     C_R   0.267398 0.031275 0.769511 -0.079867
C239  C     C_R   0.732734 0.030882 0.230620 -0.065133
C240  C     C_R   0.767398 0.531275 0.769511 -0.079867
C241  C     C_R   0.232734 0.530883 0.230620 -0.065132
C242  C     C_R   0.231246 0.031776 0.735238 0.280606
C243  C     C_R   0.768622 0.030927 0.266050 0.265805
C244  C     C_R   0.731246 0.531776 0.735237 0.280606
C245  C     C_3   0.034254 0.986311 0.808418 -0.248602
C246  C     C_R   0.268622 0.530927 0.266051 0.265804
C247  C     C_R   0.213428 0.000400 0.720263 0.027912
C248  C     C_R   0.786555 0.999674 0.280447 0.009297
C249  C     C_R   0.713428 0.500400 0.720263 0.027912
C250  C     C_R   0.286555 0.499674 0.280447 0.009297
C251  C     C_R   0.231630 0.969438 0.739980 -0.186993
C252  C     C_R   0.768217 0.968756 0.261315 -0.182475
C253  C     C_R   0.731630 0.469438 0.739980 -0.186993
C254  C     C_R   0.268216 0.468756 0.261315 -0.182474
C255  C     C_R   0.267300 0.969330 0.774079 -0.089401
C256  C     C_3   0.465894 0.485947 0.191738 -0.248443
C257  C     C_R   0.732504 0.968855 0.227468 -0.092634
C258  C     C_R   0.767300 0.469331 0.774079 -0.089401
C259  C     C_R   0.232504 0.468855 0.227468 -0.092633
C260  C     C_R   0.285430 0.000193 0.788997 0.059080
C261  C     C_R   0.714496 0.999901 0.211706 0.052555
C262  C     C_R   0.785430 0.500193 0.788997 0.059080
C263  C     C_R   0.214496 0.499901 0.211707 0.052555
C264  C     C_R   0.158753 0.981013 0.634435 -0.141167
C265  C     C_R   0.841429 0.980005 0.365584 -0.163092
C266  C     C_R   0.658753 0.481013 0.634435 -0.141167
C267  C     C_3   0.534254 0.486311 0.808418 -0.248602
C268  C     C_R   0.341429 0.480005 0.365585 -0.163092
C269  C     C_R   0.122867 0.980202 0.596413 0.242276
C270  C     C_R   0.877318 0.979488 0.403567 0.241285
C271  C     C_R   0.622867 0.480202 0.596413 0.242276
C272  C     C_R   0.377318 0.479488 0.403567 0.241285
C273  C     C_R   0.103619 0.999916 0.605436 -0.013328
C274  C     C_R   0.896369 0.999841 0.394821 -0.016895
C275  C     C_R   0.603618 0.499916 0.605436 -0.013328
C276  C     C_R   0.396369 0.499841 0.394821 -0.016896
C277  C     C_3   0.005614 0.038846 0.279930 0.495748
C278  C     C_3   0.964910 0.987019 0.239421 0.110696
C279  C     C_3   0.993965 0.038759 0.719645 0.496111
C280  C     C_3   0.505614 0.538846 0.279930 0.495748
C281  C     C_3   0.493965 0.538759 0.719645 0.496111
C282  C     C_R   0.120161 0.018489 0.653479 -0.122965
C283  C     C_R   0.879632 0.018940 0.347214 -0.128737
C284  C     C_R   0.620161 0.518489 0.653479 -0.122965
C285  C     C_R   0.379632 0.518940 0.347214 -0.128737
C286  C     C_R   0.155811 0.017651 0.693109 0.268331
C287  C     C_R   0.843980 0.017936 0.307667 0.272491
C288  C     C_R   0.655811 0.517651 0.693109 0.268330
Cu1   Cu    Cu3+1 0.000000 0.034220 0.500000 0.983868
Cu2   Cu    Cu3+1 0.499990 0.999930 0.041330 0.995392
Cu3   Cu    Cu3+1 0.000010 0.499930 0.958670 0.998749
Cu4   Cu    Cu3+1 0.999990 0.499930 0.041330 0.995393
Cu5   Cu    Cu3+1 0.500000 0.534220 0.500000 0.983868
Cu6   Cu    Cu3+1 0.000000 0.965800 0.500000 0.911246
Cu7   Cu    Cu3+1 0.500000 0.465800 0.500000 0.911246
Cu8   Cu    Cu3+1 0.034210 0.999890 0.034180 0.941662
Cu9   Cu    Cu3+1 0.965790 0.999890 0.965820 0.941406
Cu10  Cu    Cu3+1 0.534210 0.499890 0.034180 0.941662
Cu11  Cu    Cu3+1 0.465790 0.499890 0.965820 0.941406
Cu12  Cu    Cu3+1 0.500010 0.999930 0.958670 0.998748
H1    H     H_    0.979190 0.052316 0.194596 0.157381
H2    H     H_    0.719154 0.055079 0.218138 0.146094
H3    H     H_    0.875567 0.418431 0.923374 0.153677
H4    H     H_    0.907158 0.413420 0.022003 0.156511
H5    H     H_    0.925542 0.386315 0.000407 0.073993
H6    H     H_    0.946495 0.425944 0.035387 0.171666
H7    H     H_    0.084537 0.430136 0.065448 0.114170
H8    H     H_    0.124370 0.417484 0.080060 0.153535
H9    H     H_    0.093541 0.410601 0.981967 0.156160
H10   H     H_    0.074691 0.384603 0.003872 0.075097
H11   H     H_    0.053912 0.423813 0.967077 0.171285
H12   H     H_    0.306995 0.015584 0.895562 0.110893
H13   H     H_    0.781641 0.554923 0.780693 0.124605
H14   H     H_    0.346048 0.999782 0.958830 0.171198
H15   H     H_    0.312674 0.952834 0.958985 0.164204
H16   H     H_    0.296000 0.994556 0.956107 0.095434
H17   H     H_    0.273900 0.968591 0.895811 0.155399
H18   H     H_    0.693427 0.013059 0.104651 0.122018
H19   H     H_    0.654250 0.996912 0.041885 0.171045
H20   H     H_    0.687228 0.948821 0.043273 0.162845
H21   H     H_    0.704245 0.990010 0.044808 0.099055
H22   H     H_    0.726136 0.964923 0.105929 0.157447
H23   H     H_    0.806995 0.515585 0.895561 0.110892
H24   H     H_    0.219155 0.555080 0.218139 0.146094
H25   H     H_    0.846047 0.499783 0.958830 0.171198
H26   H     H_    0.812674 0.452836 0.958985 0.164203
H27   H     H_    0.796000 0.494557 0.956107 0.095434
H28   H     H_    0.773900 0.468592 0.895811 0.155399
H29   H     H_    0.193427 0.513060 0.104651 0.122018
H30   H     H_    0.154250 0.496913 0.041885 0.171044
H31   H     H_    0.187228 0.448822 0.043272 0.162844
H32   H     H_    0.204245 0.490011 0.044808 0.099055
H33   H     H_    0.226136 0.464924 0.105929 0.157447
H34   H     H_    0.334896 0.052371 0.762740 0.334966
H35   H     H_    0.218092 0.945267 0.728721 0.107905
H36   H     H_    0.664877 0.054493 0.235077 0.333749
H37   H     H_    0.834896 0.552370 0.762740 0.334967
H38   H     H_    0.164877 0.554492 0.235078 0.333749
H39   H     H_    0.381364 0.027793 0.790206 0.337210
H40   H     H_    0.618316 0.030524 0.208342 0.336425
H41   H     H_    0.881364 0.527792 0.790206 0.337210
H42   H     H_    0.118316 0.530524 0.208342 0.336425
H43   H     H_    0.247304 0.101376 0.755094 0.128074
H44   H     H_    0.233992 0.079460 0.789389 0.117648
H45   H     H_    0.175343 0.103559 0.722362 0.199876
H46   H     H_    0.781625 0.944506 0.272657 0.111137
H47   H     H_    0.207600 0.136714 0.757524 0.089498
H48   H     H_    0.188958 0.125571 0.689040 0.164307
H49   H     H_    0.804503 0.049938 0.362991 0.137469
H50   H     H_    0.766060 0.076285 0.322553 0.140417
H51   H     H_    0.800390 0.124177 0.326954 0.164289
H52   H     H_    0.817287 0.110144 0.393546 0.100544
H53   H     H_    0.838502 0.097727 0.366827 0.178126
H54   H     H_    0.747304 0.601377 0.755093 0.128074
H55   H     H_    0.733992 0.579460 0.789388 0.117648
H56   H     H_    0.675343 0.603559 0.722361 0.199876
H57   H     H_    0.718092 0.445267 0.728721 0.107905
H58   H     H_    0.707599 0.636714 0.757523 0.089499
H59   H     H_    0.688957 0.625571 0.689039 0.164307
H60   H     H_    0.304503 0.549937 0.362991 0.137469
H61   H     H_    0.266060 0.576285 0.322554 0.140417
H62   H     H_    0.300390 0.624177 0.326956 0.164289
H63   H     H_    0.317288 0.610143 0.393548 0.100544
H64   H     H_    0.338502 0.597727 0.366829 0.178126
H65   H     H_    0.056259 0.041951 0.327833 0.382089
H66   H     H_    0.943287 0.041281 0.671678 0.381157
H67   H     H_    0.556259 0.541950 0.327833 0.382089
H68   H     H_    0.281625 0.444507 0.272656 0.111137
H69   H     H_    0.443287 0.541281 0.671678 0.381157
H70   H     H_    0.101276 0.919964 0.580608 0.132915
H71   H     H_    0.136606 0.919094 0.578780 0.115047
H72   H     H_    0.095550 0.914932 0.479258 0.142819
H73   H     H_    0.088547 0.880991 0.509642 0.084537
H74   H     H_    0.059898 0.917401 0.479774 0.175985
H75   H     H_    0.898485 0.919189 0.418149 0.133543
H76   H     H_    0.863715 0.918152 0.421314 0.115372
H77   H     H_    0.905720 0.913777 0.520838 0.142961
H78   H     H_    0.911933 0.879899 0.489365 0.084353
H79   H     H_    0.280807 0.945093 0.788445 0.146343
H80   H     H_    0.940754 0.916191 0.518818 0.175834
H81   H     H_    0.601276 0.419964 0.580608 0.132915
H82   H     H_    0.636606 0.419093 0.578780 0.115047
H83   H     H_    0.595550 0.414932 0.479258 0.142819
H84   H     H_    0.588547 0.380991 0.509643 0.084537
H85   H     H_    0.559898 0.417400 0.479774 0.175985
H86   H     H_    0.398485 0.419188 0.418149 0.133543
H87   H     H_    0.363715 0.418152 0.421314 0.115372
H88   H     H_    0.405720 0.413777 0.520838 0.142962
H89   H     H_    0.411933 0.379899 0.489364 0.084352
H90   H     H_    0.718870 0.944676 0.213574 0.146599
H91   H     H_    0.440754 0.416191 0.518818 0.175834
H92   H     H_    0.193861 0.026351 0.769040 0.321201
H93   H     H_    0.805830 0.027259 0.232025 0.336448
H94   H     H_    0.693860 0.526351 0.769040 0.321201
H95   H     H_    0.305830 0.527259 0.232025 0.336448
H96   H     H_    0.544690 0.830601 0.956402 0.111604
H97   H     H_    0.514765 0.856359 0.896351 0.130505
H98   H     H_    0.493966 0.803847 0.839869 0.168677
H99   H     H_    0.539693 0.809387 0.879159 0.095057
H100  H     H_    0.523475 0.778171 0.899736 0.158092
H101  H     H_    0.780807 0.445093 0.788445 0.146343
H102  H     H_    0.455030 0.830846 0.043239 0.111828
H103  H     H_    0.485045 0.856379 0.103542 0.130447
H104  H     H_    0.505489 0.803688 0.159568 0.168966
H105  H     H_    0.459781 0.809447 0.120185 0.095690
H106  H     H_    0.475901 0.778226 0.099462 0.158302
H107  H     H_    0.044694 0.330598 0.956411 0.111603
H108  H     H_    0.014773 0.356359 0.896361 0.130503
H109  H     H_    0.993972 0.303849 0.839873 0.168675
H110  H     H_    0.039700 0.309385 0.879169 0.095056
H111  H     H_    0.023477 0.278170 0.899738 0.158095
H112  H     H_    0.020211 0.052521 0.804820 0.156813
H113  H     H_    0.218870 0.444677 0.213574 0.146599
H114  H     H_    0.955026 0.330843 0.043232 0.111828
H115  H     H_    0.985038 0.356379 0.103533 0.130445
H116  H     H_    0.005484 0.303690 0.159564 0.168965
H117  H     H_    0.959775 0.309446 0.120177 0.095689
H118  H     H_    0.975899 0.278225 0.099460 0.158305
H119  H     H_    0.442324 0.081281 0.966399 0.333799
H120  H     H_    0.557674 0.081318 0.033622 0.334612
H121  H     H_    0.942324 0.581281 0.966399 0.333798
H122  H     H_    0.057674 0.581318 0.033623 0.334612
H123  H     H_    0.411506 0.157686 0.892400 0.164854
H124  H     H_    0.173639 0.967641 0.625808 0.124629
H125  H     H_    0.433009 0.198296 0.904582 0.115178
H126  H     H_    0.397073 0.225341 0.924222 0.165395
H127  H     H_    0.371575 0.207194 0.857101 0.086787
H128  H     H_    0.375089 0.185004 0.910008 0.172989
H129  H     H_    0.588471 0.157741 0.107577 0.165372
H130  H     H_    0.566936 0.198324 0.095380 0.114551
H131  H     H_    0.602848 0.225427 0.075727 0.165512
H132  H     H_    0.628361 0.207295 0.142856 0.087166
H133  H     H_    0.624865 0.185118 0.089957 0.176668
H134  H     H_    0.911506 0.657686 0.892399 0.164853
H135  H     H_    0.826684 0.966185 0.374096 0.119400
H136  H     H_    0.933009 0.698296 0.904581 0.115177
H137  H     H_    0.897073 0.725340 0.924221 0.165395
H138  H     H_    0.871575 0.707194 0.857100 0.086787
H139  H     H_    0.875089 0.685004 0.910007 0.172989
H140  H     H_    0.088471 0.657741 0.107577 0.165372
H141  H     H_    0.066936 0.698324 0.095380 0.114551
H142  H     H_    0.102848 0.725427 0.075727 0.165512
H143  H     H_    0.128361 0.707295 0.142856 0.087167
H144  H     H_    0.124865 0.685118 0.089958 0.176668
H145  H     H_    0.942222 0.813815 0.881781 0.121085
H146  H     H_    0.673639 0.467641 0.625808 0.124629
H147  H     H_    0.913631 0.848540 0.868186 0.128829
H148  H     H_    0.874262 0.805666 0.861750 0.163016
H149  H     H_    0.881259 0.797212 0.813847 0.092619
H150  H     H_    0.902965 0.771633 0.874388 0.153660
H151  H     H_    0.057751 0.813874 0.118232 0.120866
H152  H     H_    0.086365 0.848571 0.131787 0.128928
H153  H     H_    0.125690 0.805645 0.138221 0.163741
H154  H     H_    0.118707 0.797253 0.186157 0.092353
H155  H     H_    0.096966 0.771643 0.125636 0.153530
H156  H     H_    0.442222 0.313815 0.881781 0.121086
H157  H     H_    0.326684 0.466185 0.374096 0.119400
H158  H     H_    0.413631 0.348540 0.868187 0.128829
H159  H     H_    0.374262 0.305666 0.861751 0.163017
H160  H     H_    0.381259 0.297212 0.813848 0.092618
H161  H     H_    0.402965 0.271633 0.874389 0.153660
H162  H     H_    0.557752 0.313874 0.118232 0.120866
H163  H     H_    0.586365 0.348571 0.131787 0.128928
H164  H     H_    0.625690 0.305645 0.138220 0.163741
H165  H     H_    0.618708 0.297253 0.186156 0.092354
H166  H     H_    0.596967 0.271643 0.125637 0.153530
H167  H     H_    0.085309 0.943643 0.347882 0.120287
H168  H     H_    0.105162 0.032735 0.661132 0.136116
H169  H     H_    0.069563 0.934524 0.384499 0.121505
H170  H     H_    0.112789 0.974458 0.457328 0.203629
H171  H     H_    0.132644 0.940871 0.446714 0.087293
H172  H     H_    0.128617 0.983490 0.421098 0.165307
H173  H     H_    0.915403 0.942405 0.652329 0.120319
H174  H     H_    0.931428 0.933810 0.615976 0.122110
H175  H     H_    0.887726 0.973237 0.542787 0.199940
H176  H     H_    0.868262 0.939216 0.553456 0.086615
H177  H     H_    0.871609 0.981782 0.578719 0.161475
H178  H     H_    0.585309 0.443642 0.347882 0.120286
H179  H     H_    0.894482 0.033772 0.339826 0.140725
H180  H     H_    0.569563 0.434524 0.384499 0.121505
H181  H     H_    0.612788 0.474457 0.457328 0.203629
H182  H     H_    0.632644 0.440871 0.446714 0.087292
H183  H     H_    0.628617 0.483490 0.421098 0.165306
H184  H     H_    0.415403 0.442405 0.652329 0.120319
H185  H     H_    0.431428 0.433810 0.615976 0.122109
H186  H     H_    0.387726 0.473237 0.542786 0.199940
H187  H     H_    0.368262 0.439216 0.553456 0.086615
H188  H     H_    0.371609 0.481782 0.578719 0.161475
H189  H     H_    0.930357 0.979739 0.273034 0.113036
H190  H     H_    0.605162 0.532735 0.661132 0.136117
H191  H     H_    0.901675 0.969688 0.201354 0.124740
H192  H     H_    0.873761 0.026709 0.182006 0.169317
H193  H     H_    0.872192 0.002114 0.228283 0.115618
H194  H     H_    0.902740 0.036648 0.253431 0.176443
H195  H     H_    0.069970 0.980526 0.727338 0.113292
H196  H     H_    0.098652 0.970746 0.799112 0.124644
H197  H     H_    0.126022 0.028056 0.818037 0.166754
H198  H     H_    0.127967 0.003466 0.772158 0.119463
H199  H     H_    0.097067 0.037693 0.746510 0.174154
H200  H     H_    0.430357 0.479739 0.273034 0.113035
H201  H     H_    0.394482 0.533772 0.339826 0.140726
H202  H     H_    0.401675 0.469689 0.201354 0.124740
H203  H     H_    0.373761 0.526710 0.182006 0.169317
H204  H     H_    0.372192 0.502114 0.228283 0.115618
H205  H     H_    0.402740 0.536648 0.253431 0.176443
H206  H     H_    0.569970 0.480526 0.727338 0.113291
H207  H     H_    0.598652 0.470746 0.799112 0.124643
H208  H     H_    0.626022 0.528056 0.818037 0.166754
H209  H     H_    0.627967 0.503466 0.772158 0.119463
H210  H     H_    0.597067 0.537693 0.746510 0.174154
H211  H     H_    0.493010 0.891464 0.926411 0.136293
H212  H     H_    0.479191 0.552316 0.194596 0.157381
H213  H     H_    0.506815 0.891468 0.073437 0.136067
H214  H     H_    0.993013 0.391464 0.926413 0.136295
H215  H     H_    0.006812 0.391468 0.073435 0.136068
H216  H     H_    0.454013 0.781493 0.991627 0.104586
H217  H     H_    0.545844 0.781549 0.008275 0.104169
H218  H     H_    0.954011 0.281494 0.991620 0.104583
H219  H     H_    0.045846 0.281549 0.008282 0.104165
H220  H     H_    0.954392 0.218836 0.992947 0.102569
H221  H     H_    0.045529 0.218893 0.007027 0.102189
H222  H     H_    0.454394 0.718836 0.992954 0.102569
H223  H     H_    0.520211 0.552521 0.804820 0.156813
H224  H     H_    0.545526 0.718893 0.007021 0.102189
H225  H     H_    0.944981 0.171221 0.937226 0.109642
H226  H     H_    0.054977 0.171266 0.062765 0.109765
H227  H     H_    0.444981 0.671222 0.937231 0.109642
H228  H     H_    0.554977 0.671266 0.062760 0.109765
H229  H     H_    0.019902 0.949822 0.301952 0.074736
H230  H     H_    0.980694 0.949576 0.698632 0.074568
H231  H     H_    0.519902 0.449822 0.301952 0.074736
H232  H     H_    0.480694 0.449576 0.698632 0.074569
H233  H     H_    0.944916 0.108779 0.937686 0.133383
H234  H     H_    0.963270 0.958946 0.178348 0.090475
H235  H     H_    0.055076 0.108818 0.062312 0.133430
H236  H     H_    0.444916 0.608779 0.937691 0.133384
H237  H     H_    0.555076 0.608818 0.062307 0.133430
H238  H     H_    0.486816 0.218692 0.052348 0.144842
H239  H     H_    0.513136 0.218703 0.947607 0.145325
H240  H     H_    0.986816 0.718692 0.052347 0.144842
H241  H     H_    0.013136 0.718703 0.947607 0.145325
H242  H     H_    0.986194 0.781643 0.051401 0.114278
H243  H     H_    0.013761 0.781654 0.948562 0.114611
H244  H     H_    0.486194 0.281643 0.051402 0.114278
H245  H     H_    0.037177 0.959340 0.822102 0.090630
H246  H     H_    0.513761 0.281654 0.948562 0.114610
H247  H     H_    0.944732 0.890979 0.948635 0.148864
H248  H     H_    0.055251 0.890980 0.051356 0.148953
H249  H     H_    0.444732 0.390979 0.948635 0.148864
H250  H     H_    0.555251 0.390980 0.051355 0.148953
H251  H     H_    0.055018 0.991843 0.271523 0.194181
H252  H     H_    0.945060 0.991182 0.728501 0.193806
H253  H     H_    0.555018 0.491843 0.271523 0.194181
H254  H     H_    0.445060 0.491183 0.728501 0.193807
H255  H     H_    0.029974 0.953638 0.241864 0.078273
H256  H     H_    0.463270 0.458946 0.178348 0.090474
H257  H     H_    0.970525 0.953267 0.758602 0.078321
H258  H     H_    0.529974 0.453638 0.241864 0.078274
H259  H     H_    0.470525 0.453267 0.758601 0.078321
H260  H     H_    0.962057 0.959848 0.247311 0.061975
H261  H     H_    0.038401 0.960267 0.753150 0.062004
H262  H     H_    0.462057 0.459848 0.247311 0.061975
H263  H     H_    0.538401 0.460267 0.753150 0.062004
H264  H     H_    0.943673 0.000244 0.156415 0.163212
H265  H     H_    0.056310 0.000859 0.843589 0.162822
H266  H     H_    0.443673 0.500244 0.156414 0.163211
H267  H     H_    0.537177 0.459340 0.822102 0.090630
H268  H     H_    0.556310 0.500859 0.843589 0.162822
H269  H     H_    0.027937 0.080133 0.239063 0.348293
H270  H     H_    0.971154 0.079776 0.760019 0.347434
H271  H     H_    0.527937 0.580133 0.239063 0.348293
H272  H     H_    0.471154 0.579776 0.760019 0.347434
H273  H     H_    0.984043 0.065194 0.303423 0.355724
H274  H     H_    0.015258 0.065361 0.695893 0.354766
H275  H     H_    0.484043 0.565195 0.303423 0.355724
H276  H     H_    0.515258 0.565361 0.695893 0.354766
H277  H     H_    0.415121 0.930467 0.936612 0.114010
H278  H     H_    0.281641 0.054923 0.780693 0.124605
H279  H     H_    0.375568 0.918431 0.923373 0.153678
H280  H     H_    0.407159 0.913419 0.022002 0.156511
H281  H     H_    0.425542 0.886315 0.000406 0.073994
H282  H     H_    0.446496 0.925944 0.035386 0.171666
H283  H     H_    0.584537 0.930136 0.065449 0.114170
H284  H     H_    0.624370 0.917484 0.080061 0.153535
H285  H     H_    0.593540 0.910600 0.981968 0.156160
H286  H     H_    0.574690 0.884602 0.003873 0.075099
H287  H     H_    0.553912 0.923813 0.967077 0.171286
H288  H     H_    0.915121 0.430468 0.936612 0.114009
O1    O     O_R   0.049910 0.028900 0.549890 -0.505098
O2    O     O_R   0.549900 0.000010 0.015010 -0.480303
O3    O     O_3   0.057310 0.675367 0.027972 -0.516200
O4    O     O_3   0.938141 0.823931 0.941913 -0.554424
O5    O     O_3   0.061823 0.823931 0.058074 -0.554159
O6    O     O_3   0.438141 0.323931 0.941914 -0.554424
O7    O     O_3   0.561823 0.323931 0.058074 -0.554159
O8    O     O_3   0.060401 0.983915 0.353435 -0.547402
O9    O     O_3   0.939806 0.983206 0.646719 -0.548584
O10   O     O_3   0.560401 0.483915 0.353435 -0.547402
O11   O     O_3   0.439806 0.483206 0.646719 -0.548584
O12   O     O_3   0.937218 0.008118 0.225012 -0.516829
O13   O     O_R   0.950100 0.500010 0.984990 -0.480505
O14   O     O_3   0.062707 0.008817 0.774936 -0.517020
O15   O     O_3   0.437218 0.508118 0.225012 -0.516829
O16   O     O_3   0.562707 0.508817 0.774936 -0.517020
O17   O     O_R   0.049900 0.500010 0.015010 -0.480303
O18   O     O_R   0.500000 0.049850 0.965040 -0.496468
O19   O     O_R   0.500000 0.049850 0.034960 -0.496144
O20   O     O_R   0.000000 0.549850 0.965040 -0.496468
O21   O     O_R   0.000000 0.549850 0.034960 -0.496144
O22   O     O_R   0.049920 0.971120 0.549870 -0.498195
O23   O     O_R   0.950080 0.971120 0.450130 -0.495476
O24   O     O_R   0.549920 0.471120 0.549870 -0.498195
O25   O     O_R   0.950090 0.028900 0.450110 -0.508578
O26   O     O_R   0.450080 0.471120 0.450130 -0.495476
O27   O     O_R   0.000000 0.028900 0.439710 -0.493740
O28   O     O_R   0.000000 0.028900 0.560290 -0.496191
O29   O     O_R   0.500000 0.528900 0.439710 -0.493740
O30   O     O_R   0.500000 0.528900 0.560290 -0.496191
O31   O     O_R   0.000010 0.971120 0.439700 -0.517991
O32   O     O_R   0.999990 0.971120 0.560300 -0.517359
O33   O     O_R   0.500010 0.471120 0.439700 -0.517991
O34   O     O_R   0.499990 0.471120 0.560300 -0.517359
O35   O     O_R   0.028900 0.049810 0.028900 -0.509983
O36   O     O_R   0.549910 0.528900 0.549890 -0.505098
O37   O     O_R   0.971100 0.049810 0.971100 -0.510020
O38   O     O_R   0.528900 0.549810 0.028900 -0.509983
O39   O     O_R   0.471100 0.549810 0.971100 -0.510021
O40   O     O_R   0.028890 0.999890 0.089150 -0.497482
O41   O     O_R   0.971110 0.999890 0.910850 -0.497603
O42   O     O_R   0.528890 0.499890 0.089150 -0.497482
O43   O     O_R   0.471110 0.499890 0.910850 -0.497602
O44   O     O_R   0.971120 0.999910 0.031400 -0.505643
O45   O     O_R   0.028880 0.999910 0.968600 -0.505743
O46   O     O_R   0.471120 0.499910 0.031400 -0.505643
O47   O     O_R   0.450090 0.528900 0.450110 -0.508578
O48   O     O_R   0.528880 0.499910 0.968600 -0.505743
O49   O     O_R   0.028890 0.949980 0.028830 -0.512008
O50   O     O_R   0.971110 0.949980 0.971170 -0.512076
O51   O     O_R   0.528890 0.449980 0.028830 -0.512008
O52   O     O_R   0.471110 0.449980 0.971170 -0.512075
O53   O     O_R   0.500020 0.950020 0.965150 -0.525468
O54   O     O_R   0.499980 0.950020 0.034850 -0.526661
O55   O     O_R   0.000020 0.450020 0.965150 -0.525467
O56   O     O_R   0.999980 0.450020 0.034850 -0.526661
O57   O     O_3   0.031084 0.055217 0.237251 -0.719608
O58   O     O_R   0.450100 0.999940 0.915210 -0.459251
O59   O     O_3   0.968284 0.054824 0.762101 -0.720605
O60   O     O_3   0.531084 0.555217 0.237252 -0.719607
O61   O     O_3   0.468284 0.554824 0.762101 -0.720606
O62   O     O_3   0.979595 0.060707 0.268939 -0.647662
O63   O     O_3   0.019743 0.060919 0.730416 -0.649310
O64   O     O_3   0.479595 0.560707 0.268940 -0.647662
O65   O     O_3   0.519743 0.560919 0.730416 -0.649311
O66   O     O_3   0.395519 0.966205 0.959541 -0.525124
O67   O     O_3   0.604504 0.964784 0.041833 -0.525542
O68   O     O_3   0.895519 0.466205 0.959541 -0.525123
O69   O     O_R   0.549900 0.999940 0.084790 -0.461387
O70   O     O_3   0.104504 0.464784 0.041833 -0.525541
O71   O     O_3   0.325033 0.968262 0.891987 -0.552347
O72   O     O_3   0.675026 0.966503 0.109761 -0.553342
O73   O     O_3   0.825033 0.468263 0.891988 -0.552346
O74   O     O_3   0.175026 0.466504 0.109761 -0.553342
O75   O     O_3   0.321665 0.032571 0.760235 -0.702722
O76   O     O_3   0.678113 0.034385 0.238504 -0.719286
O77   O     O_3   0.821665 0.532571 0.760234 -0.702723
O78   O     O_3   0.178113 0.534385 0.238504 -0.719286
O79   O     O_3   0.395253 0.029795 0.829844 -0.682478
O80   O     O_R   0.950100 0.499940 0.915210 -0.459251
O81   O     O_3   0.604486 0.031733 0.168643 -0.683508
O82   O     O_3   0.895253 0.529795 0.829844 -0.682477
O83   O     O_3   0.104486 0.531733 0.168644 -0.683507
O84   O     O_3   0.212445 0.061805 0.711558 -0.529393
O85   O     O_3   0.786081 0.061699 0.284890 -0.535372
O86   O     O_3   0.712445 0.561805 0.711558 -0.529392
O87   O     O_3   0.286081 0.561699 0.284891 -0.535372
O88   O     O_3   0.037407 0.052115 0.325603 -0.646680
O89   O     O_3   0.962031 0.051666 0.673814 -0.650424
O90   O     O_3   0.537407 0.552115 0.325603 -0.646679
O91   O     O_R   0.049900 0.499940 0.084790 -0.461386
O92   O     O_3   0.462031 0.551666 0.673814 -0.650423
O93   O     O_3   0.106537 0.963253 0.547767 -0.543346
O94   O     O_3   0.893838 0.962279 0.452064 -0.545391
O95   O     O_3   0.606537 0.463253 0.547767 -0.543346
O96   O     O_3   0.393838 0.462279 0.452064 -0.545391
O97   O     O_3   0.169995 0.034271 0.741198 -0.714109
O98   O     O_3   0.829589 0.035384 0.260124 -0.676120
O99   O     O_3   0.669995 0.534271 0.741198 -0.714108
O100  O     O_3   0.329588 0.535384 0.260124 -0.676121
O101  O     O_3   0.492418 0.823641 0.917627 -0.551070
O102  O     O_R   0.450100 0.000010 0.984990 -0.480505
O103  O     O_3   0.507299 0.823647 0.082139 -0.551197
O104  O     O_3   0.992421 0.323641 0.917630 -0.551068
O105  O     O_3   0.007296 0.323647 0.082137 -0.551196
O106  O     O_3   0.441703 0.106104 0.971765 -0.658152
O107  O     O_3   0.558284 0.106140 0.028232 -0.655825
O108  O     O_3   0.941703 0.606104 0.971765 -0.658151
O109  O     O_3   0.058284 0.606140 0.028233 -0.655825
O110  O     O_3   0.442654 0.175331 0.971999 -0.516857
O111  O     O_3   0.557309 0.175367 0.027971 -0.516200
O112  O     O_3   0.942654 0.675331 0.971998 -0.516857

loop_
_geom_bond_atom_site_label_1
_geom_bond_atom_site_label_2
_ccdc_geom_bond_type
C198  H180  S    
C182  H138  S    
C210  H209  S    
C5    C265  A    
C264  C269  A    
C29   C42   A    
C270  C274  A    
C207  O15   S    
Cu3   Cu4   S    
C46   C129  S    
C18   O55   A    
C102  O5    S    
C129  C245  S    
C258  H101  S    
C249  C253  A    
C196  O9    S    
C36   O103  S    
C185  O4    S    
C89   C99   A    
C257  C261  A    
C123  H1    S    
C148  H29   S    
C259  C263  A    
C192  H163  S    
C131  C267  S    
C191  H160  S    
C143  C144  S    
C87   C94   A    
C240  C244  A    
C77   O109  S    
C185  H147  S    
C109  H247  S    
H36   O76   S    
C143  H19   S    
C144  H20   S    
C138  H5    S    
C253  C258  A    
C186  H150  S    
C136  H287  S    
C112  O25   A    
C56   C72   A    
C15   O50   A    
C250  C254  A    
C185  H145  S    
C141  H14   S    
C33   H232  S    
C158  H63   S    
C58   H226  S    
C147  H27   S    
C152  O85   S    
C184  H143  S    
C179  C235  A    
C71   H254  S    
Cu5   O30   S    
C142  H15   S    
Cu7   O24   S    
C188  H153  S    
C80   C83   A    
Cu8   O49   S    
C224  C228  A    
C244  O86   S    
C208  H205  S    
C132  O66   S    
C143  O72   S    
C50   C53   A    
C173  H109  S    
C7    C250  S    
C17   O53   A    
C170  H102  S    
C200  O11   S    
Cu12  O18   S    
C223  O47   A    
H94   O99   S    
C163  H81   S    
C94   C97   A    
C152  H49   S    
C199  H183  S    
Cu11  O43   S    
C287  O98   S    
C64   C66   A    
C177  H128  S    
C278  H260  S    
C183  C184  S    
C50   H222  S    
C119  C277  S    
C234  H234  S    
C187  H152  S    
C163  H82   S    
C239  H2    S    
C96   C117  S    
C43   C54   A    
C140  H9    S    
C270  O94   S    
C141  H12   S    
C95   C97   A    
C63   C66   A    
C169  H98   S    
C164  H85   S    
C280  O64   S    
C19   O102  A    
C154  C155  S    
C164  H84   S    
C176  H123  S    
C69   H257  S    
C103  O6    S    
C25   O21   A    
Cu8   Cu9   S    
C198  H178  S    
C82   C84   A    
C183  H141  S    
C24   C267  S    
C27   C36   A    
C22   O17   A    
C245  H265  S    
C145  H23   S    
Cu10  Cu11  S    
C214  O73   S    
C205  H195  S    
C28   C42   A    
C59   C63   A    
C32   C121  S    
C154  O86   S    
C240  C262  A    
C196  C197  S    
C238  H278  S    
C139  C140  S    
C123  C277  S    
C176  O110  S    
C278  O12   S    
C195  H171  S    
C20   O2    A    
C170  O103  S    
C60   C64   A    
C181  H134  S    
C156  C158  S    
C150  H43   S    
C160  H72   S    
C206  H198  S    
C77   C82   A    
C56   H225  S    
C234  H264  S    
C153  H51   S    
C16   O51   A    
C127  C131  S    
C31   C120  S    
C33   C71   S    
C4    C286  A    
C125  C129  S    
C48   C52   A    
Cu2   O19   S    
C69   C129  S    
C243  C248  A    
C200  H185  S    
C277  O88   S    
C202  H187  S    
C162  H80   S    
C100  C117  A    
C188  H155  S    
C245  H245  S    
C76   O108  S    
C200  C202  S    
C248  C252  A    
C168  C233  A    
C56   C61   A    
C38   C40   A    
C203  H191  S    
C234  C278  S    
C137  H288  S    
C1    O1    A    
C149  H31   S    
C155  H58   S    
C171  H105  S    
C201  O70   S    
C254  H68   S    
C69   H252  S    
C271  O95   S    
C229  O27   A    
C21   O13   A    
C199  H181  S    
C266  H146  S    
C38   O105  S    
C150  O84   S    
C209  H207  S    
C222  O77   S    
C273  C282  A    
C222  C227  A    
C189  H156  S    
C2    C245  S    
C37   C40   A    
C28   H214  S    
C266  C271  A    
C18   C42   S    
C134  H283  S    
C205  O14   S    
C91   H241  S    
C39   C54   S    
C178  O111  S    
H41   O82   S    
C207  H202  S    
C92   C96   A    
C267  H267  S    
C169  H100  S    
C202  H188  S    
C189  C191  S    
C174  C175  S    
C221  O76   S    
C144  H21   S    
C67   H255  S    
C219  C224  A    
H121  O108  S    
C192  H162  S    
C21   O80   A    
C281  O65   S    
C268  C272  A    
C156  O87   S    
Cu9   O37   S    
Cu6   O23   S    
C83   C98   S    
C29   C38   A    
C6    C266  A    
C196  H174  S    
C192  O7    S    
C145  H25   S    
C133  H282  S    
C78   O110  S    
C49   H221  S    
C163  O95   S    
C30   C67   S    
C4    C264  A    
C160  H73   S    
C22   C237  S    
C172  O104  S    
C24   H263  S    
C136  H286  S    
C211  C216  A    
C208  H203  S    
C126  O60   S    
H93   O98   S    
C13   O15   S    
C168  C211  A    
C45   H218  S    
C258  C262  A    
H69   O92   S    
C122  C281  S    
C181  O112  S    
C184  H142  S    
C146  C231  S    
Cu9   O44   S    
Cu6   O32   S    
C217  C261  S    
C244  C249  A    
C113  C122  S    
C34   C39   A    
C9    O39   A    
C181  H136  S    
C57   C130  S    
Cu7   O33   S    
Cu2   Cu12  S    
C30   H229  S    
C224  O78   S    
C214  C218  A    
C8    O35   A    
C240  H13   S    
C2    C120  S    
C32   C70   S    
C139  H8    S    
H269  O57   S    
C187  O5    S    
C79   C119  S    
C51   C53   A    
C90   C120  S    
C4    C247  S    
C35   C105  T    
C61   C65   A    
Cu1   O28   S    
C13   C121  S    
C137  H3    S    
C154  H55   S    
C178  H130  S    
C209  C210  S    
C175  H118  S    
C162  H78   S    
Cu3   O20   S    
Cu8   O45   S    
C212  O36   A    
C102  C117  A    
C127  H223  S    
C12   O42   A    
C159  H71   S    
C82   O3    S    
C203  H189  S    
C241  C263  A    
C33   C122  S    
C241  H24   S    
C155  H56   S    
C22   O91   A    
C5    C248  S    
C257  H90   S    
C175  H117  S    
C95   H246  S    
C59   C73   A    
C182  H139  S    
C210  H210  S    
C159  O93   S    
C104  O7    S    
Cu11  O39   S    
C194  H167  S    
C279  O89   S    
Cu10  O38   S    
C36   C39   A    
C274  C283  A    
C216  C220  A    
C49   C52   A    
C114  C116  A    
C43   C50   A    
C256  H256  S    
C247  C251  A    
H270  O59   S    
C79   C124  T    
C226  O81   S    
C156  H61   S    
C202  H186  S    
C113  C157  T    
C135  C230  S    
C148  H30   S    
C91   C99   A    
C67   C128  S    
H119  O106  S    
C90   C135  T    
H95   O100  S    
C191  H159  S    
C28   C37   A    
C46   C106  T    
C153  H53   S    
Cu2   O69   S    
H34   O75   S    
Cu8   O35   S    
Cu4   O91   S    
C74   C85   A    
C138  H4    S    
C132  H277  S    
C27   H213  S    
C288  O99   S    
C88   C95   A    
C141  O71   S    
C71   C131  S    
C174  H114  S    
C44   C54   A    
C3    O100  S    
C100  C109  A    
C12   O46   A    
C152  C153  S    
C45   C55   A    
C25   O20   A    
C92   H242  S    
C15   O49   A    
C190  O68   S    
C150  C151  S    
C239  C261  A    
C94   H244  S    
C47   H219  S    
C145  O73   S    
C184  H144  S    
C58   C62   A    
C183  H140  S    
Cu5   O29   S    
C31   O9    S    
C142  H16   S    
C272  O96   S    
C193  H165  S    
C188  H154  S    
C75   O107  S    
C51   H224  S    
C161  C162  S    
C193  H166  S    
C112  O23   A    
C11   O45   A    
C181  C182  S    
C19   O58   A    
C227  C236  A    
C228  O83   S    
C173  H111  S    
C170  H103  S    
C155  H59   S    
C26   C41   A    
C112  C274  S    
C3    C7    A    
C175  H116  S    
C200  H184  S    
C212  C275  S    
C62   H235  S    
C126  C130  S    
C88   H239  S    
C24   O16   S    
C60   C73   A    
C70   C130  S    
H67   O90   S    
Cu7   O26   S    
C103  C111  A    
C177  H127  S    
C110  H248  S    
C151  H48   S    
C89   H240  S    
C264  H124  S    
C187  H151  S    
C255  C260  A    
C78   C83   A    
C75   C85   A    
C140  H10   S    
C223  C276  S    
C165  H87   S    
C148  O74   S    
C204  H193  S    
Cu5   O36   S    
C166  H88   S    
H40   O81   S    
C223  O26   A    
C111  C116  A    
C168  O66   S    
H274  O63   S    
C104  C118  A    
C124  C229  S    
C276  C285  A    
C87   C98   A    
C165  O96   S    
C14   C108  S    
C194  C195  S    
C87   H238  S    
C231  O29   A    
H120  O107  S    
Cu5   O47   S    
C230  O28   A    
C161  H76   S    
C180  H131  S    
Cu1   O1    S    
Cu8   O40   S    
C285  H201  S    
C16   C116  S    
C174  O105  S    
C145  C147  S    
C252  C257  A    
C255  H79   S    
C186  H148  S    
C59   H227  S    
C241  C246  A    
C198  O10   S    
C284  C288  A    
C256  H266  S    
Cu2   O54   S    
C217  C221  A    
C167  C169  S    
C67   H251  S    
C120  C279  S    
C126  H212  S    
Cu9   O41   S    
C13   C256  S    
C283  C287  A    
C221  C226  A    
C101  C121  S    
C207  C208  S    
C5    C287  A    
H38   O78   S    
Cu4   O13   S    
C132  H279  S    
C6    C288  A    
C2    H261  S    
C150  H44   S    
C91   C93   A    
C186  H149  S    
C251  C255  A    
C159  C160  S    
C167  O101  S    
C272  C276  A    
C20   C235  S    
C179  C213  A    
C11   C106  S    
C24   C122  S    
C219  C263  S    
C158  H62   S    
C254  C259  A    
C182  H137  S    
C147  H28   S    
Cu1   O25   S    
C161  O94   S    
C137  O68   S    
C123  O57   S    
C197  H177  S    
C180  H132  S    
H66   O89   S    
C246  O87   S    
C102  C110  A    
C103  C118  A    
C190  C236  A    
C194  O8    S    
C11   O41   A    
C76   C86   A    
C203  O12   S    
C10   O40   A    
C137  C138  S    
C45   C48   A    
C3    C285  A    
C238  C242  A    
C173  H110  S    
C6    C249  S    
C17   O54   A    
C84   C99   S    
C144  H22   S    
C176  C177  S    
C1    O22   A    
C12   C107  S    
C178  C180  S    
Cu4   O21   S    
C74   O106  S    
Cu12  O2    S    
C197  H176  S    
C283  H179  S    
Cu1   Cu6   S    
C23   O18   A    
C269  C273  A    
C209  H206  S    
C225  C233  A    
C246  C250  A    
C33   O11   S    
C228  C237  A    
C193  H164  S    
C197  H175  S    
C134  H284  S    
C185  C186  S    
C172  H108  S    
C277  O62   S    
C211  O71   S    
C43   H216  S    
C80   O111  S    
C169  H99   S    
C189  O6    S    
C30   O8    S    
C35   C128  S    
C252  H46   S    
C164  H83   S    
Cu2   O102  S    
C13   H262  S    
C140  H11   S    
C259  H113  S    
C170  C171  S    
C180  H133  S    
Cu10  O42   S    
C133  H281  S    
C127  O61   S    
Cu12  O53   S    
C110  C115  A    
C215  O74   S    
C231  O33   A    
C230  O32   A    
C167  H97   S    
C160  H74   S    
C205  H196  S    
C280  O90   S    
C203  C204  S    
C208  H204  S    
C139  O70   S    
C165  C166  S    
C179  O67   S    
C68   C131  S    
H275  O64   S    
C18   O56   A    
C163  C164  S    
C121  C280  S    
C265  C270  A    
C58   C72   A    
C119  C278  S    
C151  H45   S    
C251  H35   S    
C47   C49   A    
C205  C206  S    
C60   H228  S    
C271  C275  A    
Cu11  O46   S    
C195  H172  S    
Cu10  O51   S    
C133  H280  S    
C52   C72   S    
C9    O38   A    
C143  H18   S    
C114  H250  S    
C215  C219  A    
C225  O79   S    
H273  O62   S    
C206  H197  S    
C139  H7    S    
H276  O65   S    
C212  O24   A    
Cu3   O55   S    
H271  O60   S    
C153  H52   S    
C125  O59   S    
C227  O82   S    
C149  H33   S    
C97   C118  S    
C2    O14   S    
C204  H194  S    
H92   O97   S    
C201  C215  A    
C147  H26   S    
C159  H70   S    
C134  O67   S    
C9    C66   S    
C61   H233  S    
Cu9   O50   S    
C26   C34   A    
C206  H199  S    
C132  C133  S    
C238  C260  A    
C198  C199  S    
C189  H158  S    
C183  O3    S    
C75   C80   A    
C81   O112  S    
C74   C78   A    
C265  H135  S    
C213  O72   S    
H272  O61   S    
C40   C55   S    
C204  H192  S    
C32   H231  S    
Cu1   O27   S    
C166  H91   S    
Cu12  O58   S    
C149  H32   S    
C177  H126  S    
C171  H106  S    
C232  O30   A    
C19   C233  S    
C70   H253  S    
C282  H168  S    
C218  C222  A    
C151  H47   S    
C128  C234  S    
C199  H182  S    
C101  C146  T    
C21   C236  S    
C17   C41   S    
C14   O48   A    
C148  C149  S    
C284  H190  S    
C213  C217  A    
C167  H96   S    
C134  C136  S    
C125  C279  S    
C268  H157  S    
C31   H230  S    
C126  C280  S    
H65   O88   S    
C226  C235  A    
C253  H57   S    
C138  H6    S    
Cu11  O52   S    
C111  H249  S    
C267  H268  S    
H122  O109  S    
C16   O52   A    
C27   C41   A    
C31   C69   S    
Cu6   O22   S    
C32   O10   S    
C194  H169  S    
C196  H173  S    
Cu10  O48   S    
Cu3   O80   S    
C89   C92   A    
C232  O34   A    
C275  C284  A    
C190  C214  A    
C243  O85   S    
C29   H215  S    
C8    O37   A    
C104  C114  A    
C174  H115  S    
C44   C51   A    
C279  O63   S    
C136  H285  S    
C57   C107  T    
C77   C86   A    
C282  C286  A    
C93   C96   A    
Cu4   O56   S    
C218  C262  S    
H39   O79   S    
C216  C260  S    
C176  H125  S    
C30   C119  S    
C81   C84   A    
H37   O77   S    
C172  C173  S    
C47   C55   A    
C191  H161  S    
Cu6   O31   S    
C37   O104  S    
C195  H170  S    
C62   C65   A    
C229  O31   A    
C142  H17   S    
C1    C273  S    
C64   H237  S    
Cu7   O34   S    
C53   C73   S    
C71   H259  S    
C10   C105  S    
C76   C81   A    
C201  C237  A    
C152  H50   S    
C172  H107  S    
H42   O83   S    
C156  H60   S    
C286  O97   S    
C242  C247  A    
C125  H112  S    
C26   H211  S    
C158  H64   S    
C192  C193  S    
C127  C281  S    
C220  O75   S    
C269  O93   S    
C100  O4    S    
Cu5   Cu7   S    
C141  C142  S    
C70   H258  S    
C242  O84   S    
C123  C128  S    
C154  H54   S    
C178  H129  S    
C210  H208  S    
C25   C86   S    
C23   O19   A    
C220  C225  A    
C161  H75   S    
C162  H77   S    
C15   C115  S    
Cu3   O17   S    
C281  O92   S    
C7    C268  A    
C63   H236  S    
C88   C98   A    
C10   O44   A    
C109  C115  A    
C8    C65   S    
C165  H86   S    
C187  C188  S    
C239  C243  A    
C14   O43   A    
C23   C85   S    
C166  H89   S    
C44   H217  S    
C93   H243  S    
C20   O69   A    
C34   O101  S    
C171  H104  S    
C68   C108  T    
C207  H200  S    
C209  O16   S    
C48   H220  S    
C157  C232  S    
C130  C256  S    
