data_mof_unit_62985.cif
_audit_creation_date              2012-10-26T20:08:33-0400
_audit_creation_method            fapswitch 2.2
_symmetry_space_group_name_H-M    P1
_symmetry_Int_Tables_number       1
_space_group_crystal_system       triclinic
_cell_length_a                    15.992318
_cell_length_b                    14.432372
_cell_length_c                    13.145161
_cell_angle_alpha                 90.002126
_cell_angle_beta                  90.027016
_cell_angle_gamma                 89.990565
_cell_volume                      3033.99587915

loop_
_atom_site_label
_atom_site_type_symbol
_atom_type_description
_atom_site_fract_x
_atom_site_fract_y
_atom_site_fract_z
_atom_type_partial_charge
C1    C     C_R   0.500001 0.328700 0.499998 0.557548
C2    C     C_1   0.499995 0.500031 0.949319 -0.037589
C3    C     C_R   0.338165 0.499197 0.499969 0.557264
C4    C     C_R   0.661836 0.499120 0.500032 0.557617
C5    C     C_R   0.500019 0.671299 0.500001 0.547724
C6    C     C_3   0.048183 0.507051 0.611453 0.164811
C7    C     C_3   0.048544 0.422565 0.440997 0.124650
C8    C     C_3   0.951054 0.497037 0.612051 0.101925
C9    C     C_3   0.951911 0.432430 0.429438 0.174397
C10   C     C_1   0.750671 0.502315 0.500189 -0.017189
C11   C     C_1   0.249329 0.502262 0.499825 -0.030871
C12   C     C_1   0.500023 0.142306 0.499996 -0.030219
C13   C     C_3   0.082860 0.510055 0.499144 -0.006357
C14   C     C_3   0.917285 0.510781 0.501262 0.009788
C15   C     C_3   0.949655 0.608763 0.460423 0.497231
C16   C     C_3   0.048358 0.599761 0.439045 0.487626
C17   C     C_1   0.825552 0.506099 0.500648 0.015995
C18   C     C_1   0.174432 0.505848 0.499372 -0.015970
C19   C     C_1   0.500012 0.227119 0.499996 -0.033725
C20   C     C_3   0.117111 0.709781 0.555720 -0.126239
C21   C     C_3   0.129213 0.613145 0.285607 -0.080645
C22   C     C_3   0.852048 0.705086 0.551383 -0.129921
C23   C     C_1   0.500035 0.042400 0.499997 0.008464
C24   C     C_3   0.924275 0.718422 0.327670 -0.034598
C25   C     C_1   0.500042 0.957589 0.500000 0.005042
C26   C     C_1   0.500042 0.857686 0.500002 -0.040672
C27   C     C_1   0.500034 0.772875 0.500003 -0.047490
C28   C     C_1   0.499996 0.500028 0.173628 0.129877
C29   C     C_1   0.499998 0.500027 0.826373 0.131729
C30   C     C_1   0.499993 0.500032 0.050681 -0.038436
Cu1   Cu    Cu3+1 0.500000 0.499990 0.592680 0.992575
Cu2   Cu    Cu3+1 0.500000 0.499990 0.407320 0.992157
H1    H     H_    0.075654 0.419487 0.362778 0.146188
H2    H     H_    0.148443 0.778203 0.551559 0.146815
H3    H     H_    0.165400 0.661757 0.584478 0.109750
H4    H     H_    0.186103 0.600098 0.331484 0.136589
H5    H     H_    0.123250 0.688375 0.269306 0.158217
H6    H     H_    0.137310 0.576954 0.211854 0.126515
H7    H     H_    0.825734 0.664783 0.615647 0.107245
H8    H     H_    0.810964 0.697848 0.483832 0.154606
H9    H     H_    0.850312 0.779096 0.573932 0.143737
H10   H     H_    0.960617 0.764570 0.378893 0.185338
H11   H     H_    0.864534 0.753942 0.309804 0.104005
H12   H     H_    0.060930 0.573440 0.648940 0.124866
H13   H     H_    0.959122 0.710459 0.255272 0.153404
H14   H     H_    0.939712 0.455239 0.349948 0.190932
H15   H     H_    0.925858 0.552834 0.662130 0.125741
H16   H     H_    0.867403 0.419246 0.677834 0.328910
H17   H     H_    0.921092 0.320292 0.506310 0.415114
H18   H     H_    0.068797 0.379154 0.660572 0.422276
H19   H     H_    0.129154 0.325570 0.472899 0.329954
H20   H     H_    0.065083 0.719382 0.610030 0.162431
N1    N     N_1   0.500000 0.500020 0.268070 -0.164168
N2    N     N_1   0.500000 0.500020 0.731930 -0.163599
O1    O     O_R   0.500000 0.376050 0.578280 -0.469879
O2    O     O_3   0.909344 0.347208 0.438715 -0.657922
O3    O     O_3   0.090083 0.442210 0.673802 -0.653618
O4    O     O_3   0.069868 0.339070 0.489671 -0.679660
O5    O     O_3   0.089441 0.687582 0.456731 -0.563747
O6    O     O_3   0.055387 0.579794 0.332321 -0.595489
O7    O     O_3   0.936628 0.679847 0.534942 -0.613202
O8    O     O_3   0.905946 0.629450 0.367887 -0.559350
O9    O     O_R   0.500000 0.376050 0.421720 -0.470466
O10   O     O_R   0.379430 0.500000 0.578300 -0.472135
O11   O     O_R   0.379430 0.500000 0.421700 -0.493457
O12   O     O_R   0.620570 0.500000 0.578300 -0.492493
O13   O     O_R   0.620570 0.500000 0.421700 -0.471410
O14   O     O_R   0.500000 0.623940 0.578240 -0.475107
O15   O     O_R   0.500000 0.623940 0.421760 -0.473709
O16   O     O_3   0.925806 0.411710 0.653616 -0.689718

loop_
_geom_bond_atom_site_label_1
_geom_bond_atom_site_label_2
_ccdc_geom_bond_type
Cu1   O12   S    
C8    C14   S    
C28   N1    T    
C11   C18   T    
Cu2   O15   S    
C4    O13   A    
H17   O2    S    
C24   H10   S    
C7    O4    S    
C8    O16   S    
Cu1   Cu2   S    
C6    O3    S    
C2    C30   T    
C20   H2    S    
C5    O15   A    
C28   C30   S    
C15   O7    S    
C8    H15   S    
C22   H8    S    
C9    H14   S    
C20   H20   S    
C21   H4    S    
C6    H12   S    
C3    O10   A    
C22   O7    S    
C4    O12   A    
C7    H1    S    
C12   C23   S    
C6    C13   S    
C26   C27   T    
C3    O11   A    
C13   C18   S    
C24   O8    S    
Cu2   O13   S    
C24   H13   S    
C1    O9    A    
C12   C19   T    
C15   O8    S    
C5    O14   A    
C2    C29   S    
Cu1   N2    S    
C1    O1    A    
Cu1   O14   S    
C24   H11   S    
C1    C19   S    
C22   H9    S    
C3    C11   S    
C29   N2    T    
C22   H7    S    
C10   C17   T    
C9    O2    S    
C15   C16   S    
Cu2   N1    S    
C7    C13   S    
C23   C25   T    
C21   H5    S    
C21   O6    S    
C7    C9    S    
C16   O6    S    
C13   C16   S    
H19   O4    S    
C9    C14   S    
C14   C15   S    
C6    C8    S    
Cu1   O1    S    
C25   C26   S    
C5    C27   S    
H18   O3    S    
C4    C10   S    
Cu1   O10   S    
C20   H3    S    
C21   H6    S    
Cu2   O9    S    
H16   O16   S    
Cu2   O11   S    
C20   O5    S    
C16   O5    S    
C14   C17   S    
